MODEL 1
REMARK VINA RESULT:      -9.7      0.000      0.000
REMARK  Name = 
REMARK  5 active torsions:
REMARK  status: ('A' for Active; 'I' for Inactive)
REMARK    1  A    between atoms: C_1  and  C_2
REMARK    2  A    between atoms: C_4  and  C_5
REMARK    3  A    between atoms: C_9  and  N_10
REMARK    4  A    between atoms: C_11  and  C_13
REMARK    5  A    between atoms: C_13  and  C_14
REMARK                            x       y       z     vdW  Elec       q    Type
REMARK                         _______ _______ _______ _____ _____    ______ ____
ROOT
ATOM      1  N   UNL     1       3.107   6.355  18.881  0.00  0.00    +0.000 N 
ATOM      2  C   UNL     1       2.659   5.173  18.300  0.00  0.00    +0.000 C 
ATOM      3  O   UNL     1       1.590   5.058  17.700  0.00  0.00    +0.000 OA
ATOM      4  H   UNL     1       4.028   6.357  19.294  0.00  0.00    +0.000 HD
ENDROOT
BRANCH   1   9
ATOM      5  C   UNL     1       0.996   9.160  20.158  0.00  0.00    +0.000 A 
ATOM      6  C   UNL     1       1.027  10.043  19.070  0.00  0.00    +0.000 A 
ATOM      7  C   UNL     1       1.721   9.713  17.916  0.00  0.00    +0.000 A 
ATOM      8  C   UNL     1       2.400   8.496  17.837  0.00  0.00    +0.000 A 
ATOM      9  C   UNL     1       2.401   7.591  18.905  0.00  0.00    +0.000 A 
ATOM     10  C   UNL     1       1.680   7.929  20.062  0.00  0.00    +0.000 A 
BRANCH   5  14
ATOM     11  C   UNL     1      -1.870  11.730  23.230  0.00  0.00    +0.000 C 
ATOM     12  C   UNL     1      -0.966  10.729  22.632  0.00  0.00    +0.000 A 
ATOM     13  N   UNL     1      -0.568  10.646  21.383  0.00  0.00    +0.000 NA
ATOM     14  C   UNL     1       0.284   9.558  21.369  0.00  0.00    +0.000 A 
ATOM     15  N   UNL     1       0.408   8.959  22.564  0.00  0.00    +0.000 NA
ATOM     16  N   UNL     1      -0.384   9.720  23.340  0.00  0.00    +0.000 N 
ATOM     17  H   UNL     1      -0.469   9.503  24.326  0.00  0.00    +0.000 HD
ENDBRANCH   5  14
ENDBRANCH   1   9
BRANCH   2  18
ATOM     18  C   UNL     1       3.628   3.963  18.350  0.00  0.00    +0.000 C 
ATOM     19  C   UNL     1       2.822   2.725  17.849  0.00  0.00    +0.000 C 
ATOM     20  C   UNL     1       3.465   1.493  18.468  0.00  0.00    +0.000 C 
ATOM     21  C   UNL     1       4.284   2.002  19.645  0.00  0.00    +0.000 C 
ATOM     22  C   UNL     1       3.938   3.487  19.783  0.00  0.00    +0.000 C 
BRANCH  18  23
ATOM     23  C   UNL     1       4.850   4.241  17.449  0.00  0.00    +0.000 A 
ATOM     24  C   UNL     1       6.092   4.551  18.042  0.00  0.00    +0.000 A 
ATOM     25  C   UNL     1       7.241   4.776  17.274  0.00  0.00    +0.000 A 
ATOM     26  C   UNL     1       7.176   4.692  15.889  0.00  0.00    +0.000 A 
ATOM     27  C   UNL     1       5.963   4.390  15.288  0.00  0.00    +0.000 A 
ATOM     28  F   UNL     1       5.893   4.306  13.953  0.00  0.00    +0.000 F 
ATOM     29  C   UNL     1       4.811   4.165  16.047  0.00  0.00    +0.000 A 
ENDBRANCH  18  23
ENDBRANCH   2  18
TORSDOF 4
ENDMDL
MODEL 2
REMARK VINA RESULT:      -9.5      0.984      1.347
REMARK  Name = 
REMARK  5 active torsions:
REMARK  status: ('A' for Active; 'I' for Inactive)
REMARK    1  A    between atoms: C_1  and  C_2
REMARK    2  A    between atoms: C_4  and  C_5
REMARK    3  A    between atoms: C_9  and  N_10
REMARK    4  A    between atoms: C_11  and  C_13
REMARK    5  A    between atoms: C_13  and  C_14
REMARK                            x       y       z     vdW  Elec       q    Type
REMARK                         _______ _______ _______ _____ _____    ______ ____
ROOT
ATOM      1  N   UNL     1       3.043   6.326  18.940  0.00  0.00    +0.000 N 
ATOM      2  C   UNL     1       2.597   5.147  18.352  0.00  0.00    +0.000 C 
ATOM      3  O   UNL     1       1.542   5.042  17.726  0.00  0.00    +0.000 OA
ATOM      4  H   UNL     1       3.954   6.319  19.376  0.00  0.00    +0.000 HD
ENDROOT
BRANCH   1   9
ATOM      5  C   UNL     1       0.959   9.174  20.164  0.00  0.00    +0.000 A 
ATOM      6  C   UNL     1       1.004  10.040  19.063  0.00  0.00    +0.000 A 
ATOM      7  C   UNL     1       1.701   9.684  17.917  0.00  0.00    +0.000 A 
ATOM      8  C   UNL     1       2.366   8.459  17.860  0.00  0.00    +0.000 A 
ATOM      9  C   UNL     1       2.351   7.570  18.942  0.00  0.00    +0.000 A 
ATOM     10  C   UNL     1       1.629   7.934  20.090  0.00  0.00    +0.000 A 
BRANCH   5  14
ATOM     11  C   UNL     1      -1.799  11.881  23.217  0.00  0.00    +0.000 C 
ATOM     12  C   UNL     1      -0.952  10.830  22.621  0.00  0.00    +0.000 A 
ATOM     13  N   UNL     1      -0.528  10.743  21.380  0.00  0.00    +0.000 NA
ATOM     14  C   UNL     1       0.245   9.598  21.365  0.00  0.00    +0.000 A 
ATOM     15  N   UNL     1       0.296   8.969  22.550  0.00  0.00    +0.000 NA
ATOM     16  N   UNL     1      -0.461   9.769  23.322  0.00  0.00    +0.000 N 
ATOM     17  H   UNL     1      -0.586   9.541  24.301  0.00  0.00    +0.000 HD
ENDBRANCH   5  14
ENDBRANCH   1   9
BRANCH   2  18
ATOM     18  C   UNL     1       3.550   3.927  18.431  0.00  0.00    +0.000 C 
ATOM     19  C   UNL     1       2.797   2.730  17.771  0.00  0.00    +0.000 C 
ATOM     20  C   UNL     1       3.366   1.456  18.379  0.00  0.00    +0.000 C 
ATOM     21  C   UNL     1       4.056   1.883  19.666  0.00  0.00    +0.000 C 
ATOM     22  C   UNL     1       3.703   3.361  19.857  0.00  0.00    +0.000 C 
BRANCH  18  23
ATOM     23  C   UNL     1       4.863   4.246  17.685  0.00  0.00    +0.000 A 
ATOM     24  C   UNL     1       4.904   4.141  16.278  0.00  0.00    +0.000 A 
ATOM     25  C   UNL     1       6.057   4.454  15.548  0.00  0.00    +0.000 A 
ATOM     26  C   UNL     1       7.200   4.885  16.210  0.00  0.00    +0.000 A 
ATOM     27  C   UNL     1       7.179   4.993  17.592  0.00  0.00    +0.000 A 
ATOM     28  F   UNL     1       8.277   5.408  18.237  0.00  0.00    +0.000 F 
ATOM     29  C   UNL     1       6.032   4.681  18.328  0.00  0.00    +0.000 A 
ENDBRANCH  18  23
ENDBRANCH   2  18
TORSDOF 4
ENDMDL
MODEL 3
REMARK VINA RESULT:      -8.8      2.547      3.511
REMARK  Name = 
REMARK  5 active torsions:
REMARK  status: ('A' for Active; 'I' for Inactive)
REMARK    1  A    between atoms: C_1  and  C_2
REMARK    2  A    between atoms: C_4  and  C_5
REMARK    3  A    between atoms: C_9  and  N_10
REMARK    4  A    between atoms: C_11  and  C_13
REMARK    5  A    between atoms: C_13  and  C_14
REMARK                            x       y       z     vdW  Elec       q    Type
REMARK                         _______ _______ _______ _____ _____    ______ ____
ROOT
ATOM      1  N   UNL     1       2.428   7.026  19.249  0.00  0.00    +0.000 N 
ATOM      2  C   UNL     1       2.417   5.728  19.749  0.00  0.00    +0.000 C 
ATOM      3  O   UNL     1       1.730   5.358  20.702  0.00  0.00    +0.000 OA
ATOM      4  H   UNL     1       2.979   7.208  18.423  0.00  0.00    +0.000 HD
ENDROOT
BRANCH   1   9
ATOM      5  C   UNL     1       0.124   9.964  19.349  0.00  0.00    +0.000 A 
ATOM      6  C   UNL     1       0.137  10.277  20.715  0.00  0.00    +0.000 A 
ATOM      7  C   UNL     1       0.912   9.538  21.598  0.00  0.00    +0.000 A 
ATOM      8  C   UNL     1       1.680   8.473  21.125  0.00  0.00    +0.000 A 
ATOM      9  C   UNL     1       1.687   8.124  19.769  0.00  0.00    +0.000 A 
ATOM     10  C   UNL     1       0.912   8.890  18.883  0.00  0.00    +0.000 A 
BRANCH   5  14
ATOM     11  C   UNL     1      -3.106  11.061  15.796  0.00  0.00    +0.000 C 
ATOM     12  C   UNL     1      -2.131  11.129  16.902  0.00  0.00    +0.000 A 
ATOM     13  N   UNL     1      -1.584  10.132  17.558  0.00  0.00    +0.000 NA
ATOM     14  C   UNL     1      -0.731  10.742  18.457  0.00  0.00    +0.000 A 
ATOM     15  N   UNL     1      -0.749  12.083  18.387  0.00  0.00    +0.000 NA
ATOM     16  N   UNL     1      -1.633  12.298  17.397  0.00  0.00    +0.000 N 
ATOM     17  H   UNL     1      -1.836  13.248  17.109  0.00  0.00    +0.000 HD
ENDBRANCH   5  14
ENDBRANCH   1   9
BRANCH   2  18
ATOM     18  C   UNL     1       3.266   4.681  18.982  0.00  0.00    +0.000 C 
ATOM     19  C   UNL     1       2.402   4.204  17.774  0.00  0.00    +0.000 C 
ATOM     20  C   UNL     1       2.874   2.804  17.412  0.00  0.00    +0.000 C 
ATOM     21  C   UNL     1       3.623   2.291  18.633  0.00  0.00    +0.000 C 
ATOM     22  C   UNL     1       3.400   3.337  19.729  0.00  0.00    +0.000 C 
BRANCH  18  23
ATOM     23  C   UNL     1       4.585   5.328  18.511  0.00  0.00    +0.000 A 
ATOM     24  C   UNL     1       4.604   6.067  17.309  0.00  0.00    +0.000 A 
ATOM     25  C   UNL     1       5.764   6.706  16.853  0.00  0.00    +0.000 A 
ATOM     26  C   UNL     1       6.936   6.623  17.594  0.00  0.00    +0.000 A 
ATOM     27  C   UNL     1       6.937   5.900  18.776  0.00  0.00    +0.000 A 
ATOM     28  F   UNL     1       8.064   5.817  19.496  0.00  0.00    +0.000 F 
ATOM     29  C   UNL     1       5.785   5.258  19.238  0.00  0.00    +0.000 A 
ENDBRANCH  18  23
ENDBRANCH   2  18
TORSDOF 4
ENDMDL
MODEL 4
REMARK VINA RESULT:      -8.8      2.783      4.560
REMARK  Name = 
REMARK  5 active torsions:
REMARK  status: ('A' for Active; 'I' for Inactive)
REMARK    1  A    between atoms: C_1  and  C_2
REMARK    2  A    between atoms: C_4  and  C_5
REMARK    3  A    between atoms: C_9  and  N_10
REMARK    4  A    between atoms: C_11  and  C_13
REMARK    5  A    between atoms: C_13  and  C_14
REMARK                            x       y       z     vdW  Elec       q    Type
REMARK                         _______ _______ _______ _____ _____    ______ ____
ROOT
ATOM      1  N   UNL     1       2.145   7.153  19.923  0.00  0.00    +0.000 N 
ATOM      2  C   UNL     1       2.884   6.956  18.761  0.00  0.00    +0.000 C 
ATOM      3  O   UNL     1       3.047   7.812  17.891  0.00  0.00    +0.000 OA
ATOM      4  H   UNL     1       2.127   6.406  20.602  0.00  0.00    +0.000 HD
ENDROOT
BRANCH   1   9
ATOM      5  C   UNL     1      -0.029  10.170  19.571  0.00  0.00    +0.000 A 
ATOM      6  C   UNL     1      -0.029  10.663  20.883  0.00  0.00    +0.000 A 
ATOM      7  C   UNL     1       0.696  10.019  21.875  0.00  0.00    +0.000 A 
ATOM      8  C   UNL     1       1.425   8.870  21.569  0.00  0.00    +0.000 A 
ATOM      9  C   UNL     1       1.443   8.341  20.272  0.00  0.00    +0.000 A 
ATOM     10  C   UNL     1       0.719   9.012  19.272  0.00  0.00    +0.000 A 
BRANCH   5  14
ATOM     11  C   UNL     1      -3.008  10.906  15.718  0.00  0.00    +0.000 C 
ATOM     12  C   UNL     1      -2.120  11.085  16.883  0.00  0.00    +0.000 A 
ATOM     13  N   UNL     1      -1.602  10.155  17.653  0.00  0.00    +0.000 NA
ATOM     14  C   UNL     1      -0.832  10.854  18.562  0.00  0.00    +0.000 A 
ATOM     15  N   UNL     1      -0.875  12.186  18.388  0.00  0.00    +0.000 NA
ATOM     16  N   UNL     1      -1.687  12.301  17.322  0.00  0.00    +0.000 N 
ATOM     17  H   UNL     1      -1.889  13.221  16.948  0.00  0.00    +0.000 HD
ENDBRANCH   5  14
ENDBRANCH   1   9
BRANCH   2  18
ATOM     18  C   UNL     1       3.610   5.593  18.622  0.00  0.00    +0.000 C 
ATOM     19  C   UNL     1       4.992   5.749  19.328  0.00  0.00    +0.000 C 
ATOM     20  C   UNL     1       5.938   4.746  18.686  0.00  0.00    +0.000 C 
ATOM     21  C   UNL     1       5.301   4.369  17.357  0.00  0.00    +0.000 C 
ATOM     22  C   UNL     1       4.102   5.306  17.188  0.00  0.00    +0.000 C 
BRANCH  18  23
ATOM     23  C   UNL     1       2.763   4.485  19.281  0.00  0.00    +0.000 A 
ATOM     24  C   UNL     1       2.924   4.214  20.656  0.00  0.00    +0.000 A 
ATOM     25  C   UNL     1       2.157   3.245  21.314  0.00  0.00    +0.000 A 
ATOM     26  C   UNL     1       1.201   2.524  20.609  0.00  0.00    +0.000 A 
ATOM     27  C   UNL     1       1.029   2.775  19.256  0.00  0.00    +0.000 A 
ATOM     28  F   UNL     1       0.109   2.084  18.570  0.00  0.00    +0.000 F 
ATOM     29  C   UNL     1       1.792   3.739  18.592  0.00  0.00    +0.000 A 
ENDBRANCH  18  23
ENDBRANCH   2  18
TORSDOF 4
ENDMDL
MODEL 5
REMARK VINA RESULT:      -8.8      2.860      4.645
REMARK  Name = 
REMARK  5 active torsions:
REMARK  status: ('A' for Active; 'I' for Inactive)
REMARK    1  A    between atoms: C_1  and  C_2
REMARK    2  A    between atoms: C_4  and  C_5
REMARK    3  A    between atoms: C_9  and  N_10
REMARK    4  A    between atoms: C_11  and  C_13
REMARK    5  A    between atoms: C_13  and  C_14
REMARK                            x       y       z     vdW  Elec       q    Type
REMARK                         _______ _______ _______ _____ _____    ______ ____
ROOT
ATOM      1  N   UNL     1       2.175   7.063  19.883  0.00  0.00    +0.000 N 
ATOM      2  C   UNL     1       2.929   6.925  18.723  0.00  0.00    +0.000 C 
ATOM      3  O   UNL     1       3.108   7.825  17.902  0.00  0.00    +0.000 OA
ATOM      4  H   UNL     1       2.145   6.281  20.521  0.00  0.00    +0.000 HD
ENDROOT
BRANCH   1   9
ATOM      5  C   UNL     1       0.023  10.108  19.662  0.00  0.00    +0.000 A 
ATOM      6  C   UNL     1       0.002  10.527  20.999  0.00  0.00    +0.000 A 
ATOM      7  C   UNL     1       0.706   9.825  21.967  0.00  0.00    +0.000 A 
ATOM      8  C   UNL     1       1.435   8.690  21.609  0.00  0.00    +0.000 A 
ATOM      9  C   UNL     1       1.473   8.234  20.286  0.00  0.00    +0.000 A 
ATOM     10  C   UNL     1       0.771   8.963  19.312  0.00  0.00    +0.000 A 
BRANCH   5  14
ATOM     11  C   UNL     1      -3.033  11.072  15.920  0.00  0.00    +0.000 C 
ATOM     12  C   UNL     1      -2.087  11.181  17.049  0.00  0.00    +0.000 A 
ATOM     13  N   UNL     1      -1.620  10.215  17.806  0.00  0.00    +0.000 NA
ATOM     14  C   UNL     1      -0.759  10.852  18.678  0.00  0.00    +0.000 A 
ATOM     15  N   UNL     1      -0.696  12.181  18.494  0.00  0.00    +0.000 NA
ATOM     16  N   UNL     1      -1.536  12.359  17.460  0.00  0.00    +0.000 N 
ATOM     17  H   UNL     1      -1.674  13.290  17.086  0.00  0.00    +0.000 HD
ENDBRANCH   5  14
ENDBRANCH   1   9
BRANCH   2  18
ATOM     18  C   UNL     1       3.652   5.568  18.521  0.00  0.00    +0.000 C 
ATOM     19  C   UNL     1       4.985   5.647  19.328  0.00  0.00    +0.000 C 
ATOM     20  C   UNL     1       5.964   4.687  18.670  0.00  0.00    +0.000 C 
ATOM     21  C   UNL     1       5.414   4.427  17.276  0.00  0.00    +0.000 C 
ATOM     22  C   UNL     1       4.237   5.391  17.105  0.00  0.00    +0.000 C 
BRANCH  18  23
ATOM     23  C   UNL     1       2.753   4.422  19.030  0.00  0.00    +0.000 A 
ATOM     24  C   UNL     1       1.809   3.840  18.157  0.00  0.00    +0.000 A 
ATOM     25  C   UNL     1       0.994   2.774  18.555  0.00  0.00    +0.000 A 
ATOM     26  C   UNL     1       1.107   2.258  19.840  0.00  0.00    +0.000 A 
ATOM     27  C   UNL     1       2.028   2.817  20.713  0.00  0.00    +0.000 A 
ATOM     28  F   UNL     1       2.143   2.324  21.953  0.00  0.00    +0.000 F 
ATOM     29  C   UNL     1       2.845   3.882  20.324  0.00  0.00    +0.000 A 
ENDBRANCH  18  23
ENDBRANCH   2  18
TORSDOF 4
ENDMDL
MODEL 6
REMARK VINA RESULT:      -8.8      2.262      3.169
REMARK  Name = 
REMARK  5 active torsions:
REMARK  status: ('A' for Active; 'I' for Inactive)
REMARK    1  A    between atoms: C_1  and  C_2
REMARK    2  A    between atoms: C_4  and  C_5
REMARK    3  A    between atoms: C_9  and  N_10
REMARK    4  A    between atoms: C_11  and  C_13
REMARK    5  A    between atoms: C_13  and  C_14
REMARK                            x       y       z     vdW  Elec       q    Type
REMARK                         _______ _______ _______ _____ _____    ______ ____
ROOT
ATOM      1  N   UNL     1       2.366   6.922  19.543  0.00  0.00    +0.000 N 
ATOM      2  C   UNL     1       2.129   5.592  19.873  0.00  0.00    +0.000 C 
ATOM      3  O   UNL     1       1.228   5.215  20.623  0.00  0.00    +0.000 OA
ATOM      4  H   UNL     1       3.091   7.117  18.868  0.00  0.00    +0.000 HD
ENDROOT
BRANCH   1   9
ATOM      5  C   UNL     1       0.146   9.926  19.560  0.00  0.00    +0.000 A 
ATOM      6  C   UNL     1       0.127  10.245  20.924  0.00  0.00    +0.000 A 
ATOM      7  C   UNL     1       0.853   9.489  21.833  0.00  0.00    +0.000 A 
ATOM      8  C   UNL     1       1.604   8.400  21.389  0.00  0.00    +0.000 A 
ATOM      9  C   UNL     1       1.642   8.044  20.035  0.00  0.00    +0.000 A 
ATOM     10  C   UNL     1       0.916   8.827  19.122  0.00  0.00    +0.000 A 
BRANCH   5  14
ATOM     11  C   UNL     1      -3.007  11.095  15.961  0.00  0.00    +0.000 C 
ATOM     12  C   UNL     1      -2.030  11.141  17.067  0.00  0.00    +0.000 A 
ATOM     13  N   UNL     1      -1.547  10.135  17.759  0.00  0.00    +0.000 NA
ATOM     14  C   UNL     1      -0.659  10.723  18.639  0.00  0.00    +0.000 A 
ATOM     15  N   UNL     1      -0.595  12.060  18.522  0.00  0.00    +0.000 NA
ATOM     16  N   UNL     1      -1.463  12.294  17.523  0.00  0.00    +0.000 N 
ATOM     17  H   UNL     1      -1.606  13.244  17.202  0.00  0.00    +0.000 HD
ENDBRANCH   5  14
ENDBRANCH   1   9
BRANCH   2  18
ATOM     18  C   UNL     1       3.014   4.532  19.168  0.00  0.00    +0.000 C 
ATOM     19  C   UNL     1       2.097   3.795  18.143  0.00  0.00    +0.000 C 
ATOM     20  C   UNL     1       2.690   2.411  17.928  0.00  0.00    +0.000 C 
ATOM     21  C   UNL     1       3.610   2.165  19.115  0.00  0.00    +0.000 C 
ATOM     22  C   UNL     1       3.375   3.336  20.073  0.00  0.00    +0.000 C 
BRANCH  18  23
ATOM     23  C   UNL     1       4.197   5.230  18.465  0.00  0.00    +0.000 A 
ATOM     24  C   UNL     1       5.454   5.276  19.103  0.00  0.00    +0.000 A 
ATOM     25  C   UNL     1       6.570   5.863  18.495  0.00  0.00    +0.000 A 
ATOM     26  C   UNL     1       6.456   6.418  17.227  0.00  0.00    +0.000 A 
ATOM     27  C   UNL     1       5.227   6.384  16.584  0.00  0.00    +0.000 A 
ATOM     28  F   UNL     1       5.110   6.916  15.360  0.00  0.00    +0.000 F 
ATOM     29  C   UNL     1       4.109   5.800  17.184  0.00  0.00    +0.000 A 
ENDBRANCH  18  23
ENDBRANCH   2  18
TORSDOF 4
ENDMDL
MODEL 7
REMARK VINA RESULT:      -8.6      2.475      3.380
REMARK  Name = 
REMARK  5 active torsions:
REMARK  status: ('A' for Active; 'I' for Inactive)
REMARK    1  A    between atoms: C_1  and  C_2
REMARK    2  A    between atoms: C_4  and  C_5
REMARK    3  A    between atoms: C_9  and  N_10
REMARK    4  A    between atoms: C_11  and  C_13
REMARK    5  A    between atoms: C_13  and  C_14
REMARK                            x       y       z     vdW  Elec       q    Type
REMARK                         _______ _______ _______ _____ _____    ______ ____
ROOT
ATOM      1  N   UNL     1       2.281   7.141  19.368  0.00  0.00    +0.000 N 
ATOM      2  C   UNL     1       2.514   5.866  19.872  0.00  0.00    +0.000 C 
ATOM      3  O   UNL     1       2.128   5.476  20.975  0.00  0.00    +0.000 OA
ATOM      4  H   UNL     1       2.586   7.337  18.425  0.00  0.00    +0.000 HD
ENDROOT
BRANCH   1   9
ATOM      5  C   UNL     1       0.495  10.375  19.917  0.00  0.00    +0.000 A 
ATOM      6  C   UNL     1       0.198  10.296  21.284  0.00  0.00    +0.000 A 
ATOM      7  C   UNL     1       0.597   9.194  22.027  0.00  0.00    +0.000 A 
ATOM      8  C   UNL     1       1.295   8.155  21.410  0.00  0.00    +0.000 A 
ATOM      9  C   UNL     1       1.602   8.193  20.045  0.00  0.00    +0.000 A 
ATOM     10  C   UNL     1       1.208   9.321  19.307  0.00  0.00    +0.000 A 
BRANCH   5  14
ATOM     11  C   UNL     1      -0.177  15.051  18.520  0.00  0.00    +0.000 C 
ATOM     12  C   UNL     1      -0.215  13.579  18.628  0.00  0.00    +0.000 A 
ATOM     13  N   UNL     1       0.451  12.813  19.461  0.00  0.00    +0.000 NA
ATOM     14  C   UNL     1       0.027  11.533  19.161  0.00  0.00    +0.000 A 
ATOM     15  N   UNL     1      -0.864  11.486  18.157  0.00  0.00    +0.000 NA
ATOM     16  N   UNL     1      -1.002  12.786  17.845  0.00  0.00    +0.000 N 
ATOM     17  H   UNL     1      -1.646  13.056  17.111  0.00  0.00    +0.000 HD
ENDBRANCH   5  14
ENDBRANCH   1   9
BRANCH   2  18
ATOM     18  C   UNL     1       3.229   4.865  18.928  0.00  0.00    +0.000 C 
ATOM     19  C   UNL     1       2.288   4.658  17.701  0.00  0.00    +0.000 C 
ATOM     20  C   UNL     1       2.603   3.287  17.122  0.00  0.00    +0.000 C 
ATOM     21  C   UNL     1       3.328   2.530  18.224  0.00  0.00    +0.000 C 
ATOM     22  C   UNL     1       3.243   3.420  19.467  0.00  0.00    +0.000 C 
BRANCH  18  23
ATOM     23  C   UNL     1       4.594   5.441  18.500  0.00  0.00    +0.000 A 
ATOM     24  C   UNL     1       4.676   6.247  17.344  0.00  0.00    +0.000 A 
ATOM     25  C   UNL     1       5.882   6.826  16.931  0.00  0.00    +0.000 A 
ATOM     26  C   UNL     1       7.039   6.615  17.669  0.00  0.00    +0.000 A 
ATOM     27  C   UNL     1       6.980   5.824  18.806  0.00  0.00    +0.000 A 
ATOM     28  F   UNL     1       8.092   5.618  19.523  0.00  0.00    +0.000 F 
ATOM     29  C   UNL     1       5.780   5.242  19.225  0.00  0.00    +0.000 A 
ENDBRANCH  18  23
ENDBRANCH   2  18
TORSDOF 4
ENDMDL
MODEL 8
REMARK VINA RESULT:      -8.5      2.432      3.491
REMARK  Name = 
REMARK  5 active torsions:
REMARK  status: ('A' for Active; 'I' for Inactive)
REMARK    1  A    between atoms: C_1  and  C_2
REMARK    2  A    between atoms: C_4  and  C_5
REMARK    3  A    between atoms: C_9  and  N_10
REMARK    4  A    between atoms: C_11  and  C_13
REMARK    5  A    between atoms: C_13  and  C_14
REMARK                            x       y       z     vdW  Elec       q    Type
REMARK                         _______ _______ _______ _____ _____    ______ ____
ROOT
ATOM      1  N   UNL     1       1.969   6.964  20.186  0.00  0.00    +0.000 N 
ATOM      2  C   UNL     1       2.701   6.689  19.036  0.00  0.00    +0.000 C 
ATOM      3  O   UNL     1       2.965   7.523  18.168  0.00  0.00    +0.000 OA
ATOM      4  H   UNL     1       1.863   6.223  20.864  0.00  0.00    +0.000 HD
ENDROOT
BRANCH   1   9
ATOM      5  C   UNL     1       0.071  10.160  19.818  0.00  0.00    +0.000 A 
ATOM      6  C   UNL     1       0.152  10.678  21.117  0.00  0.00    +0.000 A 
ATOM      7  C   UNL     1       0.842   9.991  22.106  0.00  0.00    +0.000 A 
ATOM      8  C   UNL     1       1.455   8.773  21.809  0.00  0.00    +0.000 A 
ATOM      9  C   UNL     1       1.388   8.218  20.525  0.00  0.00    +0.000 A 
ATOM     10  C   UNL     1       0.702   8.931  19.528  0.00  0.00    +0.000 A 
BRANCH   5  14
ATOM     11  C   UNL     1      -2.930  11.086  16.024  0.00  0.00    +0.000 C 
ATOM     12  C   UNL     1      -1.998  11.207  17.163  0.00  0.00    +0.000 A 
ATOM     13  N   UNL     1      -1.547  10.249  17.940  0.00  0.00    +0.000 NA
ATOM     14  C   UNL     1      -0.693  10.894  18.813  0.00  0.00    +0.000 A 
ATOM     15  N   UNL     1      -0.619  12.220  18.610  0.00  0.00    +0.000 NA
ATOM     16  N   UNL     1      -1.445  12.387  17.563  0.00  0.00    +0.000 N 
ATOM     17  H   UNL     1      -1.573  13.313  17.173  0.00  0.00    +0.000 HD
ENDBRANCH   5  14
ENDBRANCH   1   9
BRANCH   2  18
ATOM     18  C   UNL     1       3.284   5.258  18.907  0.00  0.00    +0.000 C 
ATOM     19  C   UNL     1       2.378   4.497  17.890  0.00  0.00    +0.000 C 
ATOM     20  C   UNL     1       2.490   3.015  18.215  0.00  0.00    +0.000 C 
ATOM     21  C   UNL     1       3.030   2.942  19.635  0.00  0.00    +0.000 C 
ATOM     22  C   UNL     1       3.037   4.383  20.153  0.00  0.00    +0.000 C 
BRANCH  18  23
ATOM     23  C   UNL     1       4.743   5.336  18.413  0.00  0.00    +0.000 A 
ATOM     24  C   UNL     1       5.011   5.292  17.028  0.00  0.00    +0.000 A 
ATOM     25  C   UNL     1       6.312   5.396  16.523  0.00  0.00    +0.000 A 
ATOM     26  C   UNL     1       7.382   5.551  17.395  0.00  0.00    +0.000 A 
ATOM     27  C   UNL     1       7.140   5.595  18.760  0.00  0.00    +0.000 A 
ATOM     28  F   UNL     1       8.167   5.745  19.606  0.00  0.00    +0.000 F 
ATOM     29  C   UNL     1       5.844   5.491  19.272  0.00  0.00    +0.000 A 
ENDBRANCH  18  23
ENDBRANCH   2  18
TORSDOF 4
ENDMDL
MODEL 9
REMARK VINA RESULT:      -8.5      2.890      4.530
REMARK  Name = 
REMARK  5 active torsions:
REMARK  status: ('A' for Active; 'I' for Inactive)
REMARK    1  A    between atoms: C_1  and  C_2
REMARK    2  A    between atoms: C_4  and  C_5
REMARK    3  A    between atoms: C_9  and  N_10
REMARK    4  A    between atoms: C_11  and  C_13
REMARK    5  A    between atoms: C_13  and  C_14
REMARK                            x       y       z     vdW  Elec       q    Type
REMARK                         _______ _______ _______ _____ _____    ______ ____
ROOT
ATOM      1  N   UNL     1       2.643   7.806  18.525  0.00  0.00    +0.000 N 
ATOM      2  C   UNL     1       2.972   6.546  19.014  0.00  0.00    +0.000 C 
ATOM      3  O   UNL     1       2.392   5.994  19.951  0.00  0.00    +0.000 OA
ATOM      4  H   UNL     1       3.140   8.139  17.711  0.00  0.00    +0.000 HD
ENDROOT
BRANCH   1   9
ATOM      5  C   UNL     1      -0.357  10.029  18.600  0.00  0.00    +0.000 A 
ATOM      6  C   UNL     1      -0.458  10.308  19.970  0.00  0.00    +0.000 A 
ATOM      7  C   UNL     1       0.464   9.783  20.863  0.00  0.00    +0.000 A 
ATOM      8  C   UNL     1       1.497   8.968  20.398  0.00  0.00    +0.000 A 
ATOM      9  C   UNL     1       1.626   8.659  19.038  0.00  0.00    +0.000 A 
ATOM     10  C   UNL     1       0.696   9.210  18.142  0.00  0.00    +0.000 A 
BRANCH   5  14
ATOM     11  C   UNL     1      -3.539  10.366  14.855  0.00  0.00    +0.000 C 
ATOM     12  C   UNL     1      -2.715  10.636  16.050  0.00  0.00    +0.000 A 
ATOM     13  N   UNL     1      -1.906   9.811  16.674  0.00  0.00    +0.000 NA
ATOM     14  C   UNL     1      -1.368  10.570  17.695  0.00  0.00    +0.000 A 
ATOM     15  N   UNL     1      -1.834  11.829  17.730  0.00  0.00    +0.000 NA
ATOM     16  N   UNL     1      -2.675  11.843  16.681  0.00  0.00    +0.000 N 
ATOM     17  H   UNL     1      -3.169  12.698  16.452  0.00  0.00    +0.000 HD
ENDBRANCH   5  14
ENDBRANCH   1   9
BRANCH   2  18
ATOM     18  C   UNL     1       4.082   5.773  18.256  0.00  0.00    +0.000 C 
ATOM     19  C   UNL     1       5.437   6.180  18.914  0.00  0.00    +0.000 C 
ATOM     20  C   UNL     1       6.519   5.993  17.861  0.00  0.00    +0.000 C 
ATOM     21  C   UNL     1       5.793   5.954  16.525  0.00  0.00    +0.000 C 
ATOM     22  C   UNL     1       4.335   6.308  16.832  0.00  0.00    +0.000 C 
BRANCH  18  23
ATOM     23  C   UNL     1       3.832   4.256  18.376  0.00  0.00    +0.000 A 
ATOM     24  C   UNL     1       2.906   3.635  17.510  0.00  0.00    +0.000 A 
ATOM     25  C   UNL     1       2.667   2.257  17.550  0.00  0.00    +0.000 A 
ATOM     26  C   UNL     1       3.354   1.461  18.458  0.00  0.00    +0.000 A 
ATOM     27  C   UNL     1       4.267   2.053  19.318  0.00  0.00    +0.000 A 
ATOM     28  F   UNL     1       4.933   1.291  20.195  0.00  0.00    +0.000 F 
ATOM     29  C   UNL     1       4.510   3.428  19.285  0.00  0.00    +0.000 A 
ENDBRANCH  18  23
ENDBRANCH   2  18
TORSDOF 4
ENDMDL
