MODEL 1
REMARK VINA RESULT:      -9.3      0.000      0.000
REMARK  Name = 
REMARK  3 active torsions:
REMARK  status: ('A' for Active; 'I' for Inactive)
REMARK    1  A    between atoms: C_8  and  N_9
REMARK    2  A    between atoms: C_10  and  C_12
REMARK    3  A    between atoms: C_12  and  C_13
REMARK                            x       y       z     vdW  Elec       q    Type
REMARK                         _______ _______ _______ _____ _____    ______ ____
ROOT
ATOM      1  N   UNL     1       2.059   6.834  19.573  0.00  0.00    +0.000 N 
ATOM      2  C   UNL     1       2.913   6.471  18.540  0.00  0.00    +0.000 C 
ATOM      3  O   UNL     1       3.263   7.239  17.641  0.00  0.00    +0.000 OA
ATOM      4  H   UNL     1       1.653   6.093  20.129  0.00  0.00    +0.000 HD
ENDROOT
BRANCH   1  12
ATOM      5  O   UNL     1      -0.077   9.639  23.670  0.00  0.00    +0.000 OA
ATOM      6  C   UNL     1       0.034  10.227  22.615  0.00  0.00    +0.000 C 
ATOM      7  N   UNL     1      -0.361  11.518  22.333  0.00  0.00    +0.000 N 
ATOM      8  C   UNL     1      -0.080  11.911  20.972  0.00  0.00    +0.000 C 
ATOM      9  C   UNL     1       0.542  10.680  20.408  0.00  0.00    +0.000 A 
ATOM     10  C   UNL     1       1.009  10.432  19.136  0.00  0.00    +0.000 A 
ATOM     11  C   UNL     1       1.527   9.159  18.858  0.00  0.00    +0.000 A 
ATOM     12  C   UNL     1       1.575   8.141  19.838  0.00  0.00    +0.000 A 
ATOM     13  C   UNL     1       1.129   8.422  21.136  0.00  0.00    +0.000 A 
ATOM     14  C   UNL     1       0.613   9.684  21.380  0.00  0.00    +0.000 A 
ATOM     15  H   UNL     1      -0.810  12.097  23.030  0.00  0.00    +0.000 HD
ENDBRANCH   1  12
BRANCH   2  16
ATOM     16  C   UNL     1       3.367   4.973  18.508  0.00  0.00    +0.000 C 
ATOM     17  C   UNL     1       2.435   4.108  17.603  0.00  0.00    +0.000 C 
ATOM     18  C   UNL     1       2.683   2.601  17.741  0.00  0.00    +0.000 C 
ATOM     19  C   UNL     1       2.527   2.126  19.179  0.00  0.00    +0.000 C 
ATOM     20  C   UNL     1       3.385   2.941  20.133  0.00  0.00    +0.000 C 
ATOM     21  C   UNL     1       3.131   4.439  19.967  0.00  0.00    +0.000 C 
BRANCH  16  22
ATOM     22  C   UNL     1       4.856   4.916  18.083  0.00  0.00    +0.000 A 
ATOM     23  C   UNL     1       5.251   4.469  16.806  0.00  0.00    +0.000 A 
ATOM     24  C   UNL     1       6.603   4.369  16.447  0.00  0.00    +0.000 A 
ATOM     25  C   UNL     1       7.595   4.726  17.352  0.00  0.00    +0.000 A 
ATOM     26  C   UNL     1       7.227   5.210  18.596  0.00  0.00    +0.000 A 
ATOM     27  F   UNL     1       8.176   5.564  19.473  0.00  0.00    +0.000 F 
ATOM     28  C   UNL     1       5.885   5.325  18.955  0.00  0.00    +0.000 A 
ENDBRANCH  16  22
ENDBRANCH   2  16
TORSDOF 3
ENDMDL
MODEL 2
REMARK VINA RESULT:      -9.2      1.245      1.569
REMARK  Name = 
REMARK  3 active torsions:
REMARK  status: ('A' for Active; 'I' for Inactive)
REMARK    1  A    between atoms: C_8  and  N_9
REMARK    2  A    between atoms: C_10  and  C_12
REMARK    3  A    between atoms: C_12  and  C_13
REMARK                            x       y       z     vdW  Elec       q    Type
REMARK                         _______ _______ _______ _____ _____    ______ ____
ROOT
ATOM      1  N   UNL     1       2.152   6.738  19.199  0.00  0.00    +0.000 N 
ATOM      2  C   UNL     1       3.127   6.345  18.293  0.00  0.00    +0.000 C 
ATOM      3  O   UNL     1       3.665   7.112  17.492  0.00  0.00    +0.000 OA
ATOM      4  H   UNL     1       1.613   6.013  19.654  0.00  0.00    +0.000 HD
ENDROOT
BRANCH   1  12
ATOM      5  O   UNL     1       0.310   9.739  23.300  0.00  0.00    +0.000 OA
ATOM      6  C   UNL     1       0.392  10.291  22.224  0.00  0.00    +0.000 C 
ATOM      7  N   UNL     1       0.030  11.587  21.920  0.00  0.00    +0.000 N 
ATOM      8  C   UNL     1       0.260  11.929  20.537  0.00  0.00    +0.000 C 
ATOM      9  C   UNL     1       0.811  10.660  19.983  0.00  0.00    +0.000 A 
ATOM     10  C   UNL     1       1.210  10.358  18.700  0.00  0.00    +0.000 A 
ATOM     11  C   UNL     1       1.669   9.060  18.438  0.00  0.00    +0.000 A 
ATOM     12  C   UNL     1       1.727   8.069  19.446  0.00  0.00    +0.000 A 
ATOM     13  C   UNL     1       1.353   8.404  20.753  0.00  0.00    +0.000 A 
ATOM     14  C   UNL     1       0.893   9.692  20.981  0.00  0.00    +0.000 A 
ATOM     15  H   UNL     1      -0.365  12.202  22.619  0.00  0.00    +0.000 HD
ENDBRANCH   1  12
BRANCH   2  16
ATOM     16  C   UNL     1       3.473   4.818  18.264  0.00  0.00    +0.000 C 
ATOM     17  C   UNL     1       2.340   3.984  17.588  0.00  0.00    +0.000 C 
ATOM     18  C   UNL     1       2.513   2.470  17.763  0.00  0.00    +0.000 C 
ATOM     19  C   UNL     1       2.591   2.070  19.230  0.00  0.00    +0.000 C 
ATOM     20  C   UNL     1       3.657   2.862  19.970  0.00  0.00    +0.000 C 
ATOM     21  C   UNL     1       3.472   4.366  19.769  0.00  0.00    +0.000 C 
BRANCH  16  22
ATOM     22  C   UNL     1       4.854   4.636  17.585  0.00  0.00    +0.000 A 
ATOM     23  C   UNL     1       6.061   4.853  18.279  0.00  0.00    +0.000 A 
ATOM     24  C   UNL     1       7.306   4.738  17.643  0.00  0.00    +0.000 A 
ATOM     25  C   UNL     1       7.376   4.391  16.299  0.00  0.00    +0.000 A 
ATOM     26  C   UNL     1       6.203   4.130  15.611  0.00  0.00    +0.000 A 
ATOM     27  F   UNL     1       6.259   3.788  14.317  0.00  0.00    +0.000 F 
ATOM     28  C   UNL     1       4.962   4.229  16.240  0.00  0.00    +0.000 A 
ENDBRANCH  16  22
ENDBRANCH   2  16
TORSDOF 3
ENDMDL
MODEL 3
REMARK VINA RESULT:      -9.1      1.105      1.111
REMARK  Name = 
REMARK  3 active torsions:
REMARK  status: ('A' for Active; 'I' for Inactive)
REMARK    1  A    between atoms: C_8  and  N_9
REMARK    2  A    between atoms: C_10  and  C_12
REMARK    3  A    between atoms: C_12  and  C_13
REMARK                            x       y       z     vdW  Elec       q    Type
REMARK                         _______ _______ _______ _____ _____    ______ ____
ROOT
ATOM      1  N   UNL     1       2.418   7.183  18.931  0.00  0.00    +0.000 N 
ATOM      2  C   UNL     1       2.337   5.947  19.559  0.00  0.00    +0.000 C 
ATOM      3  O   UNL     1       1.730   5.755  20.614  0.00  0.00    +0.000 OA
ATOM      4  H   UNL     1       3.112   7.297  18.205  0.00  0.00    +0.000 HD
ENDROOT
BRANCH   1  12
ATOM      5  O   UNL     1       0.546   9.556  23.412  0.00  0.00    +0.000 OA
ATOM      6  C   UNL     1       0.322  10.129  22.367  0.00  0.00    +0.000 C 
ATOM      7  N   UNL     1      -0.390  11.296  22.189  0.00  0.00    +0.000 N 
ATOM      8  C   UNL     1      -0.467  11.708  20.808  0.00  0.00    +0.000 C 
ATOM      9  C   UNL     1       0.289  10.627  20.112  0.00  0.00    +0.000 A 
ATOM     10  C   UNL     1       0.547  10.457  18.770  0.00  0.00    +0.000 A 
ATOM     11  C   UNL     1       1.266   9.320  18.375  0.00  0.00    +0.000 A 
ATOM     12  C   UNL     1       1.721   8.360  19.309  0.00  0.00    +0.000 A 
ATOM     13  C   UNL     1       1.481   8.569  20.672  0.00  0.00    +0.000 A 
ATOM     14  C   UNL     1       0.759   9.695  21.034  0.00  0.00    +0.000 A 
ATOM     15  H   UNL     1      -0.813  11.780  22.970  0.00  0.00    +0.000 HD
ENDBRANCH   1  12
BRANCH   2  16
ATOM     16  C   UNL     1       3.147   4.780  18.900  0.00  0.00    +0.000 C 
ATOM     17  C   UNL     1       2.320   4.062  17.788  0.00  0.00    +0.000 C 
ATOM     18  C   UNL     1       2.966   2.762  17.294  0.00  0.00    +0.000 C 
ATOM     19  C   UNL     1       3.199   1.774  18.428  0.00  0.00    +0.000 C 
ATOM     20  C   UNL     1       3.977   2.407  19.571  0.00  0.00    +0.000 C 
ATOM     21  C   UNL     1       3.323   3.708  20.035  0.00  0.00    +0.000 C 
BRANCH  16  22
ATOM     22  C   UNL     1       4.499   5.341  18.391  0.00  0.00    +0.000 A 
ATOM     23  C   UNL     1       4.651   5.849  17.086  0.00  0.00    +0.000 A 
ATOM     24  C   UNL     1       5.890   6.305  16.613  0.00  0.00    +0.000 A 
ATOM     25  C   UNL     1       7.007   6.276  17.441  0.00  0.00    +0.000 A 
ATOM     26  C   UNL     1       6.869   5.822  18.741  0.00  0.00    +0.000 A 
ATOM     27  F   UNL     1       7.937   5.797  19.548  0.00  0.00    +0.000 F 
ATOM     28  C   UNL     1       5.636   5.379  19.221  0.00  0.00    +0.000 A 
ENDBRANCH  16  22
ENDBRANCH   2  16
TORSDOF 3
ENDMDL
MODEL 4
REMARK VINA RESULT:      -9.1      1.105      1.253
REMARK  Name = 
REMARK  3 active torsions:
REMARK  status: ('A' for Active; 'I' for Inactive)
REMARK    1  A    between atoms: C_8  and  N_9
REMARK    2  A    between atoms: C_10  and  C_12
REMARK    3  A    between atoms: C_12  and  C_13
REMARK                            x       y       z     vdW  Elec       q    Type
REMARK                         _______ _______ _______ _____ _____    ______ ____
ROOT
ATOM      1  N   UNL     1       2.896   6.348  19.043  0.00  0.00    +0.000 N 
ATOM      2  C   UNL     1       2.494   5.275  18.260  0.00  0.00    +0.000 C 
ATOM      3  O   UNL     1       1.432   5.245  17.636  0.00  0.00    +0.000 OA
ATOM      4  H   UNL     1       3.661   6.199  19.687  0.00  0.00    +0.000 HD
ENDROOT
BRANCH   1  12
ATOM      5  O   UNL     1       0.052   9.201  22.646  0.00  0.00    +0.000 OA
ATOM      6  C   UNL     1       0.202   9.710  21.556  0.00  0.00    +0.000 C 
ATOM      7  N   UNL     1      -0.304  10.916  21.119  0.00  0.00    +0.000 N 
ATOM      8  C   UNL     1       0.067  11.227  19.760  0.00  0.00    +0.000 C 
ATOM      9  C   UNL     1       0.879  10.037  19.372  0.00  0.00    +0.000 A 
ATOM     10  C   UNL     1       1.498   9.745  18.177  0.00  0.00    +0.000 A 
ATOM     11  C   UNL     1       2.181   8.526  18.068  0.00  0.00    +0.000 A 
ATOM     12  C   UNL     1       2.244   7.604  19.140  0.00  0.00    +0.000 A 
ATOM     13  C   UNL     1       1.639   7.935  20.359  0.00  0.00    +0.000 A 
ATOM     14  C   UNL     1       0.962   9.141  20.435  0.00  0.00    +0.000 A 
ATOM     15  H   UNL     1      -0.884  11.491  21.715  0.00  0.00    +0.000 HD
ENDBRANCH   1  12
BRANCH   2  16
ATOM     16  C   UNL     1       3.432   4.021  18.265  0.00  0.00    +0.000 C 
ATOM     17  C   UNL     1       2.735   2.777  17.631  0.00  0.00    +0.000 C 
ATOM     18  C   UNL     1       3.511   1.472  17.843  0.00  0.00    +0.000 C 
ATOM     19  C   UNL     1       3.753   1.184  19.319  0.00  0.00    +0.000 C 
ATOM     20  C   UNL     1       4.407   2.365  20.018  0.00  0.00    +0.000 C 
ATOM     21  C   UNL     1       3.624   3.655  19.781  0.00  0.00    +0.000 C 
BRANCH  16  22
ATOM     22  C   UNL     1       4.764   4.397  17.567  0.00  0.00    +0.000 A 
ATOM     23  C   UNL     1       4.895   4.401  16.164  0.00  0.00    +0.000 A 
ATOM     24  C   UNL     1       6.117   4.689  15.539  0.00  0.00    +0.000 A 
ATOM     25  C   UNL     1       7.238   4.994  16.304  0.00  0.00    +0.000 A 
ATOM     26  C   UNL     1       7.119   5.040  17.682  0.00  0.00    +0.000 A 
ATOM     27  F   UNL     1       8.190   5.340  18.427  0.00  0.00    +0.000 F 
ATOM     28  C   UNL     1       5.903   4.766  18.309  0.00  0.00    +0.000 A 
ENDBRANCH  16  22
ENDBRANCH   2  16
TORSDOF 3
ENDMDL
MODEL 5
REMARK VINA RESULT:      -9.1      1.603      3.332
REMARK  Name = 
REMARK  3 active torsions:
REMARK  status: ('A' for Active; 'I' for Inactive)
REMARK    1  A    between atoms: C_8  and  N_9
REMARK    2  A    between atoms: C_10  and  C_12
REMARK    3  A    between atoms: C_12  and  C_13
REMARK                            x       y       z     vdW  Elec       q    Type
REMARK                         _______ _______ _______ _____ _____    ______ ____
ROOT
ATOM      1  N   UNL     1       2.266   7.238  19.582  0.00  0.00    +0.000 N 
ATOM      2  C   UNL     1       3.060   7.065  18.456  0.00  0.00    +0.000 C 
ATOM      3  O   UNL     1       3.111   7.873  17.526  0.00  0.00    +0.000 OA
ATOM      4  H   UNL     1       2.115   6.436  20.178  0.00  0.00    +0.000 HD
ENDROOT
BRANCH   1  12
ATOM      5  O   UNL     1       0.006   9.552  23.913  0.00  0.00    +0.000 OA
ATOM      6  C   UNL     1      -0.149  10.124  22.855  0.00  0.00    +0.000 C 
ATOM      7  N   UNL     1      -0.870  11.277  22.626  0.00  0.00    +0.000 N 
ATOM      8  C   UNL     1      -0.849  11.693  21.244  0.00  0.00    +0.000 C 
ATOM      9  C   UNL     1      -0.020  10.632  20.606  0.00  0.00    +0.000 A 
ATOM     10  C   UNL     1       0.345  10.472  19.287  0.00  0.00    +0.000 A 
ATOM     11  C   UNL     1       1.116   9.353  18.945  0.00  0.00    +0.000 A 
ATOM     12  C   UNL     1       1.518   8.398  19.908  0.00  0.00    +0.000 A 
ATOM     13  C   UNL     1       1.169   8.596  21.250  0.00  0.00    +0.000 A 
ATOM     14  C   UNL     1       0.398   9.705  21.558  0.00  0.00    +0.000 A 
ATOM     15  H   UNL     1      -1.361  11.749  23.373  0.00  0.00    +0.000 HD
ENDBRANCH   1  12
BRANCH   2  16
ATOM     16  C   UNL     1       3.851   5.717  18.365  0.00  0.00    +0.000 C 
ATOM     17  C   UNL     1       5.201   5.788  19.145  0.00  0.00    +0.000 C 
ATOM     18  C   UNL     1       6.122   4.592  18.876  0.00  0.00    +0.000 C 
ATOM     19  C   UNL     1       6.435   4.435  17.394  0.00  0.00    +0.000 C 
ATOM     20  C   UNL     1       5.167   4.387  16.557  0.00  0.00    +0.000 C 
ATOM     21  C   UNL     1       4.259   5.580  16.853  0.00  0.00    +0.000 C 
BRANCH  16  22
ATOM     22  C   UNL     1       2.928   4.568  18.843  0.00  0.00    +0.000 A 
ATOM     23  C   UNL     1       1.964   3.985  17.997  0.00  0.00    +0.000 A 
ATOM     24  C   UNL     1       1.096   2.982  18.453  0.00  0.00    +0.000 A 
ATOM     25  C   UNL     1       1.179   2.527  19.764  0.00  0.00    +0.000 A 
ATOM     26  C   UNL     1       2.150   3.055  20.597  0.00  0.00    +0.000 A 
ATOM     27  F   UNL     1       2.244   2.619  21.860  0.00  0.00    +0.000 F 
ATOM     28  C   UNL     1       3.025   4.044  20.148  0.00  0.00    +0.000 A 
ENDBRANCH  16  22
ENDBRANCH   2  16
TORSDOF 3
ENDMDL
MODEL 6
REMARK VINA RESULT:      -9.0      1.609      1.961
REMARK  Name = 
REMARK  3 active torsions:
REMARK  status: ('A' for Active; 'I' for Inactive)
REMARK    1  A    between atoms: C_8  and  N_9
REMARK    2  A    between atoms: C_10  and  C_12
REMARK    3  A    between atoms: C_12  and  C_13
REMARK                            x       y       z     vdW  Elec       q    Type
REMARK                         _______ _______ _______ _____ _____    ______ ____
ROOT
ATOM      1  N   UNL     1       2.908   6.360  19.004  0.00  0.00    +0.000 N 
ATOM      2  C   UNL     1       2.507   5.282  18.226  0.00  0.00    +0.000 C 
ATOM      3  O   UNL     1       1.440   5.245  17.610  0.00  0.00    +0.000 OA
ATOM      4  H   UNL     1       3.679   6.217  19.643  0.00  0.00    +0.000 HD
ENDROOT
BRANCH   1  12
ATOM      5  O   UNL     1       0.043   9.187  22.612  0.00  0.00    +0.000 OA
ATOM      6  C   UNL     1       0.192   9.699  21.523  0.00  0.00    +0.000 C 
ATOM      7  N   UNL     1      -0.321  10.904  21.089  0.00  0.00    +0.000 N 
ATOM      8  C   UNL     1       0.051  11.220  19.730  0.00  0.00    +0.000 C 
ATOM      9  C   UNL     1       0.869  10.037  19.341  0.00  0.00    +0.000 A 
ATOM     10  C   UNL     1       1.492   9.751  18.146  0.00  0.00    +0.000 A 
ATOM     11  C   UNL     1       2.182   8.536  18.034  0.00  0.00    +0.000 A 
ATOM     12  C   UNL     1       2.249   7.612  19.103  0.00  0.00    +0.000 A 
ATOM     13  C   UNL     1       1.641   7.936  20.322  0.00  0.00    +0.000 A 
ATOM     14  C   UNL     1       0.956   9.138  20.401  0.00  0.00    +0.000 A 
ATOM     15  H   UNL     1      -0.905  11.474  21.685  0.00  0.00    +0.000 HD
ENDBRANCH   1  12
BRANCH   2  16
ATOM     16  C   UNL     1       3.453   4.035  18.226  0.00  0.00    +0.000 C 
ATOM     17  C   UNL     1       2.742   2.773  17.645  0.00  0.00    +0.000 C 
ATOM     18  C   UNL     1       3.534   1.477  17.858  0.00  0.00    +0.000 C 
ATOM     19  C   UNL     1       3.829   1.224  19.331  0.00  0.00    +0.000 C 
ATOM     20  C   UNL     1       4.499   2.424  19.981  0.00  0.00    +0.000 C 
ATOM     21  C   UNL     1       3.700   3.704  19.743  0.00  0.00    +0.000 C 
BRANCH  16  22
ATOM     22  C   UNL     1       4.757   4.403  17.474  0.00  0.00    +0.000 A 
ATOM     23  C   UNL     1       5.906   4.856  18.152  0.00  0.00    +0.000 A 
ATOM     24  C   UNL     1       7.066   5.238  17.461  0.00  0.00    +0.000 A 
ATOM     25  C   UNL     1       7.109   5.165  16.073  0.00  0.00    +0.000 A 
ATOM     26  C   UNL     1       6.006   4.680  15.392  0.00  0.00    +0.000 A 
ATOM     27  F   UNL     1       6.039   4.598  14.055  0.00  0.00    +0.000 F 
ATOM     28  C   UNL     1       4.854   4.286  16.073  0.00  0.00    +0.000 A 
ENDBRANCH  16  22
ENDBRANCH   2  16
TORSDOF 3
ENDMDL
MODEL 7
REMARK VINA RESULT:      -9.0      1.490      3.259
REMARK  Name = 
REMARK  3 active torsions:
REMARK  status: ('A' for Active; 'I' for Inactive)
REMARK    1  A    between atoms: C_8  and  N_9
REMARK    2  A    between atoms: C_10  and  C_12
REMARK    3  A    between atoms: C_12  and  C_13
REMARK                            x       y       z     vdW  Elec       q    Type
REMARK                         _______ _______ _______ _____ _____    ______ ____
ROOT
ATOM      1  N   UNL     1       2.964   6.891  18.646  0.00  0.00    +0.000 N 
ATOM      2  C   UNL     1       3.837   6.811  17.569  0.00  0.00    +0.000 C 
ATOM      3  O   UNL     1       3.860   7.629  16.647  0.00  0.00    +0.000 OA
ATOM      4  H   UNL     1       2.861   6.071  19.229  0.00  0.00    +0.000 HD
ENDROOT
BRANCH   1  12
ATOM      5  O   UNL     1       0.543   9.158  22.913  0.00  0.00    +0.000 OA
ATOM      6  C   UNL     1       0.289   9.643  21.831  0.00  0.00    +0.000 C 
ATOM      7  N   UNL     1      -0.578  10.680  21.562  0.00  0.00    +0.000 N 
ATOM      8  C   UNL     1      -0.647  11.012  20.159  0.00  0.00    +0.000 C 
ATOM      9  C   UNL     1       0.293  10.026  19.554  0.00  0.00    +0.000 A 
ATOM     10  C   UNL     1       0.640   9.835  18.234  0.00  0.00    +0.000 A 
ATOM     11  C   UNL     1       1.538   8.803  17.930  0.00  0.00    +0.000 A 
ATOM     12  C   UNL     1       2.083   7.966  18.931  0.00  0.00    +0.000 A 
ATOM     13  C   UNL     1       1.748   8.198  20.271  0.00  0.00    +0.000 A 
ATOM     14  C   UNL     1       0.850   9.218  20.542  0.00  0.00    +0.000 A 
ATOM     15  H   UNL     1      -1.106  11.131  22.298  0.00  0.00    +0.000 HD
ENDBRANCH   1  12
BRANCH   2  16
ATOM     16  C   UNL     1       4.766   5.552  17.520  0.00  0.00    +0.000 C 
ATOM     17  C   UNL     1       6.105   5.794  18.284  0.00  0.00    +0.000 C 
ATOM     18  C   UNL     1       7.146   4.693  18.050  0.00  0.00    +0.000 C 
ATOM     19  C   UNL     1       7.465   4.513  16.572  0.00  0.00    +0.000 C 
ATOM     20  C   UNL     1       6.204   4.300  15.750  0.00  0.00    +0.000 C 
ATOM     21  C   UNL     1       5.177   5.401  16.010  0.00  0.00    +0.000 C 
BRANCH  16  22
ATOM     22  C   UNL     1       3.973   4.330  18.049  0.00  0.00    +0.000 A 
ATOM     23  C   UNL     1       3.049   3.635  17.243  0.00  0.00    +0.000 A 
ATOM     24  C   UNL     1       2.295   2.564  17.745  0.00  0.00    +0.000 A 
ATOM     25  C   UNL     1       2.456   2.152  19.063  0.00  0.00    +0.000 A 
ATOM     26  C   UNL     1       3.390   2.794  19.858  0.00  0.00    +0.000 A 
ATOM     27  F   UNL     1       3.558   2.401  21.127  0.00  0.00    +0.000 F 
ATOM     28  C   UNL     1       4.152   3.851  19.362  0.00  0.00    +0.000 A 
ENDBRANCH  16  22
ENDBRANCH   2  16
TORSDOF 3
ENDMDL
MODEL 8
REMARK VINA RESULT:      -8.9      1.979      3.635
REMARK  Name = 
REMARK  3 active torsions:
REMARK  status: ('A' for Active; 'I' for Inactive)
REMARK    1  A    between atoms: C_8  and  N_9
REMARK    2  A    between atoms: C_10  and  C_12
REMARK    3  A    between atoms: C_12  and  C_13
REMARK                            x       y       z     vdW  Elec       q    Type
REMARK                         _______ _______ _______ _____ _____    ______ ____
ROOT
ATOM      1  N   UNL     1       2.107   7.392  19.630  0.00  0.00    +0.000 N 
ATOM      2  C   UNL     1       2.935   7.116  18.550  0.00  0.00    +0.000 C 
ATOM      3  O   UNL     1       3.053   7.859  17.573  0.00  0.00    +0.000 OA
ATOM      4  H   UNL     1       1.902   6.637  20.269  0.00  0.00    +0.000 HD
ENDROOT
BRANCH   1  12
ATOM      5  O   UNL     1      -0.189  10.085  23.716  0.00  0.00    +0.000 OA
ATOM      6  C   UNL     1      -0.291  10.586  22.616  0.00  0.00    +0.000 C 
ATOM      7  N   UNL     1      -0.962  11.745  22.285  0.00  0.00    +0.000 N 
ATOM      8  C   UNL     1      -0.886  12.061  20.879  0.00  0.00    +0.000 C 
ATOM      9  C   UNL     1      -0.079  10.928  20.342  0.00  0.00    +0.000 A 
ATOM     10  C   UNL     1       0.318  10.663  19.050  0.00  0.00    +0.000 A 
ATOM     11  C   UNL     1       1.056   9.496  18.811  0.00  0.00    +0.000 A 
ATOM     12  C   UNL     1       1.394   8.598  19.851  0.00  0.00    +0.000 A 
ATOM     13  C   UNL     1       1.015   8.903  21.164  0.00  0.00    +0.000 A 
ATOM     14  C   UNL     1       0.276  10.057  21.370  0.00  0.00    +0.000 A 
ATOM     15  H   UNL     1      -1.456  12.285  22.982  0.00  0.00    +0.000 HD
ENDBRANCH   1  12
BRANCH   2  16
ATOM     16  C   UNL     1       3.676   5.737  18.577  0.00  0.00    +0.000 C 
ATOM     17  C   UNL     1       5.101   5.861  19.199  0.00  0.00    +0.000 C 
ATOM     18  C   UNL     1       5.956   4.601  19.016  0.00  0.00    +0.000 C 
ATOM     19  C   UNL     1       6.106   4.222  17.549  0.00  0.00    +0.000 C 
ATOM     20  C   UNL     1       4.756   4.109  16.859  0.00  0.00    +0.000 C 
ATOM     21  C   UNL     1       3.918   5.369  17.068  0.00  0.00    +0.000 C 
BRANCH  16  22
ATOM     22  C   UNL     1       2.777   4.707  19.307  0.00  0.00    +0.000 A 
ATOM     23  C   UNL     1       2.875   4.484  20.695  0.00  0.00    +0.000 A 
ATOM     24  C   UNL     1       2.097   3.513  21.341  0.00  0.00    +0.000 A 
ATOM     25  C   UNL     1       1.190   2.747  20.617  0.00  0.00    +0.000 A 
ATOM     26  C   UNL     1       1.047   2.982  19.260  0.00  0.00    +0.000 A 
ATOM     27  F   UNL     1       0.171   2.256  18.553  0.00  0.00    +0.000 F 
ATOM     28  C   UNL     1       1.808   3.955  18.613  0.00  0.00    +0.000 A 
ENDBRANCH  16  22
ENDBRANCH   2  16
TORSDOF 3
ENDMDL
MODEL 9
REMARK VINA RESULT:      -8.9      1.481      1.746
REMARK  Name = 
REMARK  3 active torsions:
REMARK  status: ('A' for Active; 'I' for Inactive)
REMARK    1  A    between atoms: C_8  and  N_9
REMARK    2  A    between atoms: C_10  and  C_12
REMARK    3  A    between atoms: C_12  and  C_13
REMARK                            x       y       z     vdW  Elec       q    Type
REMARK                         _______ _______ _______ _____ _____    ______ ____
ROOT
ATOM      1  N   UNL     1       2.500   6.982  18.822  0.00  0.00    +0.000 N 
ATOM      2  C   UNL     1       2.417   5.775  19.504  0.00  0.00    +0.000 C 
ATOM      3  O   UNL     1       1.854   5.644  20.593  0.00  0.00    +0.000 OA
ATOM      4  H   UNL     1       3.161   7.046  18.061  0.00  0.00    +0.000 HD
ENDROOT
BRANCH   1  12
ATOM      5  O   UNL     1       0.375   9.329  23.203  0.00  0.00    +0.000 OA
ATOM      6  C   UNL     1       0.290   9.951  22.165  0.00  0.00    +0.000 C 
ATOM      7  N   UNL     1      -0.322  11.171  21.969  0.00  0.00    +0.000 N 
ATOM      8  C   UNL     1      -0.240  11.633  20.604  0.00  0.00    +0.000 C 
ATOM      9  C   UNL     1       0.504  10.526  19.938  0.00  0.00    +0.000 A 
ATOM     10  C   UNL     1       0.876  10.382  18.620  0.00  0.00    +0.000 A 
ATOM     11  C   UNL     1       1.551   9.212  18.247  0.00  0.00    +0.000 A 
ATOM     12  C   UNL     1       1.851   8.191  19.180  0.00  0.00    +0.000 A 
ATOM     13  C   UNL     1       1.497   8.371  20.523  0.00  0.00    +0.000 A 
ATOM     14  C   UNL     1       0.821   9.532  20.861  0.00  0.00    +0.000 A 
ATOM     15  H   UNL     1      -0.783  11.657  22.726  0.00  0.00    +0.000 HD
ENDBRANCH   1  12
BRANCH   2  16
ATOM     16  C   UNL     1       3.165   4.560  18.860  0.00  0.00    +0.000 C 
ATOM     17  C   UNL     1       2.245   3.774  17.874  0.00  0.00    +0.000 C 
ATOM     18  C   UNL     1       2.845   2.439  17.417  0.00  0.00    +0.000 C 
ATOM     19  C   UNL     1       3.174   1.529  18.592  0.00  0.00    +0.000 C 
ATOM     20  C   UNL     1       4.048   2.233  19.617  0.00  0.00    +0.000 C 
ATOM     21  C   UNL     1       3.438   3.566  20.046  0.00  0.00    +0.000 C 
BRANCH  16  22
ATOM     22  C   UNL     1       4.469   5.076  18.199  0.00  0.00    +0.000 A 
ATOM     23  C   UNL     1       5.622   5.369  18.955  0.00  0.00    +0.000 A 
ATOM     24  C   UNL     1       6.781   5.886  18.358  0.00  0.00    +0.000 A 
ATOM     25  C   UNL     1       6.820   6.111  16.986  0.00  0.00    +0.000 A 
ATOM     26  C   UNL     1       5.714   5.788  16.221  0.00  0.00    +0.000 A 
ATOM     27  F   UNL     1       5.743   5.994  14.897  0.00  0.00    +0.000 F 
ATOM     28  C   UNL     1       4.562   5.261  16.806  0.00  0.00    +0.000 A 
ENDBRANCH  16  22
ENDBRANCH   2  16
TORSDOF 3
ENDMDL
