MODEL 1
REMARK VINA RESULT:      -8.3      0.000      0.000
REMARK  Name = 
REMARK  5 active torsions:
REMARK  status: ('A' for Active; 'I' for Inactive)
REMARK    1  A    between atoms: C_5  and  C_7
REMARK    2  A    between atoms: C_7  and  C_8
REMARK    3  A    between atoms: C_8  and  C_9
REMARK    4  A    between atoms: C_9  and  C_10
REMARK    5  A    between atoms: C_12  and  C_13
REMARK                            x       y       z     vdW  Elec       q    Type
REMARK                         _______ _______ _______ _____ _____    ______ ____
ROOT
ATOM      1  O   UNL     1       7.848   6.895  18.478  0.00  0.00    +0.000 OA
ATOM      2  C   UNL     1       7.329   6.103  17.706  0.00  0.00    +0.000 C 
ATOM      3  C   UNL     1       6.604   4.850  18.174  0.00  0.00    +0.000 C 
ATOM      4  N   UNL     1       5.580   4.379  17.227  0.00  0.00    +0.000 N 
ATOM      5  C   UNL     1       4.260   4.089  17.571  0.00  0.00    +0.000 C 
ATOM      6  O   UNL     1       3.402   3.699  16.772  0.00  0.00    +0.000 OA
ATOM      7  C   UNL     1       6.024   4.336  15.866  0.00  0.00    +0.000 A 
ATOM      8  C   UNL     1       5.505   3.442  14.924  0.00  0.00    +0.000 A 
ATOM      9  C   UNL     1       5.938   3.476  13.596  0.00  0.00    +0.000 A 
ATOM     10  C   UNL     1       6.877   4.423  13.189  0.00  0.00    +0.000 A 
ATOM     11  C   UNL     1       7.402   5.326  14.112  0.00  0.00    +0.000 A 
ATOM     12  C   UNL     1       6.997   5.264  15.447  0.00  0.00    +0.000 A 
ATOM     13  N   UNL     1       7.537   6.186  16.353  0.00  0.00    +0.000 N 
ATOM     14  H   UNL     1       8.128   6.940  16.034  0.00  0.00    +0.000 HD
ENDROOT
BRANCH   5  15
ATOM     15  C   UNL     1       3.848   4.336  19.016  0.00  0.00    +0.000 C 
BRANCH  15  16
ATOM     16  C   UNL     1       2.720   5.362  19.136  0.00  0.00    +0.000 C 
BRANCH  16  17
ATOM     17  C   UNL     1       3.120   6.714  18.540  0.00  0.00    +0.000 C 
BRANCH  17  18
ATOM     18  C   UNL     1       2.208   7.814  18.941  0.00  0.00    +0.000 A 
ATOM     19  N   UNL     1       1.782   8.146  20.131  0.00  0.00    +0.000 NA
ATOM     20  C   UNL     1       0.980   9.235  19.868  0.00  0.00    +0.000 A 
ATOM     21  N   UNL     1       0.899   9.550  18.563  0.00  0.00    +0.000 NA
ATOM     22  O   UNL     1       1.724   8.611  17.947  0.00  0.00    +0.000 OA
BRANCH  20  23
ATOM     23  C   UNL     1       0.305   9.970  20.925  0.00  0.00    +0.000 A 
ATOM     24  C   UNL     1       0.002  11.328  20.751  0.00  0.00    +0.000 A 
ATOM     25  C   UNL     1      -0.674  12.034  21.746  0.00  0.00    +0.000 A 
ATOM     26  C   UNL     1      -1.043  11.393  22.926  0.00  0.00    +0.000 A 
ATOM     27  C   UNL     1      -0.733  10.045  23.116  0.00  0.00    +0.000 A 
ATOM     28  C   UNL     1      -0.064   9.334  22.119  0.00  0.00    +0.000 A 
ENDBRANCH  20  23
ENDBRANCH  17  18
ENDBRANCH  16  17
ENDBRANCH  15  16
ENDBRANCH   5  15
TORSDOF 5
ENDMDL
MODEL 2
REMARK VINA RESULT:      -8.2      3.186      8.690
REMARK  Name = 
REMARK  5 active torsions:
REMARK  status: ('A' for Active; 'I' for Inactive)
REMARK    1  A    between atoms: C_5  and  C_7
REMARK    2  A    between atoms: C_7  and  C_8
REMARK    3  A    between atoms: C_8  and  C_9
REMARK    4  A    between atoms: C_9  and  C_10
REMARK    5  A    between atoms: C_12  and  C_13
REMARK                            x       y       z     vdW  Elec       q    Type
REMARK                         _______ _______ _______ _____ _____    ______ ____
ROOT
ATOM      1  O   UNL     1       2.072   7.676  20.621  0.00  0.00    +0.000 OA
ATOM      2  C   UNL     1       2.292   6.584  20.118  0.00  0.00    +0.000 C 
ATOM      3  C   UNL     1       3.387   6.358  19.087  0.00  0.00    +0.000 C 
ATOM      4  N   UNL     1       3.885   4.972  19.059  0.00  0.00    +0.000 N 
ATOM      5  C   UNL     1       5.232   4.616  19.131  0.00  0.00    +0.000 C 
ATOM      6  O   UNL     1       5.645   3.452  19.113  0.00  0.00    +0.000 OA
ATOM      7  C   UNL     1       2.850   3.983  19.055  0.00  0.00    +0.000 A 
ATOM      8  C   UNL     1       3.008   2.719  18.477  0.00  0.00    +0.000 A 
ATOM      9  C   UNL     1       1.981   1.773  18.545  0.00  0.00    +0.000 A 
ATOM     10  C   UNL     1       0.796   2.071  19.216  0.00  0.00    +0.000 A 
ATOM     11  C   UNL     1       0.623   3.323  19.803  0.00  0.00    +0.000 A 
ATOM     12  C   UNL     1       1.633   4.281  19.700  0.00  0.00    +0.000 A 
ATOM     13  N   UNL     1       1.436   5.530  20.302  0.00  0.00    +0.000 N 
ATOM     14  H   UNL     1       0.627   5.703  20.882  0.00  0.00    +0.000 HD
ENDROOT
BRANCH   5  15
ATOM     15  C   UNL     1       6.241   5.742  19.309  0.00  0.00    +0.000 C 
BRANCH  15  16
ATOM     16  C   UNL     1       6.994   6.063  18.017  0.00  0.00    +0.000 C 
BRANCH  16  17
ATOM     17  C   UNL     1       6.036   6.397  16.871  0.00  0.00    +0.000 C 
BRANCH  17  18
ATOM     18  C   UNL     1       6.349   5.659  15.623  0.00  0.00    +0.000 A 
ATOM     19  N   UNL     1       5.581   4.889  14.900  0.00  0.00    +0.000 NA
ATOM     20  C   UNL     1       6.421   4.503  13.878  0.00  0.00    +0.000 A 
ATOM     21  N   UNL     1       7.666   5.001  13.978  0.00  0.00    +0.000 NA
ATOM     22  O   UNL     1       7.616   5.779  15.134  0.00  0.00    +0.000 OA
BRANCH  20  23
ATOM     23  C   UNL     1       5.973   3.646  12.792  0.00  0.00    +0.000 A 
ATOM     24  C   UNL     1       6.836   2.674  12.266  0.00  0.00    +0.000 A 
ATOM     25  C   UNL     1       6.406   1.825  11.246  0.00  0.00    +0.000 A 
ATOM     26  C   UNL     1       5.116   1.947  10.737  0.00  0.00    +0.000 A 
ATOM     27  C   UNL     1       4.253   2.921  11.243  0.00  0.00    +0.000 A 
ATOM     28  C   UNL     1       4.678   3.766  12.269  0.00  0.00    +0.000 A 
ENDBRANCH  20  23
ENDBRANCH  17  18
ENDBRANCH  16  17
ENDBRANCH  15  16
ENDBRANCH   5  15
TORSDOF 5
ENDMDL
MODEL 3
REMARK VINA RESULT:      -7.9      3.821      9.986
REMARK  Name = 
REMARK  5 active torsions:
REMARK  status: ('A' for Active; 'I' for Inactive)
REMARK    1  A    between atoms: C_5  and  C_7
REMARK    2  A    between atoms: C_7  and  C_8
REMARK    3  A    between atoms: C_8  and  C_9
REMARK    4  A    between atoms: C_9  and  C_10
REMARK    5  A    between atoms: C_12  and  C_13
REMARK                            x       y       z     vdW  Elec       q    Type
REMARK                         _______ _______ _______ _____ _____    ______ ____
ROOT
ATOM      1  O   UNL     1      -2.525  10.232  14.559  0.00  0.00    +0.000 OA
ATOM      2  C   UNL     1      -2.889  10.603  15.665  0.00  0.00    +0.000 C 
ATOM      3  C   UNL     1      -2.247  10.110  16.953  0.00  0.00    +0.000 C 
ATOM      4  N   UNL     1      -2.377  11.060  18.071  0.00  0.00    +0.000 N 
ATOM      5  C   UNL     1      -1.314  11.500  18.860  0.00  0.00    +0.000 C 
ATOM      6  O   UNL     1      -1.426  12.301  19.794  0.00  0.00    +0.000 OA
ATOM      7  C   UNL     1      -3.696  11.594  18.229  0.00  0.00    +0.000 A 
ATOM      8  C   UNL     1      -4.202  12.016  19.463  0.00  0.00    +0.000 A 
ATOM      9  C   UNL     1      -5.480  12.576  19.553  0.00  0.00    +0.000 A 
ATOM     10  C   UNL     1      -6.254  12.745  18.406  0.00  0.00    +0.000 A 
ATOM     11  C   UNL     1      -5.764  12.335  17.167  0.00  0.00    +0.000 A 
ATOM     12  C   UNL     1      -4.504  11.739  17.085  0.00  0.00    +0.000 A 
ATOM     13  N   UNL     1      -4.034  11.340  15.827  0.00  0.00    +0.000 N 
ATOM     14  H   UNL     1      -4.547  11.565  14.987  0.00  0.00    +0.000 HD
ENDROOT
BRANCH   5  15
ATOM     15  C   UNL     1       0.077  11.002  18.493  0.00  0.00    +0.000 C 
BRANCH  15  16
ATOM     16  C   UNL     1       0.960  10.773  19.721  0.00  0.00    +0.000 C 
BRANCH  16  17
ATOM     17  C   UNL     1       0.580   9.487  20.460  0.00  0.00    +0.000 C 
BRANCH  17  18
ATOM     18  C   UNL     1       1.371   8.312  20.018  0.00  0.00    +0.000 A 
ATOM     19  N   UNL     1       2.027   8.126  18.903  0.00  0.00    +0.000 NA
ATOM     20  C   UNL     1       2.556   6.865  19.075  0.00  0.00    +0.000 A 
ATOM     21  N   UNL     1       2.223   6.288  20.243  0.00  0.00    +0.000 NA
ATOM     22  O   UNL     1       1.443   7.255  20.875  0.00  0.00    +0.000 OA
BRANCH  20  23
ATOM     23  C   UNL     1       3.407   6.242  18.075  0.00  0.00    +0.000 A 
ATOM     24  C   UNL     1       4.253   7.033  17.285  0.00  0.00    +0.000 A 
ATOM     25  C   UNL     1       5.098   6.442  16.344  0.00  0.00    +0.000 A 
ATOM     26  C   UNL     1       5.095   5.060  16.178  0.00  0.00    +0.000 A 
ATOM     27  C   UNL     1       4.246   4.264  16.949  0.00  0.00    +0.000 A 
ATOM     28  C   UNL     1       3.407   4.852  17.896  0.00  0.00    +0.000 A 
ENDBRANCH  20  23
ENDBRANCH  17  18
ENDBRANCH  16  17
ENDBRANCH  15  16
ENDBRANCH   5  15
TORSDOF 5
ENDMDL
MODEL 4
REMARK VINA RESULT:      -7.8      5.807      8.833
REMARK  Name = 
REMARK  5 active torsions:
REMARK  status: ('A' for Active; 'I' for Inactive)
REMARK    1  A    between atoms: C_5  and  C_7
REMARK    2  A    between atoms: C_7  and  C_8
REMARK    3  A    between atoms: C_8  and  C_9
REMARK    4  A    between atoms: C_9  and  C_10
REMARK    5  A    between atoms: C_12  and  C_13
REMARK                            x       y       z     vdW  Elec       q    Type
REMARK                         _______ _______ _______ _____ _____    ______ ____
ROOT
ATOM      1  O   UNL     1       7.332  12.451  22.584  0.00  0.00    +0.000 OA
ATOM      2  C   UNL     1       8.171  12.666  21.723  0.00  0.00    +0.000 C 
ATOM      3  C   UNL     1       9.138  11.600  21.228  0.00  0.00    +0.000 C 
ATOM      4  N   UNL     1       9.617  11.838  19.856  0.00  0.00    +0.000 N 
ATOM      5  C   UNL     1       9.582  10.891  18.833  0.00  0.00    +0.000 C 
ATOM      6  O   UNL     1       9.981  11.097  17.681  0.00  0.00    +0.000 OA
ATOM      7  C   UNL     1      10.041  13.185  19.614  0.00  0.00    +0.000 A 
ATOM      8  C   UNL     1      11.015  13.517  18.667  0.00  0.00    +0.000 A 
ATOM      9  C   UNL     1      11.356  14.852  18.436  0.00  0.00    +0.000 A 
ATOM     10  C   UNL     1      10.707  15.872  19.130  0.00  0.00    +0.000 A 
ATOM     11  C   UNL     1       9.730  15.561  20.074  0.00  0.00    +0.000 A 
ATOM     12  C   UNL     1       9.419  14.224  20.332  0.00  0.00    +0.000 A 
ATOM     13  N   UNL     1       8.430  13.939  21.283  0.00  0.00    +0.000 N 
ATOM     14  H   UNL     1       7.884  14.679  21.701  0.00  0.00    +0.000 HD
ENDROOT
BRANCH   5  15
ATOM     15  C   UNL     1       8.950   9.544  19.153  0.00  0.00    +0.000 C 
BRANCH  15  16
ATOM     16  C   UNL     1       8.045   9.039  18.028  0.00  0.00    +0.000 C 
BRANCH  16  17
ATOM     17  C   UNL     1       8.127   7.518  17.875  0.00  0.00    +0.000 C 
BRANCH  17  18
ATOM     18  C   UNL     1       6.832   6.907  17.487  0.00  0.00    +0.000 A 
ATOM     19  N   UNL     1       6.174   5.930  18.051  0.00  0.00    +0.000 NA
ATOM     20  C   UNL     1       5.058   5.819  17.251  0.00  0.00    +0.000 A 
ATOM     21  N   UNL     1       5.039   6.682  16.219  0.00  0.00    +0.000 NA
ATOM     22  O   UNL     1       6.215   7.413  16.382  0.00  0.00    +0.000 OA
BRANCH  20  23
ATOM     23  C   UNL     1       4.002   4.858  17.525  0.00  0.00    +0.000 A 
ATOM     24  C   UNL     1       2.714   5.307  17.850  0.00  0.00    +0.000 A 
ATOM     25  C   UNL     1       1.686   4.393  18.084  0.00  0.00    +0.000 A 
ATOM     26  C   UNL     1       1.939   3.026  18.006  0.00  0.00    +0.000 A 
ATOM     27  C   UNL     1       3.222   2.568  17.699  0.00  0.00    +0.000 A 
ATOM     28  C   UNL     1       4.250   3.480  17.456  0.00  0.00    +0.000 A 
ENDBRANCH  20  23
ENDBRANCH  17  18
ENDBRANCH  16  17
ENDBRANCH  15  16
ENDBRANCH   5  15
TORSDOF 5
ENDMDL
MODEL 5
REMARK VINA RESULT:      -7.8      3.419      5.363
REMARK  Name = 
REMARK  5 active torsions:
REMARK  status: ('A' for Active; 'I' for Inactive)
REMARK    1  A    between atoms: C_5  and  C_7
REMARK    2  A    between atoms: C_7  and  C_8
REMARK    3  A    between atoms: C_8  and  C_9
REMARK    4  A    between atoms: C_9  and  C_10
REMARK    5  A    between atoms: C_12  and  C_13
REMARK                            x       y       z     vdW  Elec       q    Type
REMARK                         _______ _______ _______ _____ _____    ______ ____
ROOT
ATOM      1  O   UNL     1       1.717   2.879  22.342  0.00  0.00    +0.000 OA
ATOM      2  C   UNL     1       2.015   3.398  21.277  0.00  0.00    +0.000 C 
ATOM      3  C   UNL     1       1.233   4.558  20.677  0.00  0.00    +0.000 C 
ATOM      4  N   UNL     1       2.038   5.401  19.778  0.00  0.00    +0.000 N 
ATOM      5  C   UNL     1       2.130   6.790  19.871  0.00  0.00    +0.000 C 
ATOM      6  O   UNL     1       2.810   7.494  19.118  0.00  0.00    +0.000 OA
ATOM      7  C   UNL     1       2.823   4.662  18.835  0.00  0.00    +0.000 A 
ATOM      8  C   UNL     1       3.184   5.169  17.583  0.00  0.00    +0.000 A 
ATOM      9  C   UNL     1       3.994   4.425  16.722  0.00  0.00    +0.000 A 
ATOM     10  C   UNL     1       4.473   3.176  17.113  0.00  0.00    +0.000 A 
ATOM     11  C   UNL     1       4.128   2.656  18.360  0.00  0.00    +0.000 A 
ATOM     12  C   UNL     1       3.286   3.384  19.203  0.00  0.00    +0.000 A 
ATOM     13  N   UNL     1       2.957   2.841  20.452  0.00  0.00    +0.000 N 
ATOM     14  H   UNL     1       3.395   1.991  20.778  0.00  0.00    +0.000 HD
ENDROOT
BRANCH   5  15
ATOM     15  C   UNL     1       1.390   7.461  21.021  0.00  0.00    +0.000 C 
BRANCH  15  16
ATOM     16  C   UNL     1       1.619   8.972  21.062  0.00  0.00    +0.000 C 
BRANCH  16  17
ATOM     17  C   UNL     1       0.464   9.701  21.753  0.00  0.00    +0.000 C 
BRANCH  17  18
ATOM     18  C   UNL     1      -0.511  10.277  20.793  0.00  0.00    +0.000 A 
ATOM     19  N   UNL     1      -0.819   9.882  19.587  0.00  0.00    +0.000 NA
ATOM     20  C   UNL     1      -1.776  10.798  19.207  0.00  0.00    +0.000 A 
ATOM     21  N   UNL     1      -2.033  11.735  20.138  0.00  0.00    +0.000 NA
ATOM     22  O   UNL     1      -1.199  11.382  21.197  0.00  0.00    +0.000 OA
BRANCH  20  23
ATOM     23  C   UNL     1      -2.444  10.729  17.918  0.00  0.00    +0.000 A 
ATOM     24  C   UNL     1      -3.563  11.534  17.665  0.00  0.00    +0.000 A 
ATOM     25  C   UNL     1      -4.192  11.499  16.420  0.00  0.00    +0.000 A 
ATOM     26  C   UNL     1      -3.715  10.652  15.423  0.00  0.00    +0.000 A 
ATOM     27  C   UNL     1      -2.610   9.835  15.669  0.00  0.00    +0.000 A 
ATOM     28  C   UNL     1      -1.974   9.875  16.911  0.00  0.00    +0.000 A 
ENDBRANCH  20  23
ENDBRANCH  17  18
ENDBRANCH  16  17
ENDBRANCH  15  16
ENDBRANCH   5  15
TORSDOF 5
ENDMDL
MODEL 6
REMARK VINA RESULT:      -7.8      1.215      1.324
REMARK  Name = 
REMARK  5 active torsions:
REMARK  status: ('A' for Active; 'I' for Inactive)
REMARK    1  A    between atoms: C_5  and  C_7
REMARK    2  A    between atoms: C_7  and  C_8
REMARK    3  A    between atoms: C_8  and  C_9
REMARK    4  A    between atoms: C_9  and  C_10
REMARK    5  A    between atoms: C_12  and  C_13
REMARK                            x       y       z     vdW  Elec       q    Type
REMARK                         _______ _______ _______ _____ _____    ______ ____
ROOT
ATOM      1  O   UNL     1       6.554   5.409  20.075  0.00  0.00    +0.000 OA
ATOM      2  C   UNL     1       6.189   4.963  18.997  0.00  0.00    +0.000 C 
ATOM      3  C   UNL     1       5.273   3.755  18.872  0.00  0.00    +0.000 C 
ATOM      4  N   UNL     1       4.491   3.743  17.624  0.00  0.00    +0.000 N 
ATOM      5  C   UNL     1       3.108   3.571  17.561  0.00  0.00    +0.000 C 
ATOM      6  O   UNL     1       2.455   3.566  16.512  0.00  0.00    +0.000 OA
ATOM      7  C   UNL     1       5.263   4.029  16.452  0.00  0.00    +0.000 A 
ATOM      8  C   UNL     1       4.933   3.537  15.186  0.00  0.00    +0.000 A 
ATOM      9  C   UNL     1       5.692   3.888  14.066  0.00  0.00    +0.000 A 
ATOM     10  C   UNL     1       6.774   4.756  14.197  0.00  0.00    +0.000 A 
ATOM     11  C   UNL     1       7.116   5.261  15.451  0.00  0.00    +0.000 A 
ATOM     12  C   UNL     1       6.380   4.878  16.574  0.00  0.00    +0.000 A 
ATOM     13  N   UNL     1       6.741   5.402  17.822  0.00  0.00    +0.000 N 
ATOM     14  H   UNL     1       7.451   6.117  17.897  0.00  0.00    +0.000 HD
ENDROOT
BRANCH   5  15
ATOM     15  C   UNL     1       2.362   3.449  18.882  0.00  0.00    +0.000 C 
BRANCH  15  16
ATOM     16  C   UNL     1       1.571   4.712  19.228  0.00  0.00    +0.000 C 
BRANCH  16  17
ATOM     17  C   UNL     1       2.361   5.639  20.154  0.00  0.00    +0.000 C 
BRANCH  17  18
ATOM     18  C   UNL     1       1.829   7.023  20.176  0.00  0.00    +0.000 A 
ATOM     19  N   UNL     1       1.106   7.619  21.087  0.00  0.00    +0.000 NA
ATOM     20  C   UNL     1       0.931   8.878  20.554  0.00  0.00    +0.000 A 
ATOM     21  N   UNL     1       1.509   9.046  19.351  0.00  0.00    +0.000 NA
ATOM     22  O   UNL     1       2.114   7.815  19.104  0.00  0.00    +0.000 OA
BRANCH  20  23
ATOM     23  C   UNL     1       0.198   9.919  21.256  0.00  0.00    +0.000 A 
ATOM     24  C   UNL     1      -0.040  11.150  20.630  0.00  0.00    +0.000 A 
ATOM     25  C   UNL     1      -0.771  12.144  21.282  0.00  0.00    +0.000 A 
ATOM     26  C   UNL     1      -1.258  11.920  22.567  0.00  0.00    +0.000 A 
ATOM     27  C   UNL     1      -1.013  10.703  23.206  0.00  0.00    +0.000 A 
ATOM     28  C   UNL     1      -0.290   9.704  22.552  0.00  0.00    +0.000 A 
ENDBRANCH  20  23
ENDBRANCH  17  18
ENDBRANCH  16  17
ENDBRANCH  15  16
ENDBRANCH   5  15
TORSDOF 5
ENDMDL
MODEL 7
REMARK VINA RESULT:      -7.8      4.034      7.572
REMARK  Name = 
REMARK  5 active torsions:
REMARK  status: ('A' for Active; 'I' for Inactive)
REMARK    1  A    between atoms: C_5  and  C_7
REMARK    2  A    between atoms: C_7  and  C_8
REMARK    3  A    between atoms: C_8  and  C_9
REMARK    4  A    between atoms: C_9  and  C_10
REMARK    5  A    between atoms: C_12  and  C_13
REMARK                            x       y       z     vdW  Elec       q    Type
REMARK                         _______ _______ _______ _____ _____    ______ ____
ROOT
ATOM      1  O   UNL     1       2.726   8.134  17.895  0.00  0.00    +0.000 OA
ATOM      2  C   UNL     1       2.931   7.000  18.302  0.00  0.00    +0.000 C 
ATOM      3  C   UNL     1       3.548   5.913  17.435  0.00  0.00    +0.000 C 
ATOM      4  N   UNL     1       4.248   4.875  18.210  0.00  0.00    +0.000 N 
ATOM      5  C   UNL     1       5.553   4.450  17.962  0.00  0.00    +0.000 C 
ATOM      6  O   UNL     1       6.139   3.582  18.618  0.00  0.00    +0.000 OA
ATOM      7  C   UNL     1       3.505   4.390  19.334  0.00  0.00    +0.000 A 
ATOM      8  C   UNL     1       3.658   3.098  19.846  0.00  0.00    +0.000 A 
ATOM      9  C   UNL     1       2.944   2.692  20.977  0.00  0.00    +0.000 A 
ATOM     10  C   UNL     1       2.090   3.583  21.625  0.00  0.00    +0.000 A 
ATOM     11  C   UNL     1       1.929   4.878  21.133  0.00  0.00    +0.000 A 
ATOM     12  C   UNL     1       2.613   5.268  19.979  0.00  0.00    +0.000 A 
ATOM     13  N   UNL     1       2.437   6.576  19.507  0.00  0.00    +0.000 N 
ATOM     14  H   UNL     1       1.908   7.252  20.040  0.00  0.00    +0.000 HD
ENDROOT
BRANCH   5  15
ATOM     15  C   UNL     1       6.315   5.156  16.849  0.00  0.00    +0.000 C 
BRANCH  15  16
ATOM     16  C   UNL     1       6.515   6.646  17.130  0.00  0.00    +0.000 C 
BRANCH  16  17
ATOM     17  C   UNL     1       7.620   6.883  18.163  0.00  0.00    +0.000 C 
BRANCH  17  18
ATOM     18  C   UNL     1       8.098   8.288  18.184  0.00  0.00    +0.000 A 
ATOM     19  N   UNL     1       9.042   8.832  18.906  0.00  0.00    +0.000 NA
ATOM     20  C   UNL     1       9.026  10.142  18.481  0.00  0.00    +0.000 A 
ATOM     21  N   UNL     1       8.094  10.401  17.547  0.00  0.00    +0.000 NA
ATOM     22  O   UNL     1       7.484   9.165  17.341  0.00  0.00    +0.000 OA
BRANCH  20  23
ATOM     23  C   UNL     1       9.953  11.134  19.001  0.00  0.00    +0.000 A 
ATOM     24  C   UNL     1      10.956  11.656  18.173  0.00  0.00    +0.000 A 
ATOM     25  C   UNL     1      11.831  12.632  18.652  0.00  0.00    +0.000 A 
ATOM     26  C   UNL     1      11.717  13.085  19.964  0.00  0.00    +0.000 A 
ATOM     27  C   UNL     1      10.731  12.561  20.802  0.00  0.00    +0.000 A 
ATOM     28  C   UNL     1       9.850  11.591  20.322  0.00  0.00    +0.000 A 
ENDBRANCH  20  23
ENDBRANCH  17  18
ENDBRANCH  16  17
ENDBRANCH  15  16
ENDBRANCH   5  15
TORSDOF 5
ENDMDL
MODEL 8
REMARK VINA RESULT:      -7.7      2.111      2.526
REMARK  Name = 
REMARK  5 active torsions:
REMARK  status: ('A' for Active; 'I' for Inactive)
REMARK    1  A    between atoms: C_5  and  C_7
REMARK    2  A    between atoms: C_7  and  C_8
REMARK    3  A    between atoms: C_8  and  C_9
REMARK    4  A    between atoms: C_9  and  C_10
REMARK    5  A    between atoms: C_12  and  C_13
REMARK                            x       y       z     vdW  Elec       q    Type
REMARK                         _______ _______ _______ _____ _____    ______ ____
ROOT
ATOM      1  O   UNL     1       7.996   7.647  18.246  0.00  0.00    +0.000 OA
ATOM      2  C   UNL     1       7.371   6.773  17.664  0.00  0.00    +0.000 C 
ATOM      3  C   UNL     1       6.513   5.749  18.392  0.00  0.00    +0.000 C 
ATOM      4  N   UNL     1       5.421   5.209  17.565  0.00  0.00    +0.000 N 
ATOM      5  C   UNL     1       4.083   5.162  17.958  0.00  0.00    +0.000 C 
ATOM      6  O   UNL     1       3.169   4.712  17.259  0.00  0.00    +0.000 OA
ATOM      7  C   UNL     1       5.828   4.817  16.249  0.00  0.00    +0.000 A 
ATOM      8  C   UNL     1       5.187   3.808  15.524  0.00  0.00    +0.000 A 
ATOM      9  C   UNL     1       5.593   3.500  14.223  0.00  0.00    +0.000 A 
ATOM     10  C   UNL     1       6.628   4.216  13.623  0.00  0.00    +0.000 A 
ATOM     11  C   UNL     1       7.275   5.229  14.328  0.00  0.00    +0.000 A 
ATOM     12  C   UNL     1       6.894   5.508  15.642  0.00  0.00    +0.000 A 
ATOM     13  N   UNL     1       7.559   6.534  16.327  0.00  0.00    +0.000 N 
ATOM     14  H   UNL     1       8.228   7.124  15.854  0.00  0.00    +0.000 HD
ENDROOT
BRANCH   5  15
ATOM     15  C   UNL     1       3.734   5.765  19.311  0.00  0.00    +0.000 C 
BRANCH  15  16
ATOM     16  C   UNL     1       2.591   6.778  19.223  0.00  0.00    +0.000 C 
BRANCH  16  17
ATOM     17  C   UNL     1       2.894   7.887  18.213  0.00  0.00    +0.000 C 
BRANCH  17  18
ATOM     18  C   UNL     1       1.861   8.952  18.198  0.00  0.00    +0.000 A 
ATOM     19  N   UNL     1       0.565   8.849  18.070  0.00  0.00    +0.000 NA
ATOM     20  C   UNL     1       0.152  10.162  18.138  0.00  0.00    +0.000 A 
ATOM     21  N   UNL     1       1.158  11.043  18.282  0.00  0.00    +0.000 NA
ATOM     22  O   UNL     1       2.295  10.237  18.333  0.00  0.00    +0.000 OA
BRANCH  20  23
ATOM     23  C   UNL     1      -1.251  10.534  18.071  0.00  0.00    +0.000 A 
ATOM     24  C   UNL     1      -2.095   9.919  17.136  0.00  0.00    +0.000 A 
ATOM     25  C   UNL     1      -3.451  10.246  17.086  0.00  0.00    +0.000 A 
ATOM     26  C   UNL     1      -3.970  11.197  17.960  0.00  0.00    +0.000 A 
ATOM     27  C   UNL     1      -3.136  11.827  18.886  0.00  0.00    +0.000 A 
ATOM     28  C   UNL     1      -1.781  11.495  18.943  0.00  0.00    +0.000 A 
ENDBRANCH  20  23
ENDBRANCH  17  18
ENDBRANCH  16  17
ENDBRANCH  15  16
ENDBRANCH   5  15
TORSDOF 5
ENDMDL
MODEL 9
REMARK VINA RESULT:      -7.7      3.210      5.453
REMARK  Name = 
REMARK  5 active torsions:
REMARK  status: ('A' for Active; 'I' for Inactive)
REMARK    1  A    between atoms: C_5  and  C_7
REMARK    2  A    between atoms: C_7  and  C_8
REMARK    3  A    between atoms: C_8  and  C_9
REMARK    4  A    between atoms: C_9  and  C_10
REMARK    5  A    between atoms: C_12  and  C_13
REMARK                            x       y       z     vdW  Elec       q    Type
REMARK                         _______ _______ _______ _____ _____    ______ ____
ROOT
ATOM      1  O   UNL     1       4.338   4.191  15.875  0.00  0.00    +0.000 OA
ATOM      2  C   UNL     1       3.933   4.341  17.019  0.00  0.00    +0.000 C 
ATOM      3  C   UNL     1       4.192   5.603  17.827  0.00  0.00    +0.000 C 
ATOM      4  N   UNL     1       3.179   5.850  18.866  0.00  0.00    +0.000 N 
ATOM      5  C   UNL     1       2.498   7.056  19.034  0.00  0.00    +0.000 C 
ATOM      6  O   UNL     1       1.644   7.257  19.905  0.00  0.00    +0.000 OA
ATOM      7  C   UNL     1       2.860   4.696  19.652  0.00  0.00    +0.000 A 
ATOM      8  C   UNL     1       2.417   4.776  20.976  0.00  0.00    +0.000 A 
ATOM      9  C   UNL     1       2.072   3.620  21.681  0.00  0.00    +0.000 A 
ATOM     10  C   UNL     1       2.140   2.373  21.061  0.00  0.00    +0.000 A 
ATOM     11  C   UNL     1       2.574   2.274  19.740  0.00  0.00    +0.000 A 
ATOM     12  C   UNL     1       2.956   3.426  19.050  0.00  0.00    +0.000 A 
ATOM     13  N   UNL     1       3.385   3.299  17.722  0.00  0.00    +0.000 N 
ATOM     14  H   UNL     1       3.326   2.413  17.241  0.00  0.00    +0.000 HD
ENDROOT
BRANCH   5  15
ATOM     15  C   UNL     1       2.788   8.164  18.033  0.00  0.00    +0.000 C 
BRANCH  15  16
ATOM     16  C   UNL     1       1.559   9.025  17.738  0.00  0.00    +0.000 C 
BRANCH  16  17
ATOM     17  C   UNL     1       1.579  10.331  18.535  0.00  0.00    +0.000 C 
BRANCH  17  18
ATOM     18  C   UNL     1       0.219  10.829  18.862  0.00  0.00    +0.000 A 
ATOM     19  N   UNL     1      -0.846  10.886  18.108  0.00  0.00    +0.000 NA
ATOM     20  C   UNL     1      -1.786  11.428  18.958  0.00  0.00    +0.000 A 
ATOM     21  N   UNL     1      -1.311  11.712  20.184  0.00  0.00    +0.000 NA
ATOM     22  O   UNL     1       0.020  11.304  20.124  0.00  0.00    +0.000 OA
BRANCH  20  23
ATOM     23  C   UNL     1      -3.162  11.649  18.548  0.00  0.00    +0.000 A 
ATOM     24  C   UNL     1      -4.074  12.232  19.440  0.00  0.00    +0.000 A 
ATOM     25  C   UNL     1      -5.389  12.478  19.046  0.00  0.00    +0.000 A 
ATOM     26  C   UNL     1      -5.807  12.135  17.763  0.00  0.00    +0.000 A 
ATOM     27  C   UNL     1      -4.912  11.540  16.871  0.00  0.00    +0.000 A 
ATOM     28  C   UNL     1      -3.593  11.300  17.261  0.00  0.00    +0.000 A 
ENDBRANCH  20  23
ENDBRANCH  17  18
ENDBRANCH  16  17
ENDBRANCH  15  16
ENDBRANCH   5  15
TORSDOF 5
ENDMDL
