MODEL 1
REMARK VINA RESULT:      -8.4      0.000      0.000
REMARK  Name = 
REMARK  5 active torsions:
REMARK  status: ('A' for Active; 'I' for Inactive)
REMARK    1  A    between atoms: C_1  and  C_2
REMARK    2  A    between atoms: C_2  and  C_3
REMARK    3  A    between atoms: N_16  and  C_17
REMARK    4  A    between atoms: C_17  and  C_18
REMARK    5  A    between atoms: C_22  and  N_23
REMARK                            x       y       z     vdW  Elec       q    Type
REMARK                         _______ _______ _______ _____ _____    ______ ____
ROOT
ATOM      1  C   UNL     1       3.738   1.164  18.113  0.00  0.00    +0.000 C 
ATOM      2  C   UNL     1       3.501   2.462  18.869  0.00  0.00    +0.000 C 
ATOM      3  N   UNL     1       3.688   2.306  20.298  0.00  0.00    +0.000 N 
ATOM      4  C   UNL     1       2.740   3.008  21.012  0.00  0.00    +0.000 C 
ATOM      5  O   UNL     1       2.826   3.246  22.205  0.00  0.00    +0.000 OA
ATOM      6  N   UNL     1       1.757   3.390  20.159  0.00  0.00    +0.000 N 
ATOM      7  C   UNL     1       2.010   2.895  18.910  0.00  0.00    +0.000 C 
ATOM      8  O   UNL     1       1.240   2.936  17.957  0.00  0.00    +0.000 OA
ATOM      9  H   UNL     1       4.557   2.055  20.749  0.00  0.00    +0.000 HD
ENDROOT
BRANCH   2  10
ATOM     10  C   UNL     1       4.359   3.601  18.293  0.00  0.00    +0.000 A 
ATOM     11  C   UNL     1       4.127   4.136  17.019  0.00  0.00    +0.000 A 
ATOM     12  C   UNL     1       4.927   5.172  16.518  0.00  0.00    +0.000 A 
ATOM     13  C   UNL     1       5.980   5.707  17.278  0.00  0.00    +0.000 A 
ATOM     14  C   UNL     1       6.792   6.752  16.796  0.00  0.00    +0.000 A 
ATOM     15  C   UNL     1       7.834   7.260  17.575  0.00  0.00    +0.000 A 
ATOM     16  C   UNL     1       8.084   6.730  18.837  0.00  0.00    +0.000 A 
ATOM     17  C   UNL     1       7.286   5.698  19.328  0.00  0.00    +0.000 A 
ATOM     18  C   UNL     1       6.226   5.187  18.560  0.00  0.00    +0.000 A 
ATOM     19  C   UNL     1       5.406   4.159  19.055  0.00  0.00    +0.000 A 
ENDBRANCH   2  10
BRANCH   6  20
ATOM     20  C   UNL     1       0.762   4.391  20.440  0.00  0.00    +0.000 C 
BRANCH  20  21
ATOM     21  C   UNL     1       1.232   5.810  20.273  0.00  0.00    +0.000 A 
ATOM     22  C   UNL     1       1.979   6.174  19.144  0.00  0.00    +0.000 A 
ATOM     23  C   UNL     1       2.363   7.501  18.940  0.00  0.00    +0.000 A 
ATOM     24  C   UNL     1       2.007   8.481  19.864  0.00  0.00    +0.000 A 
ATOM     25  C   UNL     1       1.266   8.125  20.998  0.00  0.00    +0.000 A 
ATOM     26  C   UNL     1       0.886   6.793  21.214  0.00  0.00    +0.000 A 
BRANCH  25  27
ATOM     27  N   UNL     1       0.852   9.164  21.950  0.00  0.00    +0.000 N 
ATOM     28  O   UNL     1       1.704   9.593  22.742  0.00  0.00    +0.000 OA
ATOM     29  O   UNL     1      -0.321   9.560  21.901  0.00  0.00    +0.000 OA
ENDBRANCH  25  27
ENDBRANCH  20  21
ENDBRANCH   6  20
TORSDOF 4
ENDMDL
MODEL 2
REMARK VINA RESULT:      -8.1      2.754      5.574
REMARK  Name = 
REMARK  5 active torsions:
REMARK  status: ('A' for Active; 'I' for Inactive)
REMARK    1  A    between atoms: C_1  and  C_2
REMARK    2  A    between atoms: C_2  and  C_3
REMARK    3  A    between atoms: N_16  and  C_17
REMARK    4  A    between atoms: C_17  and  C_18
REMARK    5  A    between atoms: C_22  and  N_23
REMARK                            x       y       z     vdW  Elec       q    Type
REMARK                         _______ _______ _______ _____ _____    ______ ____
ROOT
ATOM      1  C   UNL     1       2.089   3.497  21.526  0.00  0.00    +0.000 C 
ATOM      2  C   UNL     1       2.411   3.798  20.071  0.00  0.00    +0.000 C 
ATOM      3  N   UNL     1       1.674   2.946  19.158  0.00  0.00    +0.000 N 
ATOM      4  C   UNL     1       2.457   2.545  18.097  0.00  0.00    +0.000 C 
ATOM      5  O   UNL     1       2.014   2.044  17.077  0.00  0.00    +0.000 OA
ATOM      6  N   UNL     1       3.750   2.832  18.386  0.00  0.00    +0.000 N 
ATOM      7  C   UNL     1       3.838   3.356  19.645  0.00  0.00    +0.000 C 
ATOM      8  O   UNL     1       4.878   3.578  20.254  0.00  0.00    +0.000 OA
ATOM      9  H   UNL     1       0.668   2.927  19.063  0.00  0.00    +0.000 HD
ENDROOT
BRANCH   2  10
ATOM     10  C   UNL     1       2.213   5.291  19.758  0.00  0.00    +0.000 A 
ATOM     11  C   UNL     1       2.552   5.843  18.515  0.00  0.00    +0.000 A 
ATOM     12  C   UNL     1       2.363   7.208  18.260  0.00  0.00    +0.000 A 
ATOM     13  C   UNL     1       1.826   8.061  19.237  0.00  0.00    +0.000 A 
ATOM     14  C   UNL     1       1.623   9.434  18.999  0.00  0.00    +0.000 A 
ATOM     15  C   UNL     1       1.090  10.257  19.993  0.00  0.00    +0.000 A 
ATOM     16  C   UNL     1       0.759   9.726  21.236  0.00  0.00    +0.000 A 
ATOM     17  C   UNL     1       0.952   8.368  21.485  0.00  0.00    +0.000 A 
ATOM     18  C   UNL     1       1.475   7.526  20.489  0.00  0.00    +0.000 A 
ATOM     19  C   UNL     1       1.655   6.153  20.725  0.00  0.00    +0.000 A 
ENDBRANCH   2  10
BRANCH   6  20
ATOM     20  C   UNL     1       4.825   2.858  17.427  0.00  0.00    +0.000 C 
BRANCH  20  21
ATOM     21  C   UNL     1       5.341   4.233  17.098  0.00  0.00    +0.000 A 
ATOM     22  C   UNL     1       4.761   4.970  16.057  0.00  0.00    +0.000 A 
ATOM     23  C   UNL     1       5.182   6.273  15.785  0.00  0.00    +0.000 A 
ATOM     24  C   UNL     1       6.192   6.855  16.549  0.00  0.00    +0.000 A 
ATOM     25  C   UNL     1       6.782   6.122  17.588  0.00  0.00    +0.000 A 
ATOM     26  C   UNL     1       6.370   4.810  17.859  0.00  0.00    +0.000 A 
BRANCH  25  27
ATOM     27  N   UNL     1       7.815   6.749  18.422  0.00  0.00    +0.000 N 
ATOM     28  O   UNL     1       8.165   7.904  18.136  0.00  0.00    +0.000 OA
ATOM     29  O   UNL     1       8.271   6.093  19.369  0.00  0.00    +0.000 OA
ENDBRANCH  25  27
ENDBRANCH  20  21
ENDBRANCH   6  20
TORSDOF 4
ENDMDL
MODEL 3
REMARK VINA RESULT:      -7.8      4.643      8.582
REMARK  Name = 
REMARK  5 active torsions:
REMARK  status: ('A' for Active; 'I' for Inactive)
REMARK    1  A    between atoms: C_1  and  C_2
REMARK    2  A    between atoms: C_2  and  C_3
REMARK    3  A    between atoms: N_16  and  C_17
REMARK    4  A    between atoms: C_17  and  C_18
REMARK    5  A    between atoms: C_22  and  N_23
REMARK                            x       y       z     vdW  Elec       q    Type
REMARK                         _______ _______ _______ _____ _____    ______ ____
ROOT
ATOM      1  C   UNL     1       1.440  11.969  19.648  0.00  0.00    +0.000 C 
ATOM      2  C   UNL     1       0.911  10.572  19.365  0.00  0.00    +0.000 C 
ATOM      3  N   UNL     1       0.993   9.708  20.527  0.00  0.00    +0.000 N 
ATOM      4  C   UNL     1       1.382   8.432  20.181  0.00  0.00    +0.000 C 
ATOM      5  O   UNL     1       1.282   7.467  20.921  0.00  0.00    +0.000 OA
ATOM      6  N   UNL     1       1.846   8.455  18.907  0.00  0.00    +0.000 N 
ATOM      7  C   UNL     1       1.829   9.736  18.432  0.00  0.00    +0.000 C 
ATOM      8  O   UNL     1       2.322  10.111  17.374  0.00  0.00    +0.000 OA
ATOM      9  H   UNL     1       0.501   9.854  21.398  0.00  0.00    +0.000 HD
ENDROOT
BRANCH   2  10
ATOM     10  C   UNL     1      -0.512  10.628  18.783  0.00  0.00    +0.000 A 
ATOM     11  C   UNL     1      -0.868   9.931  17.620  0.00  0.00    +0.000 A 
ATOM     12  C   UNL     1      -2.171  10.003  17.110  0.00  0.00    +0.000 A 
ATOM     13  C   UNL     1      -3.159  10.769  17.750  0.00  0.00    +0.000 A 
ATOM     14  C   UNL     1      -4.476  10.850  17.259  0.00  0.00    +0.000 A 
ATOM     15  C   UNL     1      -5.435  11.624  17.916  0.00  0.00    +0.000 A 
ATOM     16  C   UNL     1      -5.093  12.329  19.065  0.00  0.00    +0.000 A 
ATOM     17  C   UNL     1      -3.794  12.256  19.566  0.00  0.00    +0.000 A 
ATOM     18  C   UNL     1      -2.823  11.471  18.921  0.00  0.00    +0.000 A 
ATOM     19  C   UNL     1      -1.517  11.377  19.429  0.00  0.00    +0.000 A 
ENDBRANCH   2  10
BRANCH   6  20
ATOM     20  C   UNL     1       2.051   7.293  18.081  0.00  0.00    +0.000 C 
BRANCH  20  21
ATOM     21  C   UNL     1       3.380   6.615  18.268  0.00  0.00    +0.000 A 
ATOM     22  C   UNL     1       3.523   5.599  19.223  0.00  0.00    +0.000 A 
ATOM     23  C   UNL     1       4.731   4.913  19.359  0.00  0.00    +0.000 A 
ATOM     24  C   UNL     1       5.814   5.236  18.544  0.00  0.00    +0.000 A 
ATOM     25  C   UNL     1       5.682   6.255  17.591  0.00  0.00    +0.000 A 
ATOM     26  C   UNL     1       4.475   6.954  17.456  0.00  0.00    +0.000 A 
BRANCH  25  27
ATOM     27  N   UNL     1       6.808   6.566  16.702  0.00  0.00    +0.000 N 
ATOM     28  O   UNL     1       7.565   7.491  17.032  0.00  0.00    +0.000 OA
ATOM     29  O   UNL     1       6.945   5.881  15.679  0.00  0.00    +0.000 OA
ENDBRANCH  25  27
ENDBRANCH  20  21
ENDBRANCH   6  20
TORSDOF 4
ENDMDL
MODEL 4
REMARK VINA RESULT:      -7.7      2.860      5.402
REMARK  Name = 
REMARK  5 active torsions:
REMARK  status: ('A' for Active; 'I' for Inactive)
REMARK    1  A    between atoms: C_1  and  C_2
REMARK    2  A    between atoms: C_2  and  C_3
REMARK    3  A    between atoms: N_16  and  C_17
REMARK    4  A    between atoms: C_17  and  C_18
REMARK    5  A    between atoms: C_22  and  N_23
REMARK                            x       y       z     vdW  Elec       q    Type
REMARK                         _______ _______ _______ _____ _____    ______ ____
ROOT
ATOM      1  C   UNL     1       2.550   2.896  21.535  0.00  0.00    +0.000 C 
ATOM      2  C   UNL     1       2.642   3.413  20.109  0.00  0.00    +0.000 C 
ATOM      3  N   UNL     1       1.833   2.637  19.190  0.00  0.00    +0.000 N 
ATOM      4  C   UNL     1       2.478   2.444  17.987  0.00  0.00    +0.000 C 
ATOM      5  O   UNL     1       1.924   2.051  16.974  0.00  0.00    +0.000 OA
ATOM      6  N   UNL     1       3.780   2.790  18.139  0.00  0.00    +0.000 N 
ATOM      7  C   UNL     1       4.017   3.145  19.437  0.00  0.00    +0.000 C 
ATOM      8  O   UNL     1       5.119   3.364  19.927  0.00  0.00    +0.000 OA
ATOM      9  H   UNL     1       0.827   2.552  19.228  0.00  0.00    +0.000 HD
ENDROOT
BRANCH   2  10
ATOM     10  C   UNL     1       2.314   4.915  20.044  0.00  0.00    +0.000 A 
ATOM     11  C   UNL     1       1.694   5.587  21.106  0.00  0.00    +0.000 A 
ATOM     12  C   UNL     1       1.403   6.956  21.018  0.00  0.00    +0.000 A 
ATOM     13  C   UNL     1       1.728   7.693  19.868  0.00  0.00    +0.000 A 
ATOM     14  C   UNL     1       1.450   9.069  19.761  0.00  0.00    +0.000 A 
ATOM     15  C   UNL     1       1.782   9.775  18.603  0.00  0.00    +0.000 A 
ATOM     16  C   UNL     1       2.387   9.118  17.536  0.00  0.00    +0.000 A 
ATOM     17  C   UNL     1       2.671   7.756  17.628  0.00  0.00    +0.000 A 
ATOM     18  C   UNL     1       2.354   7.038  18.794  0.00  0.00    +0.000 A 
ATOM     19  C   UNL     1       2.653   5.670  18.903  0.00  0.00    +0.000 A 
ENDBRANCH   2  10
BRANCH   6  20
ATOM     20  C   UNL     1       4.703   3.028  17.059  0.00  0.00    +0.000 C 
BRANCH  20  21
ATOM     21  C   UNL     1       5.319   4.401  17.049  0.00  0.00    +0.000 A 
ATOM     22  C   UNL     1       4.798   5.399  16.213  0.00  0.00    +0.000 A 
ATOM     23  C   UNL     1       5.314   6.695  16.244  0.00  0.00    +0.000 A 
ATOM     24  C   UNL     1       6.360   7.011  17.108  0.00  0.00    +0.000 A 
ATOM     25  C   UNL     1       6.891   6.018  17.942  0.00  0.00    +0.000 A 
ATOM     26  C   UNL     1       6.384   4.711  17.909  0.00  0.00    +0.000 A 
BRANCH  25  27
ATOM     27  N   UNL     1       7.963   6.360  18.885  0.00  0.00    +0.000 N 
ATOM     28  O   UNL     1       8.484   7.481  18.786  0.00  0.00    +0.000 OA
ATOM     29  O   UNL     1       8.281   5.514  19.733  0.00  0.00    +0.000 OA
ENDBRANCH  25  27
ENDBRANCH  20  21
ENDBRANCH   6  20
TORSDOF 4
ENDMDL
MODEL 5
REMARK VINA RESULT:      -7.5      4.496      8.523
REMARK  Name = 
REMARK  5 active torsions:
REMARK  status: ('A' for Active; 'I' for Inactive)
REMARK    1  A    between atoms: C_1  and  C_2
REMARK    2  A    between atoms: C_2  and  C_3
REMARK    3  A    between atoms: N_16  and  C_17
REMARK    4  A    between atoms: C_17  and  C_18
REMARK    5  A    between atoms: C_22  and  N_23
REMARK                            x       y       z     vdW  Elec       q    Type
REMARK                         _______ _______ _______ _____ _____    ______ ____
ROOT
ATOM      1  C   UNL     1       1.578  12.169  20.367  0.00  0.00    +0.000 C 
ATOM      2  C   UNL     1       0.945  10.864  19.908  0.00  0.00    +0.000 C 
ATOM      3  N   UNL     1       0.945   9.858  20.952  0.00  0.00    +0.000 N 
ATOM      4  C   UNL     1       1.237   8.608  20.449  0.00  0.00    +0.000 C 
ATOM      5  O   UNL     1       1.053   7.569  21.062  0.00  0.00    +0.000 OA
ATOM      6  N   UNL     1       1.717   8.754  19.189  0.00  0.00    +0.000 N 
ATOM      7  C   UNL     1       1.806  10.082  18.879  0.00  0.00    +0.000 C 
ATOM      8  O   UNL     1       2.340  10.547  17.878  0.00  0.00    +0.000 OA
ATOM      9  H   UNL     1       0.456   9.932  21.833  0.00  0.00    +0.000 HD
ENDROOT
BRANCH   2  10
ATOM     10  C   UNL     1      -0.463  11.105  19.335  0.00  0.00    +0.000 A 
ATOM     11  C   UNL     1      -1.418  11.878  20.010  0.00  0.00    +0.000 A 
ATOM     12  C   UNL     1      -2.694  12.077  19.466  0.00  0.00    +0.000 A 
ATOM     13  C   UNL     1      -3.051  11.516  18.229  0.00  0.00    +0.000 A 
ATOM     14  C   UNL     1      -4.325  11.709  17.661  0.00  0.00    +0.000 A 
ATOM     15  C   UNL     1      -4.651  11.134  16.431  0.00  0.00    +0.000 A 
ATOM     16  C   UNL     1      -3.716  10.355  15.756  0.00  0.00    +0.000 A 
ATOM     17  C   UNL     1      -2.450  10.158  16.304  0.00  0.00    +0.000 A 
ATOM     18  C   UNL     1      -2.105  10.742  17.535  0.00  0.00    +0.000 A 
ATOM     19  C   UNL     1      -0.825  10.563  18.085  0.00  0.00    +0.000 A 
ENDBRANCH   2  10
BRANCH   6  20
ATOM     20  C   UNL     1       1.840   7.693  18.224  0.00  0.00    +0.000 C 
BRANCH  20  21
ATOM     21  C   UNL     1       3.115   6.900  18.320  0.00  0.00    +0.000 A 
ATOM     22  C   UNL     1       3.293   5.981  19.363  0.00  0.00    +0.000 A 
ATOM     23  C   UNL     1       4.440   5.187  19.427  0.00  0.00    +0.000 A 
ATOM     24  C   UNL     1       5.426   5.305  18.449  0.00  0.00    +0.000 A 
ATOM     25  C   UNL     1       5.258   6.226  17.406  0.00  0.00    +0.000 A 
ATOM     26  C   UNL     1       4.113   7.033  17.342  0.00  0.00    +0.000 A 
BRANCH  25  27
ATOM     27  N   UNL     1       6.275   6.319  16.351  0.00  0.00    +0.000 N 
ATOM     28  O   UNL     1       7.418   6.667  16.680  0.00  0.00    +0.000 OA
ATOM     29  O   UNL     1       5.936   6.035  15.193  0.00  0.00    +0.000 OA
ENDBRANCH  25  27
ENDBRANCH  20  21
ENDBRANCH   6  20
TORSDOF 4
ENDMDL
MODEL 6
REMARK VINA RESULT:      -7.4      4.036      8.338
REMARK  Name = 
REMARK  5 active torsions:
REMARK  status: ('A' for Active; 'I' for Inactive)
REMARK    1  A    between atoms: C_1  and  C_2
REMARK    2  A    between atoms: C_2  and  C_3
REMARK    3  A    between atoms: N_16  and  C_17
REMARK    4  A    between atoms: C_17  and  C_18
REMARK    5  A    between atoms: C_22  and  N_23
REMARK                            x       y       z     vdW  Elec       q    Type
REMARK                         _______ _______ _______ _____ _____    ______ ____
ROOT
ATOM      1  C   UNL     1       1.690  11.772  19.424  0.00  0.00    +0.000 C 
ATOM      2  C   UNL     1       1.049  10.404  19.251  0.00  0.00    +0.000 C 
ATOM      3  N   UNL     1       1.160   9.591  20.446  0.00  0.00    +0.000 N 
ATOM      4  C   UNL     1       1.437   8.275  20.139  0.00  0.00    +0.000 C 
ATOM      5  O   UNL     1       1.329   7.355  20.932  0.00  0.00    +0.000 OA
ATOM      6  N   UNL     1       1.805   8.208  18.835  0.00  0.00    +0.000 N 
ATOM      7  C   UNL     1       1.838   9.464  18.298  0.00  0.00    +0.000 C 
ATOM      8  O   UNL     1       2.274   9.754  17.190  0.00  0.00    +0.000 OA
ATOM      9  H   UNL     1       0.746   9.811  21.341  0.00  0.00    +0.000 HD
ENDROOT
BRANCH   2  10
ATOM     10  C   UNL     1      -0.406  10.532  18.770  0.00  0.00    +0.000 A 
ATOM     11  C   UNL     1      -0.886   9.829  17.656  0.00  0.00    +0.000 A 
ATOM     12  C   UNL     1      -2.217   9.968  17.238  0.00  0.00    +0.000 A 
ATOM     13  C   UNL     1      -3.108  10.809  17.924  0.00  0.00    +0.000 A 
ATOM     14  C   UNL     1      -4.450  10.959  17.525  0.00  0.00    +0.000 A 
ATOM     15  C   UNL     1      -5.311  11.807  18.225  0.00  0.00    +0.000 A 
ATOM     16  C   UNL     1      -4.845  12.519  19.325  0.00  0.00    +0.000 A 
ATOM     17  C   UNL     1      -3.520  12.379  19.734  0.00  0.00    +0.000 A 
ATOM     18  C   UNL     1      -2.647  11.519  19.046  0.00  0.00    +0.000 A 
ATOM     19  C   UNL     1      -1.315  11.358  19.462  0.00  0.00    +0.000 A 
ENDBRANCH   2  10
BRANCH   6  20
ATOM     20  C   UNL     1       1.870   6.998  18.057  0.00  0.00    +0.000 C 
BRANCH  20  21
ATOM     21  C   UNL     1       3.087   6.151  18.310  0.00  0.00    +0.000 A 
ATOM     22  C   UNL     1       4.356   6.614  17.933  0.00  0.00    +0.000 A 
ATOM     23  C   UNL     1       5.501   5.871  18.223  0.00  0.00    +0.000 A 
ATOM     24  C   UNL     1       5.393   4.654  18.893  0.00  0.00    +0.000 A 
ATOM     25  C   UNL     1       4.129   4.181  19.268  0.00  0.00    +0.000 A 
ATOM     26  C   UNL     1       2.974   4.918  18.970  0.00  0.00    +0.000 A 
BRANCH  25  27
ATOM     27  N   UNL     1       4.017   2.921  20.012  0.00  0.00    +0.000 N 
ATOM     28  O   UNL     1       2.891   2.576  20.400  0.00  0.00    +0.000 OA
ATOM     29  O   UNL     1       5.053   2.267  20.202  0.00  0.00    +0.000 OA
ENDBRANCH  25  27
ENDBRANCH  20  21
ENDBRANCH   6  20
TORSDOF 4
ENDMDL
MODEL 7
REMARK VINA RESULT:      -7.3      0.880      1.740
REMARK  Name = 
REMARK  5 active torsions:
REMARK  status: ('A' for Active; 'I' for Inactive)
REMARK    1  A    between atoms: C_1  and  C_2
REMARK    2  A    between atoms: C_2  and  C_3
REMARK    3  A    between atoms: N_16  and  C_17
REMARK    4  A    between atoms: C_17  and  C_18
REMARK    5  A    between atoms: C_22  and  N_23
REMARK                            x       y       z     vdW  Elec       q    Type
REMARK                         _______ _______ _______ _____ _____    ______ ____
ROOT
ATOM      1  C   UNL     1       3.664   0.882  18.526  0.00  0.00    +0.000 C 
ATOM      2  C   UNL     1       3.459   2.246  19.166  0.00  0.00    +0.000 C 
ATOM      3  N   UNL     1       3.531   2.190  20.612  0.00  0.00    +0.000 N 
ATOM      4  C   UNL     1       2.583   3.002  21.197  0.00  0.00    +0.000 C 
ATOM      5  O   UNL     1       2.598   3.326  22.374  0.00  0.00    +0.000 OA
ATOM      6  N   UNL     1       1.692   3.376  20.245  0.00  0.00    +0.000 N 
ATOM      7  C   UNL     1       2.002   2.771  19.059  0.00  0.00    +0.000 C 
ATOM      8  O   UNL     1       1.307   2.786  18.049  0.00  0.00    +0.000 OA
ATOM      9  H   UNL     1       4.346   1.922  21.146  0.00  0.00    +0.000 HD
ENDROOT
BRANCH   2  10
ATOM     10  C   UNL     1       4.432   3.283  18.577  0.00  0.00    +0.000 A 
ATOM     11  C   UNL     1       5.063   4.247  19.375  0.00  0.00    +0.000 A 
ATOM     12  C   UNL     1       5.942   5.182  18.811  0.00  0.00    +0.000 A 
ATOM     13  C   UNL     1       6.219   5.178  17.434  0.00  0.00    +0.000 A 
ATOM     14  C   UNL     1       7.103   6.104  16.848  0.00  0.00    +0.000 A 
ATOM     15  C   UNL     1       7.355   6.077  15.475  0.00  0.00    +0.000 A 
ATOM     16  C   UNL     1       6.726   5.133  14.669  0.00  0.00    +0.000 A 
ATOM     17  C   UNL     1       5.851   4.208  15.236  0.00  0.00    +0.000 A 
ATOM     18  C   UNL     1       5.599   4.216  16.618  0.00  0.00    +0.000 A 
ATOM     19  C   UNL     1       4.733   3.276  17.200  0.00  0.00    +0.000 A 
ENDBRANCH   2  10
BRANCH   6  20
ATOM     20  C   UNL     1       0.748   4.455  20.376  0.00  0.00    +0.000 C 
BRANCH  20  21
ATOM     21  C   UNL     1       1.294   5.814  20.028  0.00  0.00    +0.000 A 
ATOM     22  C   UNL     1       1.972   6.009  18.817  0.00  0.00    +0.000 A 
ATOM     23  C   UNL     1       2.423   7.278  18.449  0.00  0.00    +0.000 A 
ATOM     24  C   UNL     1       2.203   8.368  19.289  0.00  0.00    +0.000 A 
ATOM     25  C   UNL     1       1.531   8.180  20.504  0.00  0.00    +0.000 A 
ATOM     26  C   UNL     1       1.085   6.906  20.884  0.00  0.00    +0.000 A 
BRANCH  25  27
ATOM     27  N   UNL     1       1.260   9.335  21.369  0.00  0.00    +0.000 N 
ATOM     28  O   UNL     1       0.590  10.266  20.897  0.00  0.00    +0.000 OA
ATOM     29  O   UNL     1       1.707   9.311  22.525  0.00  0.00    +0.000 OA
ENDBRANCH  25  27
ENDBRANCH  20  21
ENDBRANCH   6  20
TORSDOF 4
ENDMDL
MODEL 8
REMARK VINA RESULT:      -7.2      4.407      8.428
REMARK  Name = 
REMARK  5 active torsions:
REMARK  status: ('A' for Active; 'I' for Inactive)
REMARK    1  A    between atoms: C_1  and  C_2
REMARK    2  A    between atoms: C_2  and  C_3
REMARK    3  A    between atoms: N_16  and  C_17
REMARK    4  A    between atoms: C_17  and  C_18
REMARK    5  A    between atoms: C_22  and  N_23
REMARK                            x       y       z     vdW  Elec       q    Type
REMARK                         _______ _______ _______ _____ _____    ______ ____
ROOT
ATOM      1  C   UNL     1       1.521  11.885  19.794  0.00  0.00    +0.000 C 
ATOM      2  C   UNL     1       0.974  10.515  19.426  0.00  0.00    +0.000 C 
ATOM      3  N   UNL     1       1.077   9.571  20.522  0.00  0.00    +0.000 N 
ATOM      4  C   UNL     1       1.446   8.319  20.078  0.00  0.00    +0.000 C 
ATOM      5  O   UNL     1       1.356   7.305  20.751  0.00  0.00    +0.000 OA
ATOM      6  N   UNL     1       1.879   8.429  18.797  0.00  0.00    +0.000 N 
ATOM      7  C   UNL     1       1.861   9.741  18.414  0.00  0.00    +0.000 C 
ATOM      8  O   UNL     1       2.331  10.186  17.373  0.00  0.00    +0.000 OA
ATOM      9  H   UNL     1       0.608   9.659  21.413  0.00  0.00    +0.000 HD
ENDROOT
BRANCH   2  10
ATOM     10  C   UNL     1      -0.463  10.621  18.886  0.00  0.00    +0.000 A 
ATOM     11  C   UNL     1      -0.881   9.923  17.744  0.00  0.00    +0.000 A 
ATOM     12  C   UNL     1      -2.196  10.042  17.272  0.00  0.00    +0.000 A 
ATOM     13  C   UNL     1      -3.132  10.856  17.930  0.00  0.00    +0.000 A 
ATOM     14  C   UNL     1      -4.458  10.985  17.476  0.00  0.00    +0.000 A 
ATOM     15  C   UNL     1      -5.365  11.806  18.150  0.00  0.00    +0.000 A 
ATOM     16  C   UNL     1      -4.961  12.513  19.278  0.00  0.00    +0.000 A 
ATOM     17  C   UNL     1      -3.651  12.393  19.741  0.00  0.00    +0.000 A 
ATOM     18  C   UNL     1      -2.733  11.560  19.079  0.00  0.00    +0.000 A 
ATOM     19  C   UNL     1      -1.416  11.419  19.549  0.00  0.00    +0.000 A 
ENDBRANCH   2  10
BRANCH   6  20
ATOM     20  C   UNL     1       2.053   7.327  17.887  0.00  0.00    +0.000 C 
BRANCH  20  21
ATOM     21  C   UNL     1       2.950   6.230  18.391  0.00  0.00    +0.000 A 
ATOM     22  C   UNL     1       2.412   4.977  18.718  0.00  0.00    +0.000 A 
ATOM     23  C   UNL     1       3.240   3.928  19.121  0.00  0.00    +0.000 A 
ATOM     24  C   UNL     1       4.618   4.119  19.206  0.00  0.00    +0.000 A 
ATOM     25  C   UNL     1       5.163   5.370  18.887  0.00  0.00    +0.000 A 
ATOM     26  C   UNL     1       4.336   6.430  18.491  0.00  0.00    +0.000 A 
BRANCH  25  27
ATOM     27  N   UNL     1       6.619   5.559  18.932  0.00  0.00    +0.000 N 
ATOM     28  O   UNL     1       7.190   5.384  20.019  0.00  0.00    +0.000 OA
ATOM     29  O   UNL     1       7.195   5.872  17.881  0.00  0.00    +0.000 OA
ENDBRANCH  25  27
ENDBRANCH  20  21
ENDBRANCH   6  20
TORSDOF 4
ENDMDL
MODEL 9
REMARK VINA RESULT:      -7.2      4.268      8.492
REMARK  Name = 
REMARK  5 active torsions:
REMARK  status: ('A' for Active; 'I' for Inactive)
REMARK    1  A    between atoms: C_1  and  C_2
REMARK    2  A    between atoms: C_2  and  C_3
REMARK    3  A    between atoms: N_16  and  C_17
REMARK    4  A    between atoms: C_17  and  C_18
REMARK    5  A    between atoms: C_22  and  N_23
REMARK                            x       y       z     vdW  Elec       q    Type
REMARK                         _______ _______ _______ _____ _____    ______ ____
ROOT
ATOM      1  C   UNL     1       1.513  11.997  19.649  0.00  0.00    +0.000 C 
ATOM      2  C   UNL     1       0.923  10.614  19.419  0.00  0.00    +0.000 C 
ATOM      3  N   UNL     1       1.047   9.764  20.587  0.00  0.00    +0.000 N 
ATOM      4  C   UNL     1       1.374   8.471  20.238  0.00  0.00    +0.000 C 
ATOM      5  O   UNL     1       1.288   7.520  20.997  0.00  0.00    +0.000 OA
ATOM      6  N   UNL     1       1.761   8.462  18.938  0.00  0.00    +0.000 N 
ATOM      7  C   UNL     1       1.757   9.737  18.445  0.00  0.00    +0.000 C 
ATOM      8  O   UNL     1       2.197  10.081  17.354  0.00  0.00    +0.000 OA
ATOM      9  H   UNL     1       0.614   9.937  21.483  0.00  0.00    +0.000 HD
ENDROOT
BRANCH   2  10
ATOM     10  C   UNL     1      -0.530  10.709  18.922  0.00  0.00    +0.000 A 
ATOM     11  C   UNL     1      -0.982   9.992  17.805  0.00  0.00    +0.000 A 
ATOM     12  C   UNL     1      -2.311  10.101  17.373  0.00  0.00    +0.000 A 
ATOM     13  C   UNL     1      -3.228  10.924  18.047  0.00  0.00    +0.000 A 
ATOM     14  C   UNL     1      -4.568  11.042  17.633  0.00  0.00    +0.000 A 
ATOM     15  C   UNL     1      -5.455  11.872  18.322  0.00  0.00    +0.000 A 
ATOM     16  C   UNL     1      -5.017  12.598  19.425  0.00  0.00    +0.000 A 
ATOM     17  C   UNL     1      -3.693  12.489  19.848  0.00  0.00    +0.000 A 
ATOM     18  C   UNL     1      -2.795  11.647  19.171  0.00  0.00    +0.000 A 
ATOM     19  C   UNL     1      -1.464  11.516  19.602  0.00  0.00    +0.000 A 
ENDBRANCH   2  10
BRANCH   6  20
ATOM     20  C   UNL     1       1.878   7.283  18.119  0.00  0.00    +0.000 C 
BRANCH  20  21
ATOM     21  C   UNL     1       3.291   6.839  17.855  0.00  0.00    +0.000 A 
ATOM     22  C   UNL     1       4.004   7.370  16.771  0.00  0.00    +0.000 A 
ATOM     23  C   UNL     1       5.338   7.020  16.555  0.00  0.00    +0.000 A 
ATOM     24  C   UNL     1       5.976   6.130  17.418  0.00  0.00    +0.000 A 
ATOM     25  C   UNL     1       5.268   5.590  18.499  0.00  0.00    +0.000 A 
ATOM     26  C   UNL     1       3.926   5.930  18.716  0.00  0.00    +0.000 A 
BRANCH  25  27
ATOM     27  N   UNL     1       5.952   4.687  19.434  0.00  0.00    +0.000 N 
ATOM     28  O   UNL     1       6.972   5.107  20.000  0.00  0.00    +0.000 OA
ATOM     29  O   UNL     1       5.465   3.562  19.613  0.00  0.00    +0.000 OA
ENDBRANCH  25  27
ENDBRANCH  20  21
ENDBRANCH   6  20
TORSDOF 4
ENDMDL
