MODEL 1
REMARK VINA RESULT:      -7.7      0.000      0.000
REMARK  Name = 
REMARK  2 active torsions:
REMARK  status: ('A' for Active; 'I' for Inactive)
REMARK    1  A    between atoms: C_10  and  C_11
REMARK    2  A    between atoms: C_15  and  C_17
REMARK                            x       y       z     vdW  Elec       q    Type
REMARK                         _______ _______ _______ _____ _____    ______ ____
ROOT
ATOM      1  C   UNL     1      -0.119  11.065  21.163  0.00  0.00    +0.000 C 
ATOM      2  C   UNL     1      -0.355  11.218  22.679  0.00  0.00    +0.000 C 
ATOM      3  C   UNL     1      -1.825  11.373  23.071  0.00  0.00    +0.000 C 
ATOM      4  N   UNL     1      -2.463  12.451  22.327  0.00  0.00    +0.000 N 
ATOM      5  C   UNL     1      -3.623  13.019  22.890  0.00  0.00    +0.000 C 
ATOM      6  O   UNL     1      -4.235  12.542  23.835  0.00  0.00    +0.000 OA
ATOM      7  C   UNL     1      -2.301  12.411  20.875  0.00  0.00    +0.000 C 
ATOM      8  C   UNL     1      -0.865  12.179  20.419  0.00  0.00    +0.000 C 
ENDROOT
BRANCH   5   9
ATOM      9  C   UNL     1      -3.969  14.369  22.354  0.00  0.00    +0.000 C 
ATOM     10  C   UNL     1      -4.158  14.854  20.950  0.00  0.00    +0.000 C 
ATOM     11  C   UNL     1      -5.386  14.476  21.754  0.00  0.00    +0.000 C 
ATOM     12  C   UNL     1      -6.240  15.491  22.488  0.00  0.00    +0.000 C 
ATOM     13  C   UNL     1      -6.884  14.788  23.688  0.00  0.00    +0.000 C 
ATOM     14  C   UNL     1      -7.812  13.654  23.248  0.00  0.00    +0.000 C 
ATOM     15  C   UNL     1      -7.265  12.782  22.137  0.00  0.00    +0.000 A 
ATOM     16  C   UNL     1      -7.916  11.568  21.852  0.00  0.00    +0.000 A 
ATOM     17  C   UNL     1      -7.487  10.756  20.806  0.00  0.00    +0.000 A 
ATOM     18  C   UNL     1      -6.433  11.170  20.007  0.00  0.00    +0.000 A 
ATOM     19  C   UNL     1      -5.798  12.382  20.274  0.00  0.00    +0.000 A 
ATOM     20  C   UNL     1      -6.162  13.203  21.362  0.00  0.00    +0.000 A 
ENDBRANCH   5   9
BRANCH   1  30
ATOM     21  O   UNL     1      -0.888   8.166  22.485  0.00  0.00    +0.000 OA
ATOM     22  C   UNL     1      -0.172   8.462  21.541  0.00  0.00    +0.000 C 
ATOM     23  N   UNL     1       0.958   7.754  21.146  0.00  0.00    +0.000 N 
ATOM     24  C   UNL     1       1.450   8.224  19.942  0.00  0.00    +0.000 A 
ATOM     25  C   UNL     1       2.495   7.713  19.206  0.00  0.00    +0.000 A 
ATOM     26  C   UNL     1       2.770   8.321  17.980  0.00  0.00    +0.000 A 
ATOM     27  C   UNL     1       1.999   9.406  17.524  0.00  0.00    +0.000 A 
ATOM     28  C   UNL     1       0.950   9.917  18.296  0.00  0.00    +0.000 A 
ATOM     29  C   UNL     1       0.696   9.317  19.520  0.00  0.00    +0.000 A 
ATOM     30  C   UNL     1      -0.341   9.650  20.570  0.00  0.00    +0.000 C 
ATOM     31  H   UNL     1       1.282   6.932  21.632  0.00  0.00    +0.000 HD
ENDBRANCH   1  30
TORSDOF 2
ENDMDL
MODEL 2
REMARK VINA RESULT:      -7.7      2.432      3.802
REMARK  Name = 
REMARK  2 active torsions:
REMARK  status: ('A' for Active; 'I' for Inactive)
REMARK    1  A    between atoms: C_10  and  C_11
REMARK    2  A    between atoms: C_15  and  C_17
REMARK                            x       y       z     vdW  Elec       q    Type
REMARK                         _______ _______ _______ _____ _____    ______ ____
ROOT
ATOM      1  C   UNL     1      -2.821  12.076  22.853  0.00  0.00    +0.000 C 
ATOM      2  C   UNL     1      -3.369  12.658  21.534  0.00  0.00    +0.000 C 
ATOM      3  C   UNL     1      -3.574  14.173  21.557  0.00  0.00    +0.000 C 
ATOM      4  N   UNL     1      -4.389  14.583  22.692  0.00  0.00    +0.000 N 
ATOM      5  C   UNL     1      -5.049  15.825  22.592  0.00  0.00    +0.000 C 
ATOM      6  O   UNL     1      -4.823  16.657  21.726  0.00  0.00    +0.000 OA
ATOM      7  C   UNL     1      -3.966  14.084  23.999  0.00  0.00    +0.000 C 
ATOM      8  C   UNL     1      -3.668  12.590  24.024  0.00  0.00    +0.000 C 
ENDROOT
BRANCH   5   9
ATOM      9  C   UNL     1      -6.192  15.991  23.539  0.00  0.00    +0.000 C 
ATOM     10  C   UNL     1      -7.486  16.732  23.401  0.00  0.00    +0.000 C 
ATOM     11  C   UNL     1      -7.477  15.241  23.129  0.00  0.00    +0.000 C 
ATOM     12  C   UNL     1      -7.886  14.208  24.161  0.00  0.00    +0.000 C 
ATOM     13  C   UNL     1      -7.125  12.912  23.860  0.00  0.00    +0.000 C 
ATOM     14  C   UNL     1      -7.492  12.346  22.488  0.00  0.00    +0.000 C 
ATOM     15  C   UNL     1      -7.583  13.376  21.381  0.00  0.00    +0.000 A 
ATOM     16  C   UNL     1      -7.647  12.928  20.048  0.00  0.00    +0.000 A 
ATOM     17  C   UNL     1      -7.787  13.831  18.998  0.00  0.00    +0.000 A 
ATOM     18  C   UNL     1      -7.909  15.184  19.271  0.00  0.00    +0.000 A 
ATOM     19  C   UNL     1      -7.866  15.630  20.590  0.00  0.00    +0.000 A 
ATOM     20  C   UNL     1      -7.663  14.754  21.678  0.00  0.00    +0.000 A 
ENDBRANCH   5   9
BRANCH   1  30
ATOM     21  O   UNL     1      -0.865  14.555  23.732  0.00  0.00    +0.000 OA
ATOM     22  C   UNL     1      -0.691  13.615  22.971  0.00  0.00    +0.000 C 
ATOM     23  N   UNL     1       0.116  13.646  21.840  0.00  0.00    +0.000 N 
ATOM     24  C   UNL     1       0.257  12.385  21.289  0.00  0.00    +0.000 A 
ATOM     25  C   UNL     1       1.049  12.019  20.223  0.00  0.00    +0.000 A 
ATOM     26  C   UNL     1       1.078  10.665  19.885  0.00  0.00    +0.000 A 
ATOM     27  C   UNL     1       0.330   9.723  20.616  0.00  0.00    +0.000 A 
ATOM     28  C   UNL     1      -0.477  10.121  21.686  0.00  0.00    +0.000 A 
ATOM     29  C   UNL     1      -0.513  11.470  22.003  0.00  0.00    +0.000 A 
ATOM     30  C   UNL     1      -1.293  12.197  23.077  0.00  0.00    +0.000 C 
ATOM     31  H   UNL     1       0.617  14.472  21.552  0.00  0.00    +0.000 HD
ENDBRANCH   1  30
TORSDOF 2
ENDMDL
MODEL 3
REMARK VINA RESULT:      -7.6      7.701     12.492
REMARK  Name = 
REMARK  2 active torsions:
REMARK  status: ('A' for Active; 'I' for Inactive)
REMARK    1  A    between atoms: C_10  and  C_11
REMARK    2  A    between atoms: C_15  and  C_17
REMARK                            x       y       z     vdW  Elec       q    Type
REMARK                         _______ _______ _______ _____ _____    ______ ____
ROOT
ATOM      1  C   UNL     1       4.118  16.543  19.090  0.00  0.00    +0.000 C 
ATOM      2  C   UNL     1       4.244  15.728  17.787  0.00  0.00    +0.000 C 
ATOM      3  C   UNL     1       5.327  14.650  17.825  0.00  0.00    +0.000 C 
ATOM      4  N   UNL     1       6.613  15.201  18.228  0.00  0.00    +0.000 N 
ATOM      5  C   UNL     1       7.765  14.477  17.859  0.00  0.00    +0.000 C 
ATOM      6  O   UNL     1       7.750  13.338  17.416  0.00  0.00    +0.000 OA
ATOM      7  C   UNL     1       6.614  15.999  19.452  0.00  0.00    +0.000 C 
ATOM      8  C   UNL     1       5.505  17.043  19.511  0.00  0.00    +0.000 C 
ENDROOT
BRANCH   5   9
ATOM      9  C   UNL     1       9.027  15.275  17.886  0.00  0.00    +0.000 C 
ATOM     10  C   UNL     1       9.744  15.950  19.014  0.00  0.00    +0.000 C 
ATOM     11  C   UNL     1      10.213  14.575  18.583  0.00  0.00    +0.000 C 
ATOM     12  C   UNL     1      11.379  14.355  17.639  0.00  0.00    +0.000 C 
ATOM     13  C   UNL     1      11.141  13.039  16.891  0.00  0.00    +0.000 C 
ATOM     14  C   UNL     1      11.104  11.845  17.845  0.00  0.00    +0.000 C 
ATOM     15  C   UNL     1      10.320  12.076  19.121  0.00  0.00    +0.000 A 
ATOM     16  C   UNL     1      10.004  10.966  19.927  0.00  0.00    +0.000 A 
ATOM     17  C   UNL     1       9.333  11.131  21.136  0.00  0.00    +0.000 A 
ATOM     18  C   UNL     1       9.013  12.406  21.572  0.00  0.00    +0.000 A 
ATOM     19  C   UNL     1       9.341  13.509  20.785  0.00  0.00    +0.000 A 
ATOM     20  C   UNL     1       9.964  13.380  19.526  0.00  0.00    +0.000 A 
ENDBRANCH   5   9
BRANCH   1  30
ATOM     21  O   UNL     1       4.870  14.351  21.409  0.00  0.00    +0.000 OA
ATOM     22  C   UNL     1       3.843  14.543  20.776  0.00  0.00    +0.000 C 
ATOM     23  N   UNL     1       2.930  13.554  20.424  0.00  0.00    +0.000 N 
ATOM     24  C   UNL     1       1.784  14.102  19.875  0.00  0.00    +0.000 A 
ATOM     25  C   UNL     1       0.638  13.440  19.495  0.00  0.00    +0.000 A 
ATOM     26  C   UNL     1      -0.421  14.218  19.022  0.00  0.00    +0.000 A 
ATOM     27  C   UNL     1      -0.310  15.619  18.950  0.00  0.00    +0.000 A 
ATOM     28  C   UNL     1       0.870  16.267  19.328  0.00  0.00    +0.000 A 
ATOM     29  C   UNL     1       1.922  15.485  19.780  0.00  0.00    +0.000 A 
ATOM     30  C   UNL     1       3.308  15.886  20.236  0.00  0.00    +0.000 C 
ATOM     31  H   UNL     1       3.062  12.583  20.660  0.00  0.00    +0.000 HD
ENDBRANCH   1  30
TORSDOF 2
ENDMDL
MODEL 4
REMARK VINA RESULT:      -7.4      3.267      5.598
REMARK  Name = 
REMARK  2 active torsions:
REMARK  status: ('A' for Active; 'I' for Inactive)
REMARK    1  A    between atoms: C_10  and  C_11
REMARK    2  A    between atoms: C_15  and  C_17
REMARK                            x       y       z     vdW  Elec       q    Type
REMARK                         _______ _______ _______ _____ _____    ______ ____
ROOT
ATOM      1  C   UNL     1       2.769   6.659  19.530  0.00  0.00    +0.000 C 
ATOM      2  C   UNL     1       2.197   6.947  20.933  0.00  0.00    +0.000 C 
ATOM      3  C   UNL     1       0.917   7.783  20.927  0.00  0.00    +0.000 C 
ATOM      4  N   UNL     1       1.088   9.013  20.167  0.00  0.00    +0.000 N 
ATOM      5  C   UNL     1       0.206  10.074  20.456  0.00  0.00    +0.000 C 
ATOM      6  O   UNL     1      -0.802   9.965  21.139  0.00  0.00    +0.000 OA
ATOM      7  C   UNL     1       1.631   8.863  18.818  0.00  0.00    +0.000 C 
ATOM      8  C   UNL     1       2.865   7.973  18.744  0.00  0.00    +0.000 C 
ENDROOT
BRANCH   5   9
ATOM      9  C   UNL     1       0.687  11.414  20.003  0.00  0.00    +0.000 C 
ATOM     10  C   UNL     1       1.121  11.902  18.656  0.00  0.00    +0.000 C 
ATOM     11  C   UNL     1      -0.302  12.177  19.098  0.00  0.00    +0.000 C 
ATOM     12  C   UNL     1      -0.740  13.491  19.714  0.00  0.00    +0.000 C 
ATOM     13  C   UNL     1      -1.927  13.207  20.642  0.00  0.00    +0.000 C 
ATOM     14  C   UNL     1      -3.125  12.650  19.873  0.00  0.00    +0.000 C 
ATOM     15  C   UNL     1      -2.781  11.601  18.835  0.00  0.00    +0.000 A 
ATOM     16  C   UNL     1      -3.826  10.844  18.273  0.00  0.00    +0.000 A 
ATOM     17  C   UNL     1      -3.570   9.905  17.277  0.00  0.00    +0.000 A 
ATOM     18  C   UNL     1      -2.278   9.747  16.802  0.00  0.00    +0.000 A 
ATOM     19  C   UNL     1      -1.244  10.509  17.343  0.00  0.00    +0.000 A 
ATOM     20  C   UNL     1      -1.452  11.425  18.396  0.00  0.00    +0.000 A 
ENDBRANCH   5   9
BRANCH   1  30
ATOM     21  O   UNL     1       0.529   4.396  20.309  0.00  0.00    +0.000 OA
ATOM     22  C   UNL     1       1.510   4.351  19.581  0.00  0.00    +0.000 C 
ATOM     23  N   UNL     1       2.282   3.217  19.358  0.00  0.00    +0.000 N 
ATOM     24  C   UNL     1       3.206   3.429  18.350  0.00  0.00    +0.000 A 
ATOM     25  C   UNL     1       4.074   2.511  17.802  0.00  0.00    +0.000 A 
ATOM     26  C   UNL     1       4.874   2.944  16.743  0.00  0.00    +0.000 A 
ATOM     27  C   UNL     1       4.783   4.263  16.262  0.00  0.00    +0.000 A 
ATOM     28  C   UNL     1       3.904   5.181  16.845  0.00  0.00    +0.000 A 
ATOM     29  C   UNL     1       3.125   4.747  17.908  0.00  0.00    +0.000 A 
ATOM     30  C   UNL     1       2.111   5.498  18.742  0.00  0.00    +0.000 C 
ATOM     31  H   UNL     1       2.092   2.332  19.803  0.00  0.00    +0.000 HD
ENDBRANCH   1  30
TORSDOF 2
ENDMDL
MODEL 5
REMARK VINA RESULT:      -7.4      4.835      7.512
REMARK  Name = 
REMARK  2 active torsions:
REMARK  status: ('A' for Active; 'I' for Inactive)
REMARK    1  A    between atoms: C_10  and  C_11
REMARK    2  A    between atoms: C_15  and  C_17
REMARK                            x       y       z     vdW  Elec       q    Type
REMARK                         _______ _______ _______ _____ _____    ______ ____
ROOT
ATOM      1  C   UNL     1       0.570  12.405  18.494  0.00  0.00    +0.000 C 
ATOM      2  C   UNL     1       2.004  12.573  19.034  0.00  0.00    +0.000 C 
ATOM      3  C   UNL     1       2.077  13.151  20.447  0.00  0.00    +0.000 C 
ATOM      4  N   UNL     1       1.326  14.395  20.553  0.00  0.00    +0.000 N 
ATOM      5  C   UNL     1       1.676  15.267  21.602  0.00  0.00    +0.000 C 
ATOM      6  O   UNL     1       2.409  14.967  22.533  0.00  0.00    +0.000 OA
ATOM      7  C   UNL     1      -0.051  14.355  20.064  0.00  0.00    +0.000 C 
ATOM      8  C   UNL     1      -0.202  13.716  18.689  0.00  0.00    +0.000 C 
ENDROOT
BRANCH   5   9
ATOM      9  C   UNL     1       1.218  16.676  21.409  0.00  0.00    +0.000 C 
ATOM     10  C   UNL     1       1.784  17.973  21.898  0.00  0.00    +0.000 C 
ATOM     11  C   UNL     1       2.125  17.524  20.492  0.00  0.00    +0.000 C 
ATOM     12  C   UNL     1       1.387  18.019  19.263  0.00  0.00    +0.000 C 
ATOM     13  C   UNL     1       1.460  16.923  18.194  0.00  0.00    +0.000 C 
ATOM     14  C   UNL     1       2.902  16.642  17.770  0.00  0.00    +0.000 C 
ATOM     15  C   UNL     1       3.897  16.574  18.910  0.00  0.00    +0.000 A 
ATOM     16  C   UNL     1       5.182  16.060  18.653  0.00  0.00    +0.000 A 
ATOM     17  C   UNL     1       6.150  16.026  19.653  0.00  0.00    +0.000 A 
ATOM     18  C   UNL     1       5.860  16.546  20.903  0.00  0.00    +0.000 A 
ATOM     19  C   UNL     1       4.595  17.074  21.157  0.00  0.00    +0.000 A 
ATOM     20  C   UNL     1       3.567  17.070  20.190  0.00  0.00    +0.000 A 
ENDBRANCH   5   9
BRANCH   1  30
ATOM     21  O   UNL     1      -1.491  11.815  20.974  0.00  0.00    +0.000 OA
ATOM     22  C   UNL     1      -0.644  11.116  20.439  0.00  0.00    +0.000 C 
ATOM     23  N   UNL     1       0.091  10.126  21.082  0.00  0.00    +0.000 N 
ATOM     24  C   UNL     1       0.834   9.387  20.179  0.00  0.00    +0.000 A 
ATOM     25  C   UNL     1       1.608   8.278  20.440  0.00  0.00    +0.000 A 
ATOM     26  C   UNL     1       2.219   7.655  19.349  0.00  0.00    +0.000 A 
ATOM     27  C   UNL     1       2.038   8.148  18.044  0.00  0.00    +0.000 A 
ATOM     28  C   UNL     1       1.259   9.285  17.806  0.00  0.00    +0.000 A 
ATOM     29  C   UNL     1       0.670   9.906  18.897  0.00  0.00    +0.000 A 
ATOM     30  C   UNL     1      -0.199  11.143  18.961  0.00  0.00    +0.000 C 
ATOM     31  H   UNL     1      -0.016   9.920  22.063  0.00  0.00    +0.000 HD
ENDBRANCH   1  30
TORSDOF 2
ENDMDL
MODEL 6
REMARK VINA RESULT:      -7.4      4.599      6.736
REMARK  Name = 
REMARK  2 active torsions:
REMARK  status: ('A' for Active; 'I' for Inactive)
REMARK    1  A    between atoms: C_10  and  C_11
REMARK    2  A    between atoms: C_15  and  C_17
REMARK                            x       y       z     vdW  Elec       q    Type
REMARK                         _______ _______ _______ _____ _____    ______ ____
ROOT
ATOM      1  C   UNL     1       1.431  12.003  19.700  0.00  0.00    +0.000 C 
ATOM      2  C   UNL     1       1.308  12.971  20.894  0.00  0.00    +0.000 C 
ATOM      3  C   UNL     1       0.094  13.898  20.827  0.00  0.00    +0.000 C 
ATOM      4  N   UNL     1       0.041  14.615  19.561  0.00  0.00    +0.000 N 
ATOM      5  C   UNL     1      -0.704  15.811  19.532  0.00  0.00    +0.000 C 
ATOM      6  O   UNL     1      -1.461  16.172  20.421  0.00  0.00    +0.000 OA
ATOM      7  C   UNL     1       0.152  13.796  18.355  0.00  0.00    +0.000 C 
ATOM      8  C   UNL     1       1.299  12.793  18.392  0.00  0.00    +0.000 C 
ENDROOT
BRANCH   5   9
ATOM      9  C   UNL     1      -0.368  16.717  18.393  0.00  0.00    +0.000 C 
ATOM     10  C   UNL     1      -0.444  18.206  18.262  0.00  0.00    +0.000 C 
ATOM     11  C   UNL     1       0.891  17.581  18.611  0.00  0.00    +0.000 C 
ATOM     12  C   UNL     1       1.965  17.292  17.580  0.00  0.00    +0.000 C 
ATOM     13  C   UNL     1       2.790  16.100  18.078  0.00  0.00    +0.000 C 
ATOM     14  C   UNL     1       3.503  16.415  19.393  0.00  0.00    +0.000 C 
ATOM     15  C   UNL     1       2.659  17.156  20.411  0.00  0.00    +0.000 A 
ATOM     16  C   UNL     1       3.130  17.252  21.733  0.00  0.00    +0.000 A 
ATOM     17  C   UNL     1       2.419  17.967  22.694  0.00  0.00    +0.000 A 
ATOM     18  C   UNL     1       1.258  18.630  22.331  0.00  0.00    +0.000 A 
ATOM     19  C   UNL     1       0.798  18.553  21.018  0.00  0.00    +0.000 A 
ATOM     20  C   UNL     1       1.455  17.788  20.031  0.00  0.00    +0.000 A 
ENDBRANCH   5   9
BRANCH   1  30
ATOM     21  O   UNL     1      -0.527  10.716  21.992  0.00  0.00    +0.000 OA
ATOM     22  C   UNL     1       0.202  10.195  21.162  0.00  0.00    +0.000 C 
ATOM     23  N   UNL     1       0.860   8.982  21.332  0.00  0.00    +0.000 N 
ATOM     24  C   UNL     1       1.459   8.567  20.156  0.00  0.00    +0.000 A 
ATOM     25  C   UNL     1       2.119   7.380  19.925  0.00  0.00    +0.000 A 
ATOM     26  C   UNL     1       2.588   7.153  18.630  0.00  0.00    +0.000 A 
ATOM     27  C   UNL     1       2.384   8.104  17.612  0.00  0.00    +0.000 A 
ATOM     28  C   UNL     1       1.724   9.308  17.875  0.00  0.00    +0.000 A 
ATOM     29  C   UNL     1       1.276   9.532  19.168  0.00  0.00    +0.000 A 
ATOM     30  C   UNL     1       0.556  10.726  19.757  0.00  0.00    +0.000 C 
ATOM     31  H   UNL     1       0.791   8.439  22.179  0.00  0.00    +0.000 HD
ENDBRANCH   1  30
TORSDOF 2
ENDMDL
MODEL 7
REMARK VINA RESULT:      -7.4      2.194      8.295
REMARK  Name = 
REMARK  2 active torsions:
REMARK  status: ('A' for Active; 'I' for Inactive)
REMARK    1  A    between atoms: C_10  and  C_11
REMARK    2  A    between atoms: C_15  and  C_17
REMARK                            x       y       z     vdW  Elec       q    Type
REMARK                         _______ _______ _______ _____ _____    ______ ____
ROOT
ATOM      1  C   UNL     1      -4.962  13.048  19.913  0.00  0.00    +0.000 C 
ATOM      2  C   UNL     1      -5.011  12.215  18.616  0.00  0.00    +0.000 C 
ATOM      3  C   UNL     1      -3.926  11.143  18.519  0.00  0.00    +0.000 C 
ATOM      4  N   UNL     1      -2.600  11.706  18.732  0.00  0.00    +0.000 N 
ATOM      5  C   UNL     1      -1.506  10.982  18.218  0.00  0.00    +0.000 C 
ATOM      6  O   UNL     1      -1.574   9.837  17.797  0.00  0.00    +0.000 OA
ATOM      7  C   UNL     1      -2.436  12.522  19.934  0.00  0.00    +0.000 C 
ATOM      8  C   UNL     1      -3.533  13.561  20.131  0.00  0.00    +0.000 C 
ENDROOT
BRANCH   5   9
ATOM      9  C   UNL     1      -0.257  11.786  18.059  0.00  0.00    +0.000 C 
ATOM     10  C   UNL     1       0.404  12.772  18.972  0.00  0.00    +0.000 C 
ATOM     11  C   UNL     1       0.910  11.344  18.967  0.00  0.00    +0.000 C 
ATOM     12  C   UNL     1       2.116  10.894  18.164  0.00  0.00    +0.000 C 
ATOM     13  C   UNL     1       1.926   9.414  17.815  0.00  0.00    +0.000 C 
ATOM     14  C   UNL     1       1.869   8.540  19.068  0.00  0.00    +0.000 C 
ATOM     15  C   UNL     1       1.032   9.105  20.198  0.00  0.00    +0.000 A 
ATOM     16  C   UNL     1       0.701   8.262  21.276  0.00  0.00    +0.000 A 
ATOM     17  C   UNL     1      -0.020   8.746  22.364  0.00  0.00    +0.000 A 
ATOM     18  C   UNL     1      -0.376  10.084  22.407  0.00  0.00    +0.000 A 
ATOM     19  C   UNL     1      -0.033  10.926  21.350  0.00  0.00    +0.000 A 
ATOM     20  C   UNL     1       0.642  10.461  20.202  0.00  0.00    +0.000 A 
ENDBRANCH   5   9
BRANCH   1  30
ATOM     21  O   UNL     1      -7.222  10.712  20.343  0.00  0.00    +0.000 OA
ATOM     22  C   UNL     1      -6.975  11.729  20.974  0.00  0.00    +0.000 C 
ATOM     23  N   UNL     1      -7.917  12.484  21.665  0.00  0.00    +0.000 N 
ATOM     24  C   UNL     1      -7.311  13.466  22.428  0.00  0.00    +0.000 A 
ATOM     25  C   UNL     1      -7.915  14.339  23.305  0.00  0.00    +0.000 A 
ATOM     26  C   UNL     1      -7.084  15.206  24.017  0.00  0.00    +0.000 A 
ATOM     27  C   UNL     1      -5.688  15.174  23.840  0.00  0.00    +0.000 A 
ATOM     28  C   UNL     1      -5.099  14.288  22.933  0.00  0.00    +0.000 A 
ATOM     29  C   UNL     1      -5.934  13.442  22.218  0.00  0.00    +0.000 A 
ATOM     30  C   UNL     1      -5.601  12.404  21.169  0.00  0.00    +0.000 C 
ATOM     31  H   UNL     1      -8.897  12.247  21.684  0.00  0.00    +0.000 HD
ENDBRANCH   1  30
TORSDOF 2
ENDMDL
MODEL 8
REMARK VINA RESULT:      -7.2      1.838      3.849
REMARK  Name = 
REMARK  2 active torsions:
REMARK  status: ('A' for Active; 'I' for Inactive)
REMARK    1  A    between atoms: C_10  and  C_11
REMARK    2  A    between atoms: C_15  and  C_17
REMARK                            x       y       z     vdW  Elec       q    Type
REMARK                         _______ _______ _______ _____ _____    ______ ____
ROOT
ATOM      1  C   UNL     1      -0.322  11.189  20.798  0.00  0.00    +0.000 C 
ATOM      2  C   UNL     1      -0.543  11.572  22.275  0.00  0.00    +0.000 C 
ATOM      3  C   UNL     1      -2.013  11.670  22.683  0.00  0.00    +0.000 C 
ATOM      4  N   UNL     1      -2.755  12.553  21.794  0.00  0.00    +0.000 N 
ATOM      5  C   UNL     1      -3.949  13.110  22.293  0.00  0.00    +0.000 C 
ATOM      6  O   UNL     1      -4.500  12.748  23.323  0.00  0.00    +0.000 OA
ATOM      7  C   UNL     1      -2.616  12.286  20.363  0.00  0.00    +0.000 C 
ATOM      8  C   UNL     1      -1.175  12.100  19.906  0.00  0.00    +0.000 C 
ENDROOT
BRANCH   5   9
ATOM      9  C   UNL     1      -4.419  14.320  21.554  0.00  0.00    +0.000 C 
ATOM     10  C   UNL     1      -5.206  15.509  22.010  0.00  0.00    +0.000 C 
ATOM     11  C   UNL     1      -3.697  15.628  21.941  0.00  0.00    +0.000 C 
ATOM     12  C   UNL     1      -2.967  16.244  20.764  0.00  0.00    +0.000 C 
ATOM     13  C   UNL     1      -1.581  15.595  20.675  0.00  0.00    +0.000 C 
ATOM     14  C   UNL     1      -0.743  15.878  21.922  0.00  0.00    +0.000 C 
ATOM     15  C   UNL     1      -1.492  15.750  23.232  0.00  0.00    +0.000 A 
ATOM     16  C   UNL     1      -0.753  15.725  24.430  0.00  0.00    +0.000 A 
ATOM     17  C   UNL     1      -1.396  15.663  25.663  0.00  0.00    +0.000 A 
ATOM     18  C   UNL     1      -2.780  15.672  25.714  0.00  0.00    +0.000 A 
ATOM     19  C   UNL     1      -3.515  15.715  24.531  0.00  0.00    +0.000 A 
ATOM     20  C   UNL     1      -2.903  15.716  23.260  0.00  0.00    +0.000 A 
ENDBRANCH   5   9
BRANCH   1  30
ATOM     21  O   UNL     1      -0.838   8.499  22.599  0.00  0.00    +0.000 OA
ATOM     22  C   UNL     1      -0.158   8.690  21.603  0.00  0.00    +0.000 C 
ATOM     23  N   UNL     1       1.023   8.018  21.305  0.00  0.00    +0.000 N 
ATOM     24  C   UNL     1       1.463   8.318  20.029  0.00  0.00    +0.000 A 
ATOM     25  C   UNL     1       2.541   7.776  19.365  0.00  0.00    +0.000 A 
ATOM     26  C   UNL     1       2.754   8.191  18.049  0.00  0.00    +0.000 A 
ATOM     27  C   UNL     1       1.892   9.120  17.437  0.00  0.00    +0.000 A 
ATOM     28  C   UNL     1       0.812   9.668  18.137  0.00  0.00    +0.000 A 
ATOM     29  C   UNL     1       0.619   9.262  19.449  0.00  0.00    +0.000 A 
ATOM     30  C   UNL     1      -0.433   9.682  20.453  0.00  0.00    +0.000 C 
ATOM     31  H   UNL     1       1.418   7.318  21.913  0.00  0.00    +0.000 HD
ENDBRANCH   1  30
TORSDOF 2
ENDMDL
MODEL 9
REMARK VINA RESULT:      -7.2      4.517     11.103
REMARK  Name = 
REMARK  2 active torsions:
REMARK  status: ('A' for Active; 'I' for Inactive)
REMARK    1  A    between atoms: C_10  and  C_11
REMARK    2  A    between atoms: C_15  and  C_17
REMARK                            x       y       z     vdW  Elec       q    Type
REMARK                         _______ _______ _______ _____ _____    ______ ____
ROOT
ATOM      1  C   UNL     1       1.677   8.401  19.450  0.00  0.00    +0.000 C 
ATOM      2  C   UNL     1       2.189   8.106  18.025  0.00  0.00    +0.000 C 
ATOM      3  C   UNL     1       1.795   6.729  17.491  0.00  0.00    +0.000 C 
ATOM      4  N   UNL     1       2.176   5.671  18.416  0.00  0.00    +0.000 N 
ATOM      5  C   UNL     1       2.321   4.374  17.882  0.00  0.00    +0.000 C 
ATOM      6  O   UNL     1       1.955   4.045  16.763  0.00  0.00    +0.000 OA
ATOM      7  C   UNL     1       1.748   5.846  19.802  0.00  0.00    +0.000 C 
ATOM      8  C   UNL     1       2.041   7.229  20.370  0.00  0.00    +0.000 C 
ENDROOT
BRANCH   5   9
ATOM      9  C   UNL     1       3.126   3.446  18.732  0.00  0.00    +0.000 C 
ATOM     10  C   UNL     1       3.833   2.169  18.399  0.00  0.00    +0.000 C 
ATOM     11  C   UNL     1       4.639   3.452  18.429  0.00  0.00    +0.000 C 
ATOM     12  C   UNL     1       5.458   3.888  19.628  0.00  0.00    +0.000 C 
ATOM     13  C   UNL     1       5.528   5.419  19.621  0.00  0.00    +0.000 C 
ATOM     14  C   UNL     1       6.240   5.947  18.375  0.00  0.00    +0.000 C 
ATOM     15  C   UNL     1       5.851   5.258  17.083  0.00  0.00    +0.000 A 
ATOM     16  C   UNL     1       6.243   5.844  15.864  0.00  0.00    +0.000 A 
ATOM     17  C   UNL     1       5.958   5.223  14.650  0.00  0.00    +0.000 A 
ATOM     18  C   UNL     1       5.321   3.993  14.645  0.00  0.00    +0.000 A 
ATOM     19  C   UNL     1       4.948   3.401  15.850  0.00  0.00    +0.000 A 
ATOM     20  C   UNL     1       5.163   4.026  17.097  0.00  0.00    +0.000 A 
ENDBRANCH   5   9
BRANCH   1  30
ATOM     21  O   UNL     1      -0.338  10.038  17.449  0.00  0.00    +0.000 OA
ATOM     22  C   UNL     1      -0.224  10.040  18.666  0.00  0.00    +0.000 C 
ATOM     23  N   UNL     1      -0.481  11.132  19.487  0.00  0.00    +0.000 N 
ATOM     24  C   UNL     1      -0.442  10.776  20.823  0.00  0.00    +0.000 A 
ATOM     25  C   UNL     1      -0.732  11.569  21.911  0.00  0.00    +0.000 A 
ATOM     26  C   UNL     1      -0.686  10.966  23.170  0.00  0.00    +0.000 A 
ATOM     27  C   UNL     1      -0.363   9.604  23.305  0.00  0.00    +0.000 A 
ATOM     28  C   UNL     1      -0.059   8.822  22.186  0.00  0.00    +0.000 A 
ATOM     29  C   UNL     1      -0.090   9.433  20.942  0.00  0.00    +0.000 A 
ATOM     30  C   UNL     1       0.204   8.865  19.570  0.00  0.00    +0.000 C 
ATOM     31  H   UNL     1      -0.772  12.027  19.126  0.00  0.00    +0.000 HD
ENDBRANCH   1  30
TORSDOF 2
ENDMDL
