MODEL 1
REMARK VINA RESULT:      -7.5      0.000      0.000
REMARK  Name = 
REMARK  10 active torsions:
REMARK  status: ('A' for Active; 'I' for Inactive)
REMARK    1  A    between atoms: C_1  and  N_2
REMARK    2  A    between atoms: C_6  and  C_7
REMARK    3  A    between atoms: C_7  and  C_8
REMARK    4  A    between atoms: C_8  and  C_9
REMARK    5  A    between atoms: C_13  and  N_14
REMARK    6  A    between atoms: N_14  and  C_15
REMARK    7  A    between atoms: N_14  and  C_19
REMARK    8  A    between atoms: C_15  and  C_16
REMARK    9  A    between atoms: C_16  and  C_17
REMARK   10  A    between atoms: C_19  and  C_20
REMARK                            x       y       z     vdW  Elec       q    Type
REMARK                         _______ _______ _______ _____ _____    ______ ____
ROOT
ATOM      1  C   UNL     1       5.254   5.875  18.076  0.00  0.00    +0.000 A 
ATOM      2  C   UNL     1       4.404   6.893  17.617  0.00  0.00    +0.000 A 
ATOM      3  C   UNL     1       3.010   6.760  17.671  0.00  0.00    +0.000 A 
ATOM      4  C   UNL     1       2.422   5.583  18.154  0.00  0.00    +0.000 A 
ATOM      5  C   UNL     1       3.210   4.546  18.642  0.00  0.00    +0.000 A 
ATOM      6  C   UNL     1       4.601   4.750  18.630  0.00  0.00    +0.000 A 
ENDROOT
BRANCH   1   7
ATOM      7  C   UNL     1       6.888   5.863  17.938  0.00  0.00    +0.000 C 
ATOM      8  C   UNL     1       7.599   7.194  17.558  0.00  0.00    +0.000 C 
ATOM      9  O   UNL     1       8.316   7.233  18.812  0.00  0.00    +0.000 OA
ATOM     10  C   UNL     1       7.662   6.036  19.272  0.00  0.00    +0.000 C 
BRANCH   7  11
ATOM     11  C   UNL     1       7.271   4.589  17.139  0.00  0.00    +0.000 C 
BRANCH  11  17
ATOM     12  C   UNL     1       4.989   3.097  15.511  0.00  0.00    +0.000 C 
ATOM     13  N   UNL     1       6.042   3.934  14.991  0.00  0.00    +0.000 N 
ATOM     14  C   UNL     1       6.165   4.295  13.685  0.00  0.00    +0.000 A 
ATOM     15  N   UNL     1       7.196   5.088  13.544  0.00  0.00    +0.000 NA
ATOM     16  N   UNL     1       7.746   5.268  14.787  0.00  0.00    +0.000 NA
ATOM     17  C   UNL     1       7.062   4.566  15.662  0.00  0.00    +0.000 A 
ENDBRANCH  11  17
ENDBRANCH   7  11
ENDBRANCH   1   7
BRANCH   5  18
ATOM     18  N   UNL     1       2.728   3.312  19.070  0.00  0.00    +0.000 N 
BRANCH  18  19
ATOM     19  C   UNL     1       2.747   2.120  18.201  0.00  0.00    +0.000 C 
BRANCH  19  20
ATOM     20  C   UNL     1       3.889   1.169  18.547  0.00  0.00    +0.000 C 
BRANCH  20  21
ATOM     21  C   UNL     1       4.767   1.761  19.620  0.00  0.00    +0.000 C 
ATOM     22  O   UNL     1       5.339   1.107  20.488  0.00  0.00    +0.000 OA
ENDBRANCH  20  21
ENDBRANCH  19  20
ENDBRANCH  18  19
BRANCH  18  23
ATOM     23  C   UNL     1       1.578   3.380  20.026  0.00  0.00    +0.000 C 
BRANCH  23  24
ATOM     24  C   UNL     1       1.899   3.182  21.519  0.00  0.00    +0.000 C 
ATOM     25  F   UNL     1       0.846   2.759  22.250  0.00  0.00    +0.000 F 
ATOM     26  F   UNL     1       2.882   2.258  21.662  0.00  0.00    +0.000 F 
ATOM     27  F   UNL     1       2.349   4.330  22.075  0.00  0.00    +0.000 F 
ENDBRANCH  23  24
ENDBRANCH  18  23
ENDBRANCH   5  18
TORSDOF 9
ENDMDL
MODEL 2
REMARK VINA RESULT:      -7.4      4.646      6.468
REMARK  Name = 
REMARK  10 active torsions:
REMARK  status: ('A' for Active; 'I' for Inactive)
REMARK    1  A    between atoms: C_1  and  N_2
REMARK    2  A    between atoms: C_6  and  C_7
REMARK    3  A    between atoms: C_7  and  C_8
REMARK    4  A    between atoms: C_8  and  C_9
REMARK    5  A    between atoms: C_13  and  N_14
REMARK    6  A    between atoms: N_14  and  C_15
REMARK    7  A    between atoms: N_14  and  C_19
REMARK    8  A    between atoms: C_15  and  C_16
REMARK    9  A    between atoms: C_16  and  C_17
REMARK   10  A    between atoms: C_19  and  C_20
REMARK                            x       y       z     vdW  Elec       q    Type
REMARK                         _______ _______ _______ _____ _____    ______ ____
ROOT
ATOM      1  C   UNL     1       2.907   5.919  18.715  0.00  0.00    +0.000 A 
ATOM      2  C   UNL     1       3.392   6.472  17.519  0.00  0.00    +0.000 A 
ATOM      3  C   UNL     1       3.228   7.832  17.225  0.00  0.00    +0.000 A 
ATOM      4  C   UNL     1       2.540   8.678  18.105  0.00  0.00    +0.000 A 
ATOM      5  C   UNL     1       2.054   8.194  19.316  0.00  0.00    +0.000 A 
ATOM      6  C   UNL     1       2.299   6.840  19.600  0.00  0.00    +0.000 A 
ENDROOT
BRANCH   1   7
ATOM      7  C   UNL     1       2.919   4.326  19.103  0.00  0.00    +0.000 C 
ATOM      8  C   UNL     1       2.593   3.929  20.571  0.00  0.00    +0.000 C 
ATOM      9  O   UNL     1       1.415   3.195  20.170  0.00  0.00    +0.000 OA
ATOM     10  C   UNL     1       1.604   3.563  18.791  0.00  0.00    +0.000 C 
BRANCH   7  11
ATOM     11  C   UNL     1       4.186   3.707  18.454  0.00  0.00    +0.000 C 
BRANCH  11  17
ATOM     12  C   UNL     1       6.483   4.374  16.365  0.00  0.00    +0.000 C 
ATOM     13  N   UNL     1       6.477   4.632  17.784  0.00  0.00    +0.000 N 
ATOM     14  C   UNL     1       7.454   5.307  18.448  0.00  0.00    +0.000 A 
ATOM     15  N   UNL     1       7.135   5.409  19.713  0.00  0.00    +0.000 NA
ATOM     16  N   UNL     1       5.913   4.808  19.876  0.00  0.00    +0.000 NA
ATOM     17  C   UNL     1       5.517   4.328  18.719  0.00  0.00    +0.000 A 
ENDBRANCH  11  17
ENDBRANCH   7  11
ENDBRANCH   1   7
BRANCH   5  18
ATOM     18  N   UNL     1       1.294   8.931  20.220  0.00  0.00    +0.000 N 
BRANCH  18  19
ATOM     19  C   UNL     1       1.011   8.445  21.584  0.00  0.00    +0.000 C 
BRANCH  19  20
ATOM     20  C   UNL     1      -0.444   8.665  21.988  0.00  0.00    +0.000 C 
BRANCH  20  21
ATOM     21  C   UNL     1      -0.531   9.583  23.181  0.00  0.00    +0.000 C 
ATOM     22  O   UNL     1      -0.146  10.748  23.189  0.00  0.00    +0.000 OA
ENDBRANCH  20  21
ENDBRANCH  19  20
ENDBRANCH  18  19
BRANCH  18  23
ATOM     23  C   UNL     1       0.208   9.760  19.606  0.00  0.00    +0.000 C 
BRANCH  23  24
ATOM     24  C   UNL     1       0.346  11.289  19.722  0.00  0.00    +0.000 C 
ATOM     25  F   UNL     1       1.434  11.686  20.415  0.00  0.00    +0.000 F 
ATOM     26  F   UNL     1       0.434  11.840  18.486  0.00  0.00    +0.000 F 
ATOM     27  F   UNL     1      -0.741  11.829  20.321  0.00  0.00    +0.000 F 
ENDBRANCH  23  24
ENDBRANCH  18  23
ENDBRANCH   5  18
TORSDOF 9
ENDMDL
MODEL 3
REMARK VINA RESULT:      -7.4      5.685      7.994
REMARK  Name = 
REMARK  10 active torsions:
REMARK  status: ('A' for Active; 'I' for Inactive)
REMARK    1  A    between atoms: C_1  and  N_2
REMARK    2  A    between atoms: C_6  and  C_7
REMARK    3  A    between atoms: C_7  and  C_8
REMARK    4  A    between atoms: C_8  and  C_9
REMARK    5  A    between atoms: C_13  and  N_14
REMARK    6  A    between atoms: N_14  and  C_15
REMARK    7  A    between atoms: N_14  and  C_19
REMARK    8  A    between atoms: C_15  and  C_16
REMARK    9  A    between atoms: C_16  and  C_17
REMARK   10  A    between atoms: C_19  and  C_20
REMARK                            x       y       z     vdW  Elec       q    Type
REMARK                         _______ _______ _______ _____ _____    ______ ____
ROOT
ATOM      1  C   UNL     1       1.239   8.909  19.919  0.00  0.00    +0.000 A 
ATOM      2  C   UNL     1       1.554   9.402  18.643  0.00  0.00    +0.000 A 
ATOM      3  C   UNL     1       2.265   8.628  17.716  0.00  0.00    +0.000 A 
ATOM      4  C   UNL     1       2.716   7.344  18.052  0.00  0.00    +0.000 A 
ATOM      5  C   UNL     1       2.418   6.792  19.293  0.00  0.00    +0.000 A 
ATOM      6  C   UNL     1       1.646   7.577  20.166  0.00  0.00    +0.000 A 
ENDROOT
BRANCH   1   7
ATOM      7  C   UNL     1       0.536   9.767  21.126  0.00  0.00    +0.000 C 
ATOM      8  C   UNL     1      -0.609   9.091  21.933  0.00  0.00    +0.000 C 
ATOM      9  O   UNL     1       0.149   9.147  23.162  0.00  0.00    +0.000 OA
ATOM     10  C   UNL     1       1.282   9.723  22.486  0.00  0.00    +0.000 C 
BRANCH   7  11
ATOM     11  C   UNL     1       0.285  11.199  20.582  0.00  0.00    +0.000 C 
BRANCH  11  17
ATOM     12  C   UNL     1      -1.222  12.681  22.952  0.00  0.00    +0.000 C 
ATOM     13  N   UNL     1      -1.714  12.412  21.623  0.00  0.00    +0.000 N 
ATOM     14  C   UNL     1      -2.908  12.850  21.142  0.00  0.00    +0.000 A 
ATOM     15  N   UNL     1      -3.043  12.476  19.895  0.00  0.00    +0.000 NA
ATOM     16  N   UNL     1      -1.902  11.799  19.547  0.00  0.00    +0.000 NA
ATOM     17  C   UNL     1      -1.103  11.747  20.588  0.00  0.00    +0.000 A 
ENDBRANCH  11  17
ENDBRANCH   7  11
ENDBRANCH   1   7
BRANCH   5  18
ATOM     18  N   UNL     1       2.883   5.561  19.750  0.00  0.00    +0.000 N 
BRANCH  18  19
ATOM     19  C   UNL     1       2.368   4.938  20.984  0.00  0.00    +0.000 C 
BRANCH  19  20
ATOM     20  C   UNL     1       1.379   3.812  20.696  0.00  0.00    +0.000 C 
BRANCH  20  21
ATOM     21  C   UNL     1       1.708   2.593  21.521  0.00  0.00    +0.000 C 
ATOM     22  O   UNL     1       2.808   2.367  22.016  0.00  0.00    +0.000 OA
ENDBRANCH  20  21
ENDBRANCH  19  20
ENDBRANCH  18  19
BRANCH  18  23
ATOM     23  C   UNL     1       4.322   5.279  19.451  0.00  0.00    +0.000 C 
BRANCH  23  24
ATOM     24  C   UNL     1       4.632   4.009  18.638  0.00  0.00    +0.000 C 
ATOM     25  F   UNL     1       3.691   3.710  17.717  0.00  0.00    +0.000 F 
ATOM     26  F   UNL     1       5.807   4.158  17.977  0.00  0.00    +0.000 F 
ATOM     27  F   UNL     1       4.767   2.935  19.450  0.00  0.00    +0.000 F 
ENDBRANCH  23  24
ENDBRANCH  18  23
ENDBRANCH   5  18
TORSDOF 9
ENDMDL
MODEL 4
REMARK VINA RESULT:      -7.3      5.857      8.064
REMARK  Name = 
REMARK  10 active torsions:
REMARK  status: ('A' for Active; 'I' for Inactive)
REMARK    1  A    between atoms: C_1  and  N_2
REMARK    2  A    between atoms: C_6  and  C_7
REMARK    3  A    between atoms: C_7  and  C_8
REMARK    4  A    between atoms: C_8  and  C_9
REMARK    5  A    between atoms: C_13  and  N_14
REMARK    6  A    between atoms: N_14  and  C_15
REMARK    7  A    between atoms: N_14  and  C_19
REMARK    8  A    between atoms: C_15  and  C_16
REMARK    9  A    between atoms: C_16  and  C_17
REMARK   10  A    between atoms: C_19  and  C_20
REMARK                            x       y       z     vdW  Elec       q    Type
REMARK                         _______ _______ _______ _____ _____    ______ ____
ROOT
ATOM      1  C   UNL     1       1.158   8.963  19.962  0.00  0.00    +0.000 A 
ATOM      2  C   UNL     1       1.541   9.505  18.725  0.00  0.00    +0.000 A 
ATOM      3  C   UNL     1       2.311   8.771  17.813  0.00  0.00    +0.000 A 
ATOM      4  C   UNL     1       2.752   7.478  18.126  0.00  0.00    +0.000 A 
ATOM      5  C   UNL     1       2.387   6.877  19.327  0.00  0.00    +0.000 A 
ATOM      6  C   UNL     1       1.560   7.625  20.182  0.00  0.00    +0.000 A 
ENDROOT
BRANCH   1   7
ATOM      7  C   UNL     1       0.379   9.771  21.157  0.00  0.00    +0.000 C 
ATOM      8  C   UNL     1      -0.548   8.958  22.105  0.00  0.00    +0.000 C 
ATOM      9  O   UNL     1       0.264   9.270  23.259  0.00  0.00    +0.000 OA
ATOM     10  C   UNL     1       1.209   9.994  22.450  0.00  0.00    +0.000 C 
BRANCH   7  11
ATOM     11  C   UNL     1      -0.191  11.073  20.533  0.00  0.00    +0.000 C 
BRANCH  11  17
ATOM     12  C   UNL     1      -2.311  12.158  22.634  0.00  0.00    +0.000 C 
ATOM     13  N   UNL     1      -1.061  12.764  22.245  0.00  0.00    +0.000 N 
ATOM     14  C   UNL     1      -0.543  13.889  22.809  0.00  0.00    +0.000 A 
ATOM     15  N   UNL     1       0.617  14.157  22.267  0.00  0.00    +0.000 NA
ATOM     16  N   UNL     1       0.874  13.176  21.344  0.00  0.00    +0.000 NA
ATOM     17  C   UNL     1      -0.139  12.340  21.319  0.00  0.00    +0.000 A 
ENDBRANCH  11  17
ENDBRANCH   7  11
ENDBRANCH   1   7
BRANCH   5  18
ATOM     18  N   UNL     1       2.835   5.633  19.763  0.00  0.00    +0.000 N 
BRANCH  18  19
ATOM     19  C   UNL     1       2.302   4.992  20.980  0.00  0.00    +0.000 C 
BRANCH  19  20
ATOM     20  C   UNL     1       1.315   3.873  20.661  0.00  0.00    +0.000 C 
BRANCH  20  21
ATOM     21  C   UNL     1       1.804   2.559  21.215  0.00  0.00    +0.000 C 
ATOM     22  O   UNL     1       2.710   2.446  22.036  0.00  0.00    +0.000 OA
ENDBRANCH  20  21
ENDBRANCH  19  20
ENDBRANCH  18  19
BRANCH  18  23
ATOM     23  C   UNL     1       4.275   5.342  19.473  0.00  0.00    +0.000 C 
BRANCH  23  24
ATOM     24  C   UNL     1       4.573   4.149  18.547  0.00  0.00    +0.000 C 
ATOM     25  F   UNL     1       4.760   2.984  19.202  0.00  0.00    +0.000 F 
ATOM     26  F   UNL     1       3.541   3.963  17.686  0.00  0.00    +0.000 F 
ATOM     27  F   UNL     1       5.677   4.380  17.799  0.00  0.00    +0.000 F 
ENDBRANCH  23  24
ENDBRANCH  18  23
ENDBRANCH   5  18
TORSDOF 9
ENDMDL
MODEL 5
REMARK VINA RESULT:      -7.3      5.569      7.686
REMARK  Name = 
REMARK  10 active torsions:
REMARK  status: ('A' for Active; 'I' for Inactive)
REMARK    1  A    between atoms: C_1  and  N_2
REMARK    2  A    between atoms: C_6  and  C_7
REMARK    3  A    between atoms: C_7  and  C_8
REMARK    4  A    between atoms: C_8  and  C_9
REMARK    5  A    between atoms: C_13  and  N_14
REMARK    6  A    between atoms: N_14  and  C_15
REMARK    7  A    between atoms: N_14  and  C_19
REMARK    8  A    between atoms: C_15  and  C_16
REMARK    9  A    between atoms: C_16  and  C_17
REMARK   10  A    between atoms: C_19  and  C_20
REMARK                            x       y       z     vdW  Elec       q    Type
REMARK                         _______ _______ _______ _____ _____    ______ ____
ROOT
ATOM      1  C   UNL     1       1.203   8.905  19.470  0.00  0.00    +0.000 A 
ATOM      2  C   UNL     1       1.752   9.373  18.265  0.00  0.00    +0.000 A 
ATOM      3  C   UNL     1       2.644   8.593  17.518  0.00  0.00    +0.000 A 
ATOM      4  C   UNL     1       3.043   7.329  17.972  0.00  0.00    +0.000 A 
ATOM      5  C   UNL     1       2.519   6.801  19.147  0.00  0.00    +0.000 A 
ATOM      6  C   UNL     1       1.577   7.590  19.830  0.00  0.00    +0.000 A 
ENDROOT
BRANCH   1   7
ATOM      7  C   UNL     1       0.262   9.777  20.491  0.00  0.00    +0.000 C 
ATOM      8  C   UNL     1      -0.162   9.119  21.835  0.00  0.00    +0.000 C 
ATOM      9  O   UNL     1       0.541  10.116  22.610  0.00  0.00    +0.000 OA
ATOM     10  C   UNL     1       1.030  10.758  21.418  0.00  0.00    +0.000 C 
BRANCH   7  11
ATOM     11  C   UNL     1      -0.847  10.444  19.635  0.00  0.00    +0.000 C 
BRANCH  11  17
ATOM     12  C   UNL     1      -2.271  12.596  21.486  0.00  0.00    +0.000 C 
ATOM     13  N   UNL     1      -1.455  12.834  20.321  0.00  0.00    +0.000 N 
ATOM     14  C   UNL     1      -1.088  14.066  19.879  0.00  0.00    +0.000 A 
ATOM     15  N   UNL     1      -0.318  13.943  18.827  0.00  0.00    +0.000 NA
ATOM     16  N   UNL     1      -0.160  12.602  18.591  0.00  0.00    +0.000 NA
ATOM     17  C   UNL     1      -0.853  11.928  19.481  0.00  0.00    +0.000 A 
ENDBRANCH  11  17
ENDBRANCH   7  11
ENDBRANCH   1   7
BRANCH   5  18
ATOM     18  N   UNL     1       2.907   5.593  19.721  0.00  0.00    +0.000 N 
BRANCH  18  19
ATOM     19  C   UNL     1       2.260   5.058  20.934  0.00  0.00    +0.000 C 
BRANCH  19  20
ATOM     20  C   UNL     1       1.274   3.937  20.618  0.00  0.00    +0.000 C 
BRANCH  20  21
ATOM     21  C   UNL     1       1.631   2.686  21.380  0.00  0.00    +0.000 C 
ATOM     22  O   UNL     1       2.614   2.573  22.107  0.00  0.00    +0.000 OA
ENDBRANCH  20  21
ENDBRANCH  19  20
ENDBRANCH  18  19
BRANCH  18  23
ATOM     23  C   UNL     1       4.362   5.268  19.584  0.00  0.00    +0.000 C 
BRANCH  23  24
ATOM     24  C   UNL     1       4.720   3.952  18.869  0.00  0.00    +0.000 C 
ATOM     25  F   UNL     1       3.907   3.658  17.832  0.00  0.00    +0.000 F 
ATOM     26  F   UNL     1       5.984   4.021  18.381  0.00  0.00    +0.000 F 
ATOM     27  F   UNL     1       4.683   2.908  19.728  0.00  0.00    +0.000 F 
ENDBRANCH  23  24
ENDBRANCH  18  23
ENDBRANCH   5  18
TORSDOF 9
ENDMDL
MODEL 6
REMARK VINA RESULT:      -7.3      4.535      6.530
REMARK  Name = 
REMARK  10 active torsions:
REMARK  status: ('A' for Active; 'I' for Inactive)
REMARK    1  A    between atoms: C_1  and  N_2
REMARK    2  A    between atoms: C_6  and  C_7
REMARK    3  A    between atoms: C_7  and  C_8
REMARK    4  A    between atoms: C_8  and  C_9
REMARK    5  A    between atoms: C_13  and  N_14
REMARK    6  A    between atoms: N_14  and  C_15
REMARK    7  A    between atoms: N_14  and  C_19
REMARK    8  A    between atoms: C_15  and  C_16
REMARK    9  A    between atoms: C_16  and  C_17
REMARK   10  A    between atoms: C_19  and  C_20
REMARK                            x       y       z     vdW  Elec       q    Type
REMARK                         _______ _______ _______ _____ _____    ______ ____
ROOT
ATOM      1  C   UNL     1       2.626   6.226  19.052  0.00  0.00    +0.000 A 
ATOM      2  C   UNL     1       3.206   6.686  17.858  0.00  0.00    +0.000 A 
ATOM      3  C   UNL     1       3.051   8.013  17.435  0.00  0.00    +0.000 A 
ATOM      4  C   UNL     1       2.278   8.915  18.177  0.00  0.00    +0.000 A 
ATOM      5  C   UNL     1       1.695   8.526  19.379  0.00  0.00    +0.000 A 
ATOM      6  C   UNL     1       1.931   7.206  19.798  0.00  0.00    +0.000 A 
ENDROOT
BRANCH   1   7
ATOM      7  C   UNL     1       2.625   4.673  19.574  0.00  0.00    +0.000 C 
ATOM      8  C   UNL     1       2.544   4.417  21.107  0.00  0.00    +0.000 C 
ATOM      9  O   UNL     1       1.277   3.733  20.982  0.00  0.00    +0.000 OA
ATOM     10  C   UNL     1       1.238   3.975  19.563  0.00  0.00    +0.000 C 
BRANCH   7  11
ATOM     11  C   UNL     1       3.724   3.921  18.777  0.00  0.00    +0.000 C 
BRANCH  11  17
ATOM     12  C   UNL     1       5.819   4.241  16.411  0.00  0.00    +0.000 C 
ATOM     13  N   UNL     1       6.007   4.553  17.807  0.00  0.00    +0.000 N 
ATOM     14  C   UNL     1       7.123   5.136  18.321  0.00  0.00    +0.000 A 
ATOM     15  N   UNL     1       6.967   5.322  19.608  0.00  0.00    +0.000 NA
ATOM     16  N   UNL     1       5.715   4.871  19.937  0.00  0.00    +0.000 NA
ATOM     17  C   UNL     1       5.136   4.396  18.858  0.00  0.00    +0.000 A 
ENDBRANCH  11  17
ENDBRANCH   7  11
ENDBRANCH   1   7
BRANCH   5  18
ATOM     18  N   UNL     1       0.849   9.321  20.148  0.00  0.00    +0.000 N 
BRANCH  18  19
ATOM     19  C   UNL     1       0.274  10.579  19.633  0.00  0.00    +0.000 C 
BRANCH  19  20
ATOM     20  C   UNL     1      -1.104  10.375  19.011  0.00  0.00    +0.000 C 
BRANCH  20  21
ATOM     21  C   UNL     1      -1.836  11.689  18.899  0.00  0.00    +0.000 C 
ATOM     22  O   UNL     1      -2.305  12.305  19.852  0.00  0.00    +0.000 OA
ENDBRANCH  20  21
ENDBRANCH  19  20
ENDBRANCH  18  19
BRANCH  18  23
ATOM     23  C   UNL     1       1.134   9.310  21.617  0.00  0.00    +0.000 C 
BRANCH  23  24
ATOM     24  C   UNL     1      -0.079   9.356  22.564  0.00  0.00    +0.000 C 
ATOM     25  F   UNL     1      -0.796  10.496  22.476  0.00  0.00    +0.000 F 
ATOM     26  F   UNL     1      -0.923   8.330  22.285  0.00  0.00    +0.000 F 
ATOM     27  F   UNL     1       0.306   9.213  23.853  0.00  0.00    +0.000 F 
ENDBRANCH  23  24
ENDBRANCH  18  23
ENDBRANCH   5  18
TORSDOF 9
ENDMDL
MODEL 7
REMARK VINA RESULT:      -7.2      4.866      6.747
REMARK  Name = 
REMARK  10 active torsions:
REMARK  status: ('A' for Active; 'I' for Inactive)
REMARK    1  A    between atoms: C_1  and  N_2
REMARK    2  A    between atoms: C_6  and  C_7
REMARK    3  A    between atoms: C_7  and  C_8
REMARK    4  A    between atoms: C_8  and  C_9
REMARK    5  A    between atoms: C_13  and  N_14
REMARK    6  A    between atoms: N_14  and  C_15
REMARK    7  A    between atoms: N_14  and  C_19
REMARK    8  A    between atoms: C_15  and  C_16
REMARK    9  A    between atoms: C_16  and  C_17
REMARK   10  A    between atoms: C_19  and  C_20
REMARK                            x       y       z     vdW  Elec       q    Type
REMARK                         _______ _______ _______ _____ _____    ______ ____
ROOT
ATOM      1  C   UNL     1       2.418   6.246  19.154  0.00  0.00    +0.000 A 
ATOM      2  C   UNL     1       2.848   6.722  17.905  0.00  0.00    +0.000 A 
ATOM      3  C   UNL     1       2.705   8.070  17.549  0.00  0.00    +0.000 A 
ATOM      4  C   UNL     1       2.093   8.980  18.421  0.00  0.00    +0.000 A 
ATOM      5  C   UNL     1       1.666   8.575  19.681  0.00  0.00    +0.000 A 
ATOM      6  C   UNL     1       1.889   7.229  20.022  0.00  0.00    +0.000 A 
ENDROOT
BRANCH   1   7
ATOM      7  C   UNL     1       2.409   4.676  19.625  0.00  0.00    +0.000 C 
ATOM      8  C   UNL     1       1.517   4.281  20.836  0.00  0.00    +0.000 C 
ATOM      9  O   UNL     1       0.703   3.406  20.023  0.00  0.00    +0.000 OA
ATOM     10  C   UNL     1       1.437   3.758  18.836  0.00  0.00    +0.000 C 
BRANCH   7  11
ATOM     11  C   UNL     1       3.883   4.191  19.627  0.00  0.00    +0.000 C 
BRANCH  11  17
ATOM     12  C   UNL     1       6.702   5.556  19.105  0.00  0.00    +0.000 C 
ATOM     13  N   UNL     1       5.899   4.802  18.174  0.00  0.00    +0.000 N 
ATOM     14  C   UNL     1       6.287   4.476  16.912  0.00  0.00    +0.000 A 
ATOM     15  N   UNL     1       5.356   3.757  16.338  0.00  0.00    +0.000 NA
ATOM     16  N   UNL     1       4.348   3.591  17.252  0.00  0.00    +0.000 NA
ATOM     17  C   UNL     1       4.664   4.228  18.357  0.00  0.00    +0.000 A 
ENDBRANCH  11  17
ENDBRANCH   7  11
ENDBRANCH   1   7
BRANCH   5  18
ATOM     18  N   UNL     1       0.980   9.380  20.587  0.00  0.00    +0.000 N 
BRANCH  18  19
ATOM     19  C   UNL     1       0.016   8.824  21.556  0.00  0.00    +0.000 C 
BRANCH  19  20
ATOM     20  C   UNL     1       0.150   9.460  22.936  0.00  0.00    +0.000 C 
BRANCH  20  21
ATOM     21  C   UNL     1      -1.013  10.379  23.212  0.00  0.00    +0.000 C 
ATOM     22  O   UNL     1      -0.935  11.603  23.254  0.00  0.00    +0.000 OA
ENDBRANCH  20  21
ENDBRANCH  19  20
ENDBRANCH  18  19
BRANCH  18  23
ATOM     23  C   UNL     1       0.658  10.756  20.092  0.00  0.00    +0.000 C 
BRANCH  23  24
ATOM     24  C   UNL     1      -0.653  10.925  19.303  0.00  0.00    +0.000 C 
ATOM     25  F   UNL     1      -1.108   9.780  18.751  0.00  0.00    +0.000 F 
ATOM     26  F   UNL     1      -1.628  11.390  20.123  0.00  0.00    +0.000 F 
ATOM     27  F   UNL     1      -0.506  11.830  18.308  0.00  0.00    +0.000 F 
ENDBRANCH  23  24
ENDBRANCH  18  23
ENDBRANCH   5  18
TORSDOF 9
ENDMDL
MODEL 8
REMARK VINA RESULT:      -7.2      5.321      7.517
REMARK  Name = 
REMARK  10 active torsions:
REMARK  status: ('A' for Active; 'I' for Inactive)
REMARK    1  A    between atoms: C_1  and  N_2
REMARK    2  A    between atoms: C_6  and  C_7
REMARK    3  A    between atoms: C_7  and  C_8
REMARK    4  A    between atoms: C_8  and  C_9
REMARK    5  A    between atoms: C_13  and  N_14
REMARK    6  A    between atoms: N_14  and  C_15
REMARK    7  A    between atoms: N_14  and  C_19
REMARK    8  A    between atoms: C_15  and  C_16
REMARK    9  A    between atoms: C_16  and  C_17
REMARK   10  A    between atoms: C_19  and  C_20
REMARK                            x       y       z     vdW  Elec       q    Type
REMARK                         _______ _______ _______ _____ _____    ______ ____
ROOT
ATOM      1  C   UNL     1       1.483   8.589  19.792  0.00  0.00    +0.000 A 
ATOM      2  C   UNL     1       1.967   9.049  18.556  0.00  0.00    +0.000 A 
ATOM      3  C   UNL     1       2.686   8.210  17.695  0.00  0.00    +0.000 A 
ATOM      4  C   UNL     1       2.975   6.888  18.060  0.00  0.00    +0.000 A 
ATOM      5  C   UNL     1       2.506   6.367  19.261  0.00  0.00    +0.000 A 
ATOM      6  C   UNL     1       1.733   7.224  20.063  0.00  0.00    +0.000 A 
ENDROOT
BRANCH   1   7
ATOM      7  C   UNL     1       0.753   9.511  20.933  0.00  0.00    +0.000 C 
ATOM      8  C   UNL     1      -0.525   8.949  21.619  0.00  0.00    +0.000 C 
ATOM      9  O   UNL     1       0.112   8.930  22.916  0.00  0.00    +0.000 OA
ATOM     10  C   UNL     1       1.356   9.393  22.359  0.00  0.00    +0.000 C 
BRANCH   7  11
ATOM     11  C   UNL     1       0.697  10.961  20.383  0.00  0.00    +0.000 C 
BRANCH  11  17
ATOM     12  C   UNL     1      -1.355  10.442  18.015  0.00  0.00    +0.000 C 
ATOM     13  N   UNL     1      -1.510  11.332  19.140  0.00  0.00    +0.000 N 
ATOM     14  C   UNL     1      -2.638  12.041  19.411  0.00  0.00    +0.000 A 
ATOM     15  N   UNL     1      -2.476  12.719  20.518  0.00  0.00    +0.000 NA
ATOM     16  N   UNL     1      -1.222  12.431  20.994  0.00  0.00    +0.000 NA
ATOM     17  C   UNL     1      -0.631  11.604  20.161  0.00  0.00    +0.000 A 
ENDBRANCH  11  17
ENDBRANCH   7  11
ENDBRANCH   1   7
BRANCH   5  18
ATOM     18  N   UNL     1       2.803   5.097  19.748  0.00  0.00    +0.000 N 
BRANCH  18  19
ATOM     19  C   UNL     1       2.311   4.625  21.057  0.00  0.00    +0.000 C 
BRANCH  19  20
ATOM     20  C   UNL     1       1.674   3.241  20.972  0.00  0.00    +0.000 C 
BRANCH  20  21
ATOM     21  C   UNL     1       0.751   3.153  19.783  0.00  0.00    +0.000 C 
ATOM     22  O   UNL     1       0.830   2.299  18.905  0.00  0.00    +0.000 OA
ENDBRANCH  20  21
ENDBRANCH  19  20
ENDBRANCH  18  19
BRANCH  18  23
ATOM     23  C   UNL     1       4.142   4.562  19.345  0.00  0.00    +0.000 C 
BRANCH  23  24
ATOM     24  C   UNL     1       4.170   3.553  18.182  0.00  0.00    +0.000 C 
ATOM     25  F   UNL     1       5.261   3.661  17.394  0.00  0.00    +0.000 F 
ATOM     26  F   UNL     1       4.151   2.287  18.668  0.00  0.00    +0.000 F 
ATOM     27  F   UNL     1       3.080   3.692  17.393  0.00  0.00    +0.000 F 
ENDBRANCH  23  24
ENDBRANCH  18  23
ENDBRANCH   5  18
TORSDOF 9
ENDMDL
MODEL 9
REMARK VINA RESULT:      -7.2      4.380      6.335
REMARK  Name = 
REMARK  10 active torsions:
REMARK  status: ('A' for Active; 'I' for Inactive)
REMARK    1  A    between atoms: C_1  and  N_2
REMARK    2  A    between atoms: C_6  and  C_7
REMARK    3  A    between atoms: C_7  and  C_8
REMARK    4  A    between atoms: C_8  and  C_9
REMARK    5  A    between atoms: C_13  and  N_14
REMARK    6  A    between atoms: N_14  and  C_15
REMARK    7  A    between atoms: N_14  and  C_19
REMARK    8  A    between atoms: C_15  and  C_16
REMARK    9  A    between atoms: C_16  and  C_17
REMARK   10  A    between atoms: C_19  and  C_20
REMARK                            x       y       z     vdW  Elec       q    Type
REMARK                         _______ _______ _______ _____ _____    ______ ____
ROOT
ATOM      1  C   UNL     1       2.575   6.483  19.154  0.00  0.00    +0.000 A 
ATOM      2  C   UNL     1       3.156   6.929  17.956  0.00  0.00    +0.000 A 
ATOM      3  C   UNL     1       2.960   8.237  17.493  0.00  0.00    +0.000 A 
ATOM      4  C   UNL     1       2.144   9.131  18.198  0.00  0.00    +0.000 A 
ATOM      5  C   UNL     1       1.557   8.756  19.402  0.00  0.00    +0.000 A 
ATOM      6  C   UNL     1       1.835   7.457  19.863  0.00  0.00    +0.000 A 
ENDROOT
BRANCH   1   7
ATOM      7  C   UNL     1       2.623   4.946  19.722  0.00  0.00    +0.000 C 
ATOM      8  C   UNL     1       1.804   4.613  21.001  0.00  0.00    +0.000 C 
ATOM      9  O   UNL     1       0.967   3.675  20.289  0.00  0.00    +0.000 OA
ATOM     10  C   UNL     1       1.630   3.963  19.045  0.00  0.00    +0.000 C 
BRANCH   7  11
ATOM     11  C   UNL     1       4.105   4.487  19.676  0.00  0.00    +0.000 C 
BRANCH  11  17
ATOM     12  C   UNL     1       6.956   5.643  18.885  0.00  0.00    +0.000 C 
ATOM     13  N   UNL     1       6.049   4.882  18.059  0.00  0.00    +0.000 N 
ATOM     14  C   UNL     1       6.332   4.454  16.800  0.00  0.00    +0.000 A 
ATOM     15  N   UNL     1       5.325   3.758  16.336  0.00  0.00    +0.000 NA
ATOM     16  N   UNL     1       4.373   3.711  17.322  0.00  0.00    +0.000 NA
ATOM     17  C   UNL     1       4.799   4.397  18.359  0.00  0.00    +0.000 A 
ENDBRANCH  11  17
ENDBRANCH   7  11
ENDBRANCH   1   7
BRANCH   5  18
ATOM     18  N   UNL     1       0.672   9.541  20.136  0.00  0.00    +0.000 N 
BRANCH  18  19
ATOM     19  C   UNL     1      -0.006  10.713  19.550  0.00  0.00    +0.000 C 
BRANCH  19  20
ATOM     20  C   UNL     1      -1.407  10.381  19.045  0.00  0.00    +0.000 C 
BRANCH  20  21
ATOM     21  C   UNL     1      -1.395  10.157  17.554  0.00  0.00    +0.000 C 
ATOM     22  O   UNL     1      -2.358   9.759  16.905  0.00  0.00    +0.000 OA
ENDBRANCH  20  21
ENDBRANCH  19  20
ENDBRANCH  18  19
BRANCH  18  23
ATOM     23  C   UNL     1       0.989   9.656  21.594  0.00  0.00    +0.000 C 
BRANCH  23  24
ATOM     24  C   UNL     1      -0.172   9.439  22.581  0.00  0.00    +0.000 C 
ATOM     25  F   UNL     1      -1.041  10.470  22.635  0.00  0.00    +0.000 F 
ATOM     26  F   UNL     1      -0.880   8.337  22.226  0.00  0.00    +0.000 F 
ATOM     27  F   UNL     1       0.291   9.227  23.835  0.00  0.00    +0.000 F 
ENDBRANCH  23  24
ENDBRANCH  18  23
ENDBRANCH   5  18
TORSDOF 9
ENDMDL
