MODEL 1
REMARK VINA RESULT:      -8.9      0.000      0.000
REMARK  Name = 
REMARK  6 active torsions:
REMARK  status: ('A' for Active; 'I' for Inactive)
REMARK    1  A    between atoms: C_1  and  C_2
REMARK    2  A    between atoms: C_4  and  C_5
REMARK    3  A    between atoms: N_7  and  C_8
REMARK    4  A    between atoms: C_8  and  C_9
REMARK    5  A    between atoms: C_12  and  C_13
REMARK    6  A    between atoms: C_24  and  C_25
REMARK                            x       y       z     vdW  Elec       q    Type
REMARK                         _______ _______ _______ _____ _____    ______ ____
ROOT
ATOM      1  C   UNL     1      -1.061  11.376  18.657  0.00  0.00    +0.000 C 
ATOM      2  O   UNL     1      -0.222  12.238  18.437  0.00  0.00    +0.000 OA
ATOM      3  N   UNL     1      -0.897  10.406  19.625  0.00  0.00    +0.000 N 
ATOM      4  H   UNL     1      -1.491   9.588  19.632  0.00  0.00    +0.000 HD
ENDROOT
BRANCH   1   8
ATOM      5  C   UNL     1      -3.574  10.207  14.497  0.00  0.00    +0.000 C 
ATOM      6  C   UNL     1      -3.539  10.776  15.885  0.00  0.00    +0.000 A 
ATOM      7  C   UNL     1      -2.340  10.833  16.592  0.00  0.00    +0.000 A 
ATOM      8  C   UNL     1      -2.321  11.370  17.890  0.00  0.00    +0.000 A 
ATOM      9  C   UNL     1      -3.532  11.815  18.454  0.00  0.00    +0.000 A 
ATOM     10  C   UNL     1      -4.063  12.393  19.649  0.00  0.00    +0.000 A 
ATOM     11  C   UNL     1      -3.446  12.813  20.929  0.00  0.00    +0.000 C 
ATOM     12  N   UNL     1      -5.389  12.588  19.547  0.00  0.00    +0.000 NA
ATOM     13  O   UNL     1      -5.746  12.152  18.290  0.00  0.00    +0.000 OA
ATOM     14  C   UNL     1      -4.646  11.706  17.626  0.00  0.00    +0.000 A 
ATOM     15  N   UNL     1      -4.717  11.212  16.377  0.00  0.00    +0.000 NA
ENDBRANCH   1   8
BRANCH   3  16
ATOM     16  C   UNL     1       0.354  10.331  20.348  0.00  0.00    +0.000 C 
BRANCH  16  17
ATOM     17  C   UNL     1       1.159   9.126  19.961  0.00  0.00    +0.000 A 
ATOM     18  C   UNL     1       1.367   8.069  20.862  0.00  0.00    +0.000 A 
ATOM     19  C   UNL     1       2.130   6.953  20.496  0.00  0.00    +0.000 A 
ATOM     20  C   UNL     1       2.661   6.876  19.208  0.00  0.00    +0.000 A 
ATOM     21  C   UNL     1       2.344   7.880  18.285  0.00  0.00    +0.000 A 
ATOM     22  C   UNL     1       1.680   9.034  18.671  0.00  0.00    +0.000 A 
BRANCH  20  23
ATOM     23  C   UNL     1       3.547   5.738  18.820  0.00  0.00    +0.000 C 
ATOM     24  O   UNL     1       4.617   5.993  18.284  0.00  0.00    +0.000 OA
ATOM     25  N   UNL     1       3.114   4.435  19.096  0.00  0.00    +0.000 N 
ATOM     26  C   UNL     1       4.067   3.336  18.993  0.00  0.00    +0.000 C 
ATOM     27  C   UNL     1       3.584   2.325  17.961  0.00  0.00    +0.000 C 
ATOM     28  C   UNL     1       2.174   1.834  18.291  0.00  0.00    +0.000 C 
ATOM     29  C   UNL     1       1.212   2.999  18.399  0.00  0.00    +0.000 C 
ATOM     30  C   UNL     1       1.727   4.033  19.373  0.00  0.00    +0.000 C 
ENDBRANCH  20  23
ENDBRANCH  16  17
ENDBRANCH   3  16
TORSDOF 4
ENDMDL
MODEL 2
REMARK VINA RESULT:      -8.3      1.678      2.527
REMARK  Name = 
REMARK  6 active torsions:
REMARK  status: ('A' for Active; 'I' for Inactive)
REMARK    1  A    between atoms: C_1  and  C_2
REMARK    2  A    between atoms: C_4  and  C_5
REMARK    3  A    between atoms: N_7  and  C_8
REMARK    4  A    between atoms: C_8  and  C_9
REMARK    5  A    between atoms: C_12  and  C_13
REMARK    6  A    between atoms: C_24  and  C_25
REMARK                            x       y       z     vdW  Elec       q    Type
REMARK                         _______ _______ _______ _____ _____    ______ ____
ROOT
ATOM      1  C   UNL     1      -1.161  11.325  19.052  0.00  0.00    +0.000 C 
ATOM      2  O   UNL     1      -0.560  12.345  19.357  0.00  0.00    +0.000 OA
ATOM      3  N   UNL     1      -0.743  10.069  19.443  0.00  0.00    +0.000 N 
ATOM      4  H   UNL     1      -1.121   9.244  18.997  0.00  0.00    +0.000 HD
ENDROOT
BRANCH   1   8
ATOM      5  C   UNL     1      -3.640  10.445  14.802  0.00  0.00    +0.000 C 
ATOM      6  C   UNL     1      -3.605  10.962  16.210  0.00  0.00    +0.000 A 
ATOM      7  C   UNL     1      -2.421  10.927  16.943  0.00  0.00    +0.000 A 
ATOM      8  C   UNL     1      -2.402  11.416  18.260  0.00  0.00    +0.000 A 
ATOM      9  C   UNL     1      -3.598  11.908  18.815  0.00  0.00    +0.000 A 
ATOM     10  C   UNL     1      -4.124  12.471  20.019  0.00  0.00    +0.000 A 
ATOM     11  C   UNL     1      -3.513  12.811  21.327  0.00  0.00    +0.000 C 
ATOM     12  N   UNL     1      -5.434  12.743  19.897  0.00  0.00    +0.000 NA
ATOM     13  O   UNL     1      -5.786  12.373  18.619  0.00  0.00    +0.000 OA
ATOM     14  C   UNL     1      -4.699  11.890  17.961  0.00  0.00    +0.000 A 
ATOM     15  N   UNL     1      -4.769  11.445  16.694  0.00  0.00    +0.000 NA
ENDBRANCH   1   8
BRANCH   3  16
ATOM     16  C   UNL     1       0.508   9.929  20.156  0.00  0.00    +0.000 C 
BRANCH  16  17
ATOM     17  C   UNL     1       1.334   8.791  19.632  0.00  0.00    +0.000 A 
ATOM     18  C   UNL     1       1.888   8.826  18.342  0.00  0.00    +0.000 A 
ATOM     19  C   UNL     1       2.647   7.755  17.857  0.00  0.00    +0.000 A 
ATOM     20  C   UNL     1       2.884   6.652  18.680  0.00  0.00    +0.000 A 
ATOM     21  C   UNL     1       2.425   6.685  20.002  0.00  0.00    +0.000 A 
ATOM     22  C   UNL     1       1.587   7.692  20.452  0.00  0.00    +0.000 A 
BRANCH  20  23
ATOM     23  C   UNL     1       3.618   5.461  18.158  0.00  0.00    +0.000 C 
ATOM     24  O   UNL     1       3.257   4.351  18.524  0.00  0.00    +0.000 OA
ATOM     25  N   UNL     1       4.679   5.672  17.268  0.00  0.00    +0.000 N 
ATOM     26  C   UNL     1       5.220   4.537  16.530  0.00  0.00    +0.000 C 
ATOM     27  C   UNL     1       6.699   4.363  16.856  0.00  0.00    +0.000 C 
ATOM     28  C   UNL     1       7.476   5.650  16.581  0.00  0.00    +0.000 C 
ATOM     29  C   UNL     1       6.884   6.810  17.355  0.00  0.00    +0.000 C 
ATOM     30  C   UNL     1       5.403   6.938  17.083  0.00  0.00    +0.000 C 
ENDBRANCH  20  23
ENDBRANCH  16  17
ENDBRANCH   3  16
TORSDOF 4
ENDMDL
MODEL 3
REMARK VINA RESULT:      -8.3      1.119      2.733
REMARK  Name = 
REMARK  6 active torsions:
REMARK  status: ('A' for Active; 'I' for Inactive)
REMARK    1  A    between atoms: C_1  and  C_2
REMARK    2  A    between atoms: C_4  and  C_5
REMARK    3  A    between atoms: N_7  and  C_8
REMARK    4  A    between atoms: C_8  and  C_9
REMARK    5  A    between atoms: C_12  and  C_13
REMARK    6  A    between atoms: C_24  and  C_25
REMARK                            x       y       z     vdW  Elec       q    Type
REMARK                         _______ _______ _______ _____ _____    ______ ____
ROOT
ATOM      1  C   UNL     1      -1.416  12.353  19.378  0.00  0.00    +0.000 C 
ATOM      2  O   UNL     1      -0.898  13.448  19.207  0.00  0.00    +0.000 OA
ATOM      3  N   UNL     1      -0.683  11.185  19.445  0.00  0.00    +0.000 N 
ATOM      4  H   UNL     1      -1.144  10.289  19.362  0.00  0.00    +0.000 HD
ENDROOT
BRANCH   1   8
ATOM      5  C   UNL     1      -5.484  13.092  22.187  0.00  0.00    +0.000 C 
ATOM      6  C   UNL     1      -4.846  12.640  20.906  0.00  0.00    +0.000 A 
ATOM      7  C   UNL     1      -3.461  12.682  20.757  0.00  0.00    +0.000 A 
ATOM      8  C   UNL     1      -2.877  12.254  19.553  0.00  0.00    +0.000 A 
ATOM      9  C   UNL     1      -3.718  11.816  18.513  0.00  0.00    +0.000 A 
ATOM     10  C   UNL     1      -3.673  11.321  17.172  0.00  0.00    +0.000 A 
ATOM     11  C   UNL     1      -2.559  11.028  16.239  0.00  0.00    +0.000 C 
ATOM     12  N   UNL     1      -4.908  11.074  16.704  0.00  0.00    +0.000 NA
ATOM     13  O   UNL     1      -5.777  11.392  17.724  0.00  0.00    +0.000 OA
ATOM     14  C   UNL     1      -5.078  11.820  18.810  0.00  0.00    +0.000 A 
ATOM     15  N   UNL     1      -5.687  12.207  19.944  0.00  0.00    +0.000 NA
ENDBRANCH   1   8
BRANCH   3  16
ATOM     16  C   UNL     1       0.743  11.228  19.205  0.00  0.00    +0.000 C 
BRANCH  16  17
ATOM     17  C   UNL     1       1.340   9.856  19.097  0.00  0.00    +0.000 A 
ATOM     18  C   UNL     1       1.380   8.990  20.202  0.00  0.00    +0.000 A 
ATOM     19  C   UNL     1       1.950   7.715  20.095  0.00  0.00    +0.000 A 
ATOM     20  C   UNL     1       2.454   7.289  18.866  0.00  0.00    +0.000 A 
ATOM     21  C   UNL     1       2.300   8.118  17.748  0.00  0.00    +0.000 A 
ATOM     22  C   UNL     1       1.833   9.417  17.870  0.00  0.00    +0.000 A 
BRANCH  20  23
ATOM     23  C   UNL     1       3.144   5.970  18.745  0.00  0.00    +0.000 C 
ATOM     24  O   UNL     1       3.976   5.829  17.861  0.00  0.00    +0.000 OA
ATOM     25  N   UNL     1       2.808   4.960  19.656  0.00  0.00    +0.000 N 
ATOM     26  C   UNL     1       3.654   3.776  19.744  0.00  0.00    +0.000 C 
ATOM     27  C   UNL     1       2.839   2.529  19.426  0.00  0.00    +0.000 C 
ATOM     28  C   UNL     1       1.614   2.428  20.334  0.00  0.00    +0.000 C 
ATOM     29  C   UNL     1       0.761   3.675  20.225  0.00  0.00    +0.000 C 
ATOM     30  C   UNL     1       1.587   4.915  20.475  0.00  0.00    +0.000 C 
ENDBRANCH  20  23
ENDBRANCH  16  17
ENDBRANCH   3  16
TORSDOF 4
ENDMDL
MODEL 4
REMARK VINA RESULT:      -8.2      2.240      2.983
REMARK  Name = 
REMARK  6 active torsions:
REMARK  status: ('A' for Active; 'I' for Inactive)
REMARK    1  A    between atoms: C_1  and  C_2
REMARK    2  A    between atoms: C_4  and  C_5
REMARK    3  A    between atoms: N_7  and  C_8
REMARK    4  A    between atoms: C_8  and  C_9
REMARK    5  A    between atoms: C_12  and  C_13
REMARK    6  A    between atoms: C_24  and  C_25
REMARK                            x       y       z     vdW  Elec       q    Type
REMARK                         _______ _______ _______ _____ _____    ______ ____
ROOT
ATOM      1  C   UNL     1       0.040  10.520  20.110  0.00  0.00    +0.000 C 
ATOM      2  O   UNL     1       1.054  11.201  20.050  0.00  0.00    +0.000 OA
ATOM      3  N   UNL     1       0.014   9.273  20.701  0.00  0.00    +0.000 N 
ATOM      4  H   UNL     1      -0.765   8.649  20.540  0.00  0.00    +0.000 HD
ENDROOT
BRANCH   1   8
ATOM      5  C   UNL     1      -3.409  10.554  16.492  0.00  0.00    +0.000 C 
ATOM      6  C   UNL     1      -2.906  11.035  17.822  0.00  0.00    +0.000 A 
ATOM      7  C   UNL     1      -1.685  10.583  18.317  0.00  0.00    +0.000 A 
ATOM      8  C   UNL     1      -1.226  11.044  19.563  0.00  0.00    +0.000 A 
ATOM      9  C   UNL     1      -2.034  11.936  20.293  0.00  0.00    +0.000 A 
ATOM     10  C   UNL     1      -2.070  12.660  21.525  0.00  0.00    +0.000 A 
ATOM     11  C   UNL     1      -1.124  12.769  22.661  0.00  0.00    +0.000 C 
ATOM     12  N   UNL     1      -3.198  13.382  21.632  0.00  0.00    +0.000 NA
ATOM     13  O   UNL     1      -3.912  13.152  20.477  0.00  0.00    +0.000 OA
ATOM     14  C   UNL     1      -3.222  12.306  19.667  0.00  0.00    +0.000 A 
ATOM     15  N   UNL     1      -3.702  11.906  18.476  0.00  0.00    +0.000 NA
ENDBRANCH   1   8
BRANCH   3  16
ATOM     16  C   UNL     1       1.248   8.692  21.183  0.00  0.00    +0.000 C 
BRANCH  16  17
ATOM     17  C   UNL     1       1.799   7.668  20.235  0.00  0.00    +0.000 A 
ATOM     18  C   UNL     1       1.932   6.322  20.613  0.00  0.00    +0.000 A 
ATOM     19  C   UNL     1       2.458   5.375  19.726  0.00  0.00    +0.000 A 
ATOM     20  C   UNL     1       2.823   5.769  18.437  0.00  0.00    +0.000 A 
ATOM     21  C   UNL     1       2.573   7.088  18.038  0.00  0.00    +0.000 A 
ATOM     22  C   UNL     1       2.152   8.050  18.942  0.00  0.00    +0.000 A 
BRANCH  20  23
ATOM     23  C   UNL     1       3.465   4.799  17.501  0.00  0.00    +0.000 C 
ATOM     24  O   UNL     1       3.007   3.667  17.435  0.00  0.00    +0.000 OA
ATOM     25  N   UNL     1       4.557   5.236  16.739  0.00  0.00    +0.000 N 
ATOM     26  C   UNL     1       5.016   4.414  15.626  0.00  0.00    +0.000 C 
ATOM     27  C   UNL     1       6.468   4.009  15.843  0.00  0.00    +0.000 C 
ATOM     28  C   UNL     1       7.354   5.236  16.056  0.00  0.00    +0.000 C 
ATOM     29  C   UNL     1       6.846   6.071  17.212  0.00  0.00    +0.000 C 
ATOM     30  C   UNL     1       5.387   6.415  17.027  0.00  0.00    +0.000 C 
ENDBRANCH  20  23
ENDBRANCH  16  17
ENDBRANCH   3  16
TORSDOF 4
ENDMDL
MODEL 5
REMARK VINA RESULT:      -8.2      2.897      4.424
REMARK  Name = 
REMARK  6 active torsions:
REMARK  status: ('A' for Active; 'I' for Inactive)
REMARK    1  A    between atoms: C_1  and  C_2
REMARK    2  A    between atoms: C_4  and  C_5
REMARK    3  A    between atoms: N_7  and  C_8
REMARK    4  A    between atoms: C_8  and  C_9
REMARK    5  A    between atoms: C_12  and  C_13
REMARK    6  A    between atoms: C_24  and  C_25
REMARK                            x       y       z     vdW  Elec       q    Type
REMARK                         _______ _______ _______ _____ _____    ______ ____
ROOT
ATOM      1  C   UNL     1      -0.453  12.357  19.823  0.00  0.00    +0.000 C 
ATOM      2  O   UNL     1      -0.842  12.857  18.777  0.00  0.00    +0.000 OA
ATOM      3  N   UNL     1       0.383  11.259  19.858  0.00  0.00    +0.000 N 
ATOM      4  H   UNL     1       0.504  10.738  20.716  0.00  0.00    +0.000 HD
ENDROOT
BRANCH   1   8
ATOM      5  C   UNL     1      -3.541  12.449  23.753  0.00  0.00    +0.000 C 
ATOM      6  C   UNL     1      -2.337  12.972  23.025  0.00  0.00    +0.000 A 
ATOM      7  C   UNL     1      -1.985  12.450  21.782  0.00  0.00    +0.000 A 
ATOM      8  C   UNL     1      -0.855  12.951  21.111  0.00  0.00    +0.000 A 
ATOM      9  C   UNL     1      -0.091  13.956  21.733  0.00  0.00    +0.000 A 
ATOM     10  C   UNL     1       1.074  14.760  21.532  0.00  0.00    +0.000 A 
ATOM     11  C   UNL     1       2.053  14.862  20.424  0.00  0.00    +0.000 C 
ATOM     12  N   UNL     1       1.282  15.583  22.574  0.00  0.00    +0.000 NA
ATOM     13  O   UNL     1       0.261  15.340  23.466  0.00  0.00    +0.000 OA
ATOM     14  C   UNL     1      -0.570  14.385  22.968  0.00  0.00    +0.000 A 
ATOM     15  N   UNL     1      -1.646  13.951  23.647  0.00  0.00    +0.000 NA
ENDBRANCH   1   8
BRANCH   3  16
ATOM     16  C   UNL     1       0.741  10.602  18.620  0.00  0.00    +0.000 C 
BRANCH  16  17
ATOM     17  C   UNL     1       1.422   9.285  18.855  0.00  0.00    +0.000 A 
ATOM     18  C   UNL     1       1.332   8.630  20.094  0.00  0.00    +0.000 A 
ATOM     19  C   UNL     1       1.980   7.407  20.308  0.00  0.00    +0.000 A 
ATOM     20  C   UNL     1       2.696   6.817  19.266  0.00  0.00    +0.000 A 
ATOM     21  C   UNL     1       2.676   7.424  18.004  0.00  0.00    +0.000 A 
ATOM     22  C   UNL     1       2.127   8.682  17.815  0.00  0.00    +0.000 A 
BRANCH  20  23
ATOM     23  C   UNL     1       3.466   5.557  19.492  0.00  0.00    +0.000 C 
ATOM     24  O   UNL     1       4.687   5.618  19.504  0.00  0.00    +0.000 OA
ATOM     25  N   UNL     1       2.750   4.368  19.688  0.00  0.00    +0.000 N 
ATOM     26  C   UNL     1       3.454   3.194  20.189  0.00  0.00    +0.000 C 
ATOM     27  C   UNL     1       3.340   2.053  19.186  0.00  0.00    +0.000 C 
ATOM     28  C   UNL     1       1.876   1.752  18.862  0.00  0.00    +0.000 C 
ATOM     29  C   UNL     1       1.173   2.992  18.353  0.00  0.00    +0.000 C 
ATOM     30  C   UNL     1       1.345   4.142  19.317  0.00  0.00    +0.000 C 
ENDBRANCH  20  23
ENDBRANCH  16  17
ENDBRANCH   3  16
TORSDOF 4
ENDMDL
MODEL 6
REMARK VINA RESULT:      -8.1      3.662      9.721
REMARK  Name = 
REMARK  6 active torsions:
REMARK  status: ('A' for Active; 'I' for Inactive)
REMARK    1  A    between atoms: C_1  and  C_2
REMARK    2  A    between atoms: C_4  and  C_5
REMARK    3  A    between atoms: N_7  and  C_8
REMARK    4  A    between atoms: C_8  and  C_9
REMARK    5  A    between atoms: C_12  and  C_13
REMARK    6  A    between atoms: C_24  and  C_25
REMARK                            x       y       z     vdW  Elec       q    Type
REMARK                         _______ _______ _______ _____ _____    ______ ____
ROOT
ATOM      1  C   UNL     1       2.432   5.772  20.291  0.00  0.00    +0.000 C 
ATOM      2  O   UNL     1       1.821   5.123  21.129  0.00  0.00    +0.000 OA
ATOM      3  N   UNL     1       2.244   7.129  20.118  0.00  0.00    +0.000 N 
ATOM      4  H   UNL     1       2.587   7.588  19.285  0.00  0.00    +0.000 HD
ENDROOT
BRANCH   1   8
ATOM      5  C   UNL     1       7.088   5.548  18.488  0.00  0.00    +0.000 C 
ATOM      6  C   UNL     1       5.700   4.988  18.593  0.00  0.00    +0.000 A 
ATOM      7  C   UNL     1       4.733   5.642  19.352  0.00  0.00    +0.000 A 
ATOM      8  C   UNL     1       3.437   5.107  19.441  0.00  0.00    +0.000 A 
ATOM      9  C   UNL     1       3.158   3.900  18.774  0.00  0.00    +0.000 A 
ATOM     10  C   UNL     1       2.099   2.966  18.547  0.00  0.00    +0.000 A 
ATOM     11  C   UNL     1       0.684   2.917  18.985  0.00  0.00    +0.000 C 
ATOM     12  N   UNL     1       2.506   1.949  17.768  0.00  0.00    +0.000 NA
ATOM     13  O   UNL     1       3.826   2.201  17.466  0.00  0.00    +0.000 OA
ATOM     14  C   UNL     1       4.219   3.366  18.046  0.00  0.00    +0.000 A 
ATOM     15  N   UNL     1       5.470   3.841  17.919  0.00  0.00    +0.000 NA
ENDBRANCH   1   8
BRANCH   3  16
ATOM     16  C   UNL     1       1.217   7.804  20.879  0.00  0.00    +0.000 C 
BRANCH  16  17
ATOM     17  C   UNL     1       1.038   9.230  20.447  0.00  0.00    +0.000 A 
ATOM     18  C   UNL     1       0.724  10.239  21.373  0.00  0.00    +0.000 A 
ATOM     19  C   UNL     1       0.548  11.564  20.959  0.00  0.00    +0.000 A 
ATOM     20  C   UNL     1       0.719  11.892  19.613  0.00  0.00    +0.000 A 
ATOM     21  C   UNL     1       1.147  10.899  18.724  0.00  0.00    +0.000 A 
ATOM     22  C   UNL     1       1.221   9.569  19.107  0.00  0.00    +0.000 A 
BRANCH  20  23
ATOM     23  C   UNL     1       0.454  13.281  19.131  0.00  0.00    +0.000 C 
ATOM     24  O   UNL     1      -0.568  13.487  18.492  0.00  0.00    +0.000 OA
ATOM     25  N   UNL     1       1.385  14.280  19.441  0.00  0.00    +0.000 N 
ATOM     26  C   UNL     1       1.019  15.677  19.237  0.00  0.00    +0.000 C 
ATOM     27  C   UNL     1       1.983  16.327  18.252  0.00  0.00    +0.000 C 
ATOM     28  C   UNL     1       3.430  16.175  18.720  0.00  0.00    +0.000 C 
ATOM     29  C   UNL     1       3.775  14.716  18.930  0.00  0.00    +0.000 C 
ATOM     30  C   UNL     1       2.779  14.056  19.854  0.00  0.00    +0.000 C 
ENDBRANCH  20  23
ENDBRANCH  16  17
ENDBRANCH   3  16
TORSDOF 4
ENDMDL
MODEL 7
REMARK VINA RESULT:      -8.1      3.676      9.681
REMARK  Name = 
REMARK  6 active torsions:
REMARK  status: ('A' for Active; 'I' for Inactive)
REMARK    1  A    between atoms: C_1  and  C_2
REMARK    2  A    between atoms: C_4  and  C_5
REMARK    3  A    between atoms: N_7  and  C_8
REMARK    4  A    between atoms: C_8  and  C_9
REMARK    5  A    between atoms: C_12  and  C_13
REMARK    6  A    between atoms: C_24  and  C_25
REMARK                            x       y       z     vdW  Elec       q    Type
REMARK                         _______ _______ _______ _____ _____    ______ ____
ROOT
ATOM      1  C   UNL     1       2.030   6.026  20.120  0.00  0.00    +0.000 C 
ATOM      2  O   UNL     1       0.996   5.414  20.342  0.00  0.00    +0.000 OA
ATOM      3  N   UNL     1       2.236   7.322  20.550  0.00  0.00    +0.000 N 
ATOM      4  H   UNL     1       2.992   7.872  20.166  0.00  0.00    +0.000 HD
ENDROOT
BRANCH   1   8
ATOM      5  C   UNL     1       5.575   6.178  16.598  0.00  0.00    +0.000 C 
ATOM      6  C   UNL     1       4.862   5.455  17.704  0.00  0.00    +0.000 A 
ATOM      7  C   UNL     1       3.789   6.055  18.358  0.00  0.00    +0.000 A 
ATOM      8  C   UNL     1       3.129   5.366  19.391  0.00  0.00    +0.000 A 
ATOM      9  C   UNL     1       3.595   4.088  19.754  0.00  0.00    +0.000 A 
ATOM     10  C   UNL     1       3.334   3.022  20.670  0.00  0.00    +0.000 A 
ATOM     11  C   UNL     1       2.317   2.827  21.731  0.00  0.00    +0.000 C 
ATOM     12  N   UNL     1       4.198   2.008  20.494  0.00  0.00    +0.000 NA
ATOM     13  O   UNL     1       5.028   2.385  19.463  0.00  0.00    +0.000 OA
ATOM     14  C   UNL     1       4.668   3.614  19.004  0.00  0.00    +0.000 A 
ATOM     15  N   UNL     1       5.327   4.224  18.004  0.00  0.00    +0.000 NA
ENDBRANCH   1   8
BRANCH   3  16
ATOM     16  C   UNL     1       1.157   8.031  21.202  0.00  0.00    +0.000 C 
BRANCH  16  17
ATOM     17  C   UNL     1       0.942   9.396  20.617  0.00  0.00    +0.000 A 
ATOM     18  C   UNL     1       1.088   9.629  19.240  0.00  0.00    +0.000 A 
ATOM     19  C   UNL     1       0.897  10.908  18.703  0.00  0.00    +0.000 A 
ATOM     20  C   UNL     1       0.522  11.957  19.545  0.00  0.00    +0.000 A 
ATOM     21  C   UNL     1       0.265  11.682  20.893  0.00  0.00    +0.000 A 
ATOM     22  C   UNL     1       0.554  10.446  21.448  0.00  0.00    +0.000 A 
BRANCH  20  23
ATOM     23  C   UNL     1       0.395  13.347  19.014  0.00  0.00    +0.000 C 
ATOM     24  O   UNL     1      -0.555  13.605  18.288  0.00  0.00    +0.000 OA
ATOM     25  N   UNL     1       1.366  14.288  19.378  0.00  0.00    +0.000 N 
ATOM     26  C   UNL     1       1.116  15.700  19.115  0.00  0.00    +0.000 C 
ATOM     27  C   UNL     1       2.200  16.257  18.199  0.00  0.00    +0.000 C 
ATOM     28  C   UNL     1       3.590  16.019  18.788  0.00  0.00    +0.000 C 
ATOM     29  C   UNL     1       3.814  14.546  19.057  0.00  0.00    +0.000 C 
ATOM     30  C   UNL     1       2.702  13.980  19.909  0.00  0.00    +0.000 C 
ENDBRANCH  20  23
ENDBRANCH  16  17
ENDBRANCH   3  16
TORSDOF 4
ENDMDL
MODEL 8
REMARK VINA RESULT:      -8.1      1.059      1.472
REMARK  Name = 
REMARK  6 active torsions:
REMARK  status: ('A' for Active; 'I' for Inactive)
REMARK    1  A    between atoms: C_1  and  C_2
REMARK    2  A    between atoms: C_4  and  C_5
REMARK    3  A    between atoms: N_7  and  C_8
REMARK    4  A    between atoms: C_8  and  C_9
REMARK    5  A    between atoms: C_12  and  C_13
REMARK    6  A    between atoms: C_24  and  C_25
REMARK                            x       y       z     vdW  Elec       q    Type
REMARK                         _______ _______ _______ _____ _____    ______ ____
ROOT
ATOM      1  C   UNL     1      -1.216  10.861  18.808  0.00  0.00    +0.000 C 
ATOM      2  O   UNL     1      -1.322  10.549  19.986  0.00  0.00    +0.000 OA
ATOM      3  N   UNL     1       0.004  10.970  18.173  0.00  0.00    +0.000 N 
ATOM      4  H   UNL     1       0.075  11.441  17.281  0.00  0.00    +0.000 HD
ENDROOT
BRANCH   1   8
ATOM      5  C   UNL     1      -3.772  10.242  14.557  0.00  0.00    +0.000 C 
ATOM      6  C   UNL     1      -3.673  10.779  15.955  0.00  0.00    +0.000 A 
ATOM      7  C   UNL     1      -2.509  10.596  16.698  0.00  0.00    +0.000 A 
ATOM      8  C   UNL     1      -2.429  11.106  18.005  0.00  0.00    +0.000 A 
ATOM      9  C   UNL     1      -3.548  11.771  18.539  0.00  0.00    +0.000 A 
ATOM     10  C   UNL     1      -3.996  12.428  19.728  0.00  0.00    +0.000 A 
ATOM     11  C   UNL     1      -3.351  12.708  21.033  0.00  0.00    +0.000 C 
ATOM     12  N   UNL     1      -5.255  12.876  19.590  0.00  0.00    +0.000 NA
ATOM     13  O   UNL     1      -5.649  12.531  18.316  0.00  0.00    +0.000 OA
ATOM     14  C   UNL     1      -4.636  11.887  17.677  0.00  0.00    +0.000 A 
ATOM     15  N   UNL     1      -4.761  11.429  16.420  0.00  0.00    +0.000 NA
ENDBRANCH   1   8
BRANCH   3  16
ATOM     16  C   UNL     1       1.219  10.811  18.942  0.00  0.00    +0.000 C 
BRANCH  16  17
ATOM     17  C   UNL     1       1.785   9.426  18.826  0.00  0.00    +0.000 A 
ATOM     18  C   UNL     1       2.509   9.028  17.691  0.00  0.00    +0.000 A 
ATOM     19  C   UNL     1       3.023   7.730  17.585  0.00  0.00    +0.000 A 
ATOM     20  C   UNL     1       2.841   6.831  18.638  0.00  0.00    +0.000 A 
ATOM     21  C   UNL     1       2.221   7.280  19.810  0.00  0.00    +0.000 A 
ATOM     22  C   UNL     1       1.620   8.527  19.878  0.00  0.00    +0.000 A 
BRANCH  20  23
ATOM     23  C   UNL     1       3.304   5.417  18.516  0.00  0.00    +0.000 C 
ATOM     24  O   UNL     1       3.904   5.088  17.503  0.00  0.00    +0.000 OA
ATOM     25  N   UNL     1       3.035   4.537  19.573  0.00  0.00    +0.000 N 
ATOM     26  C   UNL     1       3.714   3.247  19.609  0.00  0.00    +0.000 C 
ATOM     27  C   UNL     1       2.688   2.120  19.586  0.00  0.00    +0.000 C 
ATOM     28  C   UNL     1       1.680   2.272  20.725  0.00  0.00    +0.000 C 
ATOM     29  C   UNL     1       1.001   3.624  20.663  0.00  0.00    +0.000 C 
ATOM     30  C   UNL     1       2.020   4.737  20.618  0.00  0.00    +0.000 C 
ENDBRANCH  20  23
ENDBRANCH  16  17
ENDBRANCH   3  16
TORSDOF 4
ENDMDL
MODEL 9
REMARK VINA RESULT:      -8.0      3.957      5.225
REMARK  Name = 
REMARK  6 active torsions:
REMARK  status: ('A' for Active; 'I' for Inactive)
REMARK    1  A    between atoms: C_1  and  C_2
REMARK    2  A    between atoms: C_4  and  C_5
REMARK    3  A    between atoms: N_7  and  C_8
REMARK    4  A    between atoms: C_8  and  C_9
REMARK    5  A    between atoms: C_12  and  C_13
REMARK    6  A    between atoms: C_24  and  C_25
REMARK                            x       y       z     vdW  Elec       q    Type
REMARK                         _______ _______ _______ _____ _____    ______ ____
ROOT
ATOM      1  C   UNL     1       1.759  13.171  19.801  0.00  0.00    +0.000 C 
ATOM      2  O   UNL     1       1.893  12.965  20.999  0.00  0.00    +0.000 OA
ATOM      3  N   UNL     1       0.882  12.453  19.014  0.00  0.00    +0.000 N 
ATOM      4  H   UNL     1       0.955  12.489  18.006  0.00  0.00    +0.000 HD
ENDROOT
BRANCH   1   8
ATOM      5  C   UNL     1       6.036  14.794  17.783  0.00  0.00    +0.000 C 
ATOM      6  C   UNL     1       4.598  15.017  18.152  0.00  0.00    +0.000 A 
ATOM      7  C   UNL     1       3.879  14.023  18.812  0.00  0.00    +0.000 A 
ATOM      8  C   UNL     1       2.534  14.247  19.154  0.00  0.00    +0.000 A 
ATOM      9  C   UNL     1       1.940  15.471  18.792  0.00  0.00    +0.000 A 
ATOM     10  C   UNL     1       0.699  16.177  18.866  0.00  0.00    +0.000 A 
ATOM     11  C   UNL     1      -0.622  15.841  19.450  0.00  0.00    +0.000 C 
ATOM     12  N   UNL     1       0.793  17.387  18.291  0.00  0.00    +0.000 NA
ATOM     13  O   UNL     1       2.090  17.498  17.839  0.00  0.00    +0.000 OA
ATOM     14  C   UNL     1       2.785  16.371  18.146  0.00  0.00    +0.000 A 
ATOM     15  N   UNL     1       4.076  16.212  17.807  0.00  0.00    +0.000 NA
ENDBRANCH   1   8
BRANCH   3  16
ATOM     16  C   UNL     1       0.159  11.342  19.593  0.00  0.00    +0.000 C 
BRANCH  16  17
ATOM     17  C   UNL     1       0.885  10.040  19.416  0.00  0.00    +0.000 A 
ATOM     18  C   UNL     1       1.040   9.141  20.483  0.00  0.00    +0.000 A 
ATOM     19  C   UNL     1       1.729   7.934  20.312  0.00  0.00    +0.000 A 
ATOM     20  C   UNL     1       2.240   7.607  19.054  0.00  0.00    +0.000 A 
ATOM     21  C   UNL     1       1.974   8.459  17.975  0.00  0.00    +0.000 A 
ATOM     22  C   UNL     1       1.386   9.699  18.160  0.00  0.00    +0.000 A 
BRANCH  20  23
ATOM     23  C   UNL     1       3.051   6.368  18.865  0.00  0.00    +0.000 C 
ATOM     24  O   UNL     1       3.906   6.363  17.990  0.00  0.00    +0.000 OA
ATOM     25  N   UNL     1       2.799   5.274  19.703  0.00  0.00    +0.000 N 
ATOM     26  C   UNL     1       3.752   4.172  19.733  0.00  0.00    +0.000 C 
ATOM     27  C   UNL     1       3.062   2.877  19.320  0.00  0.00    +0.000 C 
ATOM     28  C   UNL     1       1.839   2.604  20.195  0.00  0.00    +0.000 C 
ATOM     29  C   UNL     1       0.874   3.771  20.147  0.00  0.00    +0.000 C 
ATOM     30  C   UNL     1       1.576   5.063  20.492  0.00  0.00    +0.000 C 
ENDBRANCH  20  23
ENDBRANCH  16  17
ENDBRANCH   3  16
TORSDOF 4
ENDMDL
