MODEL 1
REMARK VINA RESULT:      -9.3      0.000      0.000
REMARK  Name = 
REMARK  4 active torsions:
REMARK  status: ('A' for Active; 'I' for Inactive)
REMARK    1  A    between atoms: C_1  and  C_2
REMARK    2  A    between atoms: N_4  and  C_5
REMARK    3  A    between atoms: C_8  and  N_9
REMARK    4  A    between atoms: C_20  and  C_21
REMARK                            x       y       z     vdW  Elec       q    Type
REMARK                         _______ _______ _______ _____ _____    ______ ____
ROOT
ATOM      1  N   UNL     1       0.560   8.782  20.411  0.00  0.00    +0.000 N 
ATOM      2  C   UNL     1       1.627   8.488  19.596  0.00  0.00    +0.000 C 
ATOM      3  O   UNL     1       2.098   9.300  18.797  0.00  0.00    +0.000 OA
ATOM      4  N   UNL     1       2.184   7.221  19.672  0.00  0.00    +0.000 N 
ATOM      5  C   UNL     1       1.806   6.103  20.545  0.00  0.00    +0.000 C 
ATOM      6  C   UNL     1       1.867   4.762  19.834  0.00  0.00    +0.000 A 
ATOM      7  C   UNL     1       0.959   3.741  20.139  0.00  0.00    +0.000 A 
ATOM      8  C   UNL     1       0.975   2.550  19.413  0.00  0.00    +0.000 A 
ATOM      9  C   UNL     1       1.894   2.371  18.379  0.00  0.00    +0.000 A 
ATOM     10  C   UNL     1       2.850   3.350  18.115  0.00  0.00    +0.000 A 
ATOM     11  C   UNL     1       2.870   4.534  18.862  0.00  0.00    +0.000 A 
ATOM     12  C   UNL     1       3.932   5.611  18.730  0.00  0.00    +0.000 C 
ATOM     13  C   UNL     1       3.215   6.968  18.652  0.00  0.00    +0.000 C 
ATOM     14  H   UNL     1       0.412   8.202  21.219  0.00  0.00    +0.000 HD
ENDROOT
BRANCH   1  18
ATOM     15  C   UNL     1      -1.795  12.336  20.217  0.00  0.00    +0.000 A 
ATOM     16  C   UNL     1      -1.779  11.441  19.155  0.00  0.00    +0.000 A 
ATOM     17  C   UNL     1      -1.014  10.271  19.212  0.00  0.00    +0.000 A 
ATOM     18  C   UNL     1      -0.220   9.965  20.320  0.00  0.00    +0.000 A 
ATOM     19  C   UNL     1      -0.217  10.876  21.386  0.00  0.00    +0.000 A 
ATOM     20  C   UNL     1      -0.983  12.059  21.325  0.00  0.00    +0.000 A 
BRANCH  15  24
ATOM     21  C   UNL     1      -4.447  14.990  20.648  0.00  0.00    +0.000 C 
ATOM     22  C   UNL     1      -3.816  13.640  20.864  0.00  0.00    +0.000 C 
ATOM     23  O   UNL     1      -4.382  12.804  21.561  0.00  0.00    +0.000 OA
ATOM     24  N   UNL     1      -2.594  13.501  20.220  0.00  0.00    +0.000 N 
ATOM     25  H   UNL     1      -2.188  14.333  19.812  0.00  0.00    +0.000 HD
ENDBRANCH  15  24
ENDBRANCH   1  18
BRANCH  12  26
ATOM     26  C   UNL     1       4.980   5.433  17.636  0.00  0.00    +0.000 A 
ATOM     27  C   UNL     1       6.186   4.747  17.852  0.00  0.00    +0.000 A 
ATOM     28  C   UNL     1       7.084   4.526  16.806  0.00  0.00    +0.000 A 
ATOM     29  C   UNL     1       6.805   5.009  15.531  0.00  0.00    +0.000 A 
ATOM     30  C   UNL     1       5.636   5.732  15.306  0.00  0.00    +0.000 A 
ATOM     31  C   UNL     1       4.732   5.946  16.350  0.00  0.00    +0.000 A 
ENDBRANCH  12  26
TORSDOF 3
ENDMDL
MODEL 2
REMARK VINA RESULT:      -9.2      1.020      1.144
REMARK  Name = 
REMARK  4 active torsions:
REMARK  status: ('A' for Active; 'I' for Inactive)
REMARK    1  A    between atoms: C_1  and  C_2
REMARK    2  A    between atoms: N_4  and  C_5
REMARK    3  A    between atoms: C_8  and  N_9
REMARK    4  A    between atoms: C_20  and  C_21
REMARK                            x       y       z     vdW  Elec       q    Type
REMARK                         _______ _______ _______ _____ _____    ______ ____
ROOT
ATOM      1  N   UNL     1       0.625   8.399  21.308  0.00  0.00    +0.000 N 
ATOM      2  C   UNL     1       1.543   8.201  20.304  0.00  0.00    +0.000 C 
ATOM      3  O   UNL     1       1.921   9.107  19.560  0.00  0.00    +0.000 OA
ATOM      4  N   UNL     1       2.052   6.925  20.120  0.00  0.00    +0.000 N 
ATOM      5  C   UNL     1       1.764   5.703  20.881  0.00  0.00    +0.000 C 
ATOM      6  C   UNL     1       1.660   4.474  19.994  0.00  0.00    +0.000 A 
ATOM      7  C   UNL     1       0.766   3.439  20.295  0.00  0.00    +0.000 A 
ATOM      8  C   UNL     1       0.623   2.362  19.420  0.00  0.00    +0.000 A 
ATOM      9  C   UNL     1       1.366   2.312  18.241  0.00  0.00    +0.000 A 
ATOM     10  C   UNL     1       2.311   3.299  17.967  0.00  0.00    +0.000 A 
ATOM     11  C   UNL     1       2.493   4.364  18.856  0.00  0.00    +0.000 A 
ATOM     12  C   UNL     1       3.567   5.427  18.707  0.00  0.00    +0.000 C 
ATOM     13  C   UNL     1       2.905   6.796  18.927  0.00  0.00    +0.000 C 
ATOM     14  H   UNL     1       0.576   7.715  22.043  0.00  0.00    +0.000 HD
ENDROOT
BRANCH   1  18
ATOM     15  C   UNL     1      -1.616  11.973  21.954  0.00  0.00    +0.000 A 
ATOM     16  C   UNL     1      -1.278  11.575  20.667  0.00  0.00    +0.000 A 
ATOM     17  C   UNL     1      -0.549  10.402  20.445  0.00  0.00    +0.000 A 
ATOM     18  C   UNL     1      -0.110   9.599  21.501  0.00  0.00    +0.000 A 
ATOM     19  C   UNL     1      -0.430  10.009  22.803  0.00  0.00    +0.000 A 
ATOM     20  C   UNL     1      -1.159  11.194  23.027  0.00  0.00    +0.000 A 
BRANCH  15  24
ATOM     21  C   UNL     1      -4.323  14.551  22.488  0.00  0.00    +0.000 C 
ATOM     22  C   UNL     1      -3.783  13.173  22.212  0.00  0.00    +0.000 C 
ATOM     23  O   UNL     1      -4.555  12.240  22.022  0.00  0.00    +0.000 OA
ATOM     24  N   UNL     1      -2.395  13.122  22.216  0.00  0.00    +0.000 N 
ATOM     25  H   UNL     1      -1.902  13.942  22.543  0.00  0.00    +0.000 HD
ENDBRANCH  15  24
ENDBRANCH   1  18
BRANCH  12  26
ATOM     26  C   UNL     1       4.430   5.383  17.450  0.00  0.00    +0.000 A 
ATOM     27  C   UNL     1       5.088   4.217  17.027  0.00  0.00    +0.000 A 
ATOM     28  C   UNL     1       5.797   4.188  15.825  0.00  0.00    +0.000 A 
ATOM     29  C   UNL     1       5.884   5.332  15.036  0.00  0.00    +0.000 A 
ATOM     30  C   UNL     1       5.277   6.512  15.460  0.00  0.00    +0.000 A 
ATOM     31  C   UNL     1       4.559   6.539  16.658  0.00  0.00    +0.000 A 
ENDBRANCH  12  26
TORSDOF 3
ENDMDL
MODEL 3
REMARK VINA RESULT:      -9.1      0.908      1.294
REMARK  Name = 
REMARK  4 active torsions:
REMARK  status: ('A' for Active; 'I' for Inactive)
REMARK    1  A    between atoms: C_1  and  C_2
REMARK    2  A    between atoms: N_4  and  C_5
REMARK    3  A    between atoms: C_8  and  N_9
REMARK    4  A    between atoms: C_20  and  C_21
REMARK                            x       y       z     vdW  Elec       q    Type
REMARK                         _______ _______ _______ _____ _____    ______ ____
ROOT
ATOM      1  N   UNL     1       0.674   8.164  21.262  0.00  0.00    +0.000 N 
ATOM      2  C   UNL     1       1.709   8.001  20.373  0.00  0.00    +0.000 C 
ATOM      3  O   UNL     1       2.184   8.936  19.726  0.00  0.00    +0.000 OA
ATOM      4  N   UNL     1       2.228   6.728  20.193  0.00  0.00    +0.000 N 
ATOM      5  C   UNL     1       1.838   5.477  20.854  0.00  0.00    +0.000 C 
ATOM      6  C   UNL     1       1.837   4.291  19.903  0.00  0.00    +0.000 A 
ATOM      7  C   UNL     1       0.906   3.255  20.041  0.00  0.00    +0.000 A 
ATOM      8  C   UNL     1       0.865   2.221  19.105  0.00  0.00    +0.000 A 
ATOM      9  C   UNL     1       1.750   2.216  18.027  0.00  0.00    +0.000 A 
ATOM     10  C   UNL     1       2.729   3.202  17.920  0.00  0.00    +0.000 A 
ATOM     11  C   UNL     1       2.806   4.223  18.874  0.00  0.00    +0.000 A 
ATOM     12  C   UNL     1       3.898   5.278  18.911  0.00  0.00    +0.000 C 
ATOM     13  C   UNL     1       3.222   6.643  19.112  0.00  0.00    +0.000 C 
ATOM     14  H   UNL     1       0.529   7.447  21.952  0.00  0.00    +0.000 HD
ENDROOT
BRANCH   1  18
ATOM     15  C   UNL     1      -1.533  11.795  21.666  0.00  0.00    +0.000 A 
ATOM     16  C   UNL     1      -1.130  11.085  22.790  0.00  0.00    +0.000 A 
ATOM     17  C   UNL     1      -0.402   9.897  22.668  0.00  0.00    +0.000 A 
ATOM     18  C   UNL     1      -0.071   9.363  21.419  0.00  0.00    +0.000 A 
ATOM     19  C   UNL     1      -0.495  10.065  20.282  0.00  0.00    +0.000 A 
ATOM     20  C   UNL     1      -1.235  11.258  20.406  0.00  0.00    +0.000 A 
BRANCH  15  24
ATOM     21  C   UNL     1      -3.992  14.619  22.154  0.00  0.00    +0.000 C 
ATOM     22  C   UNL     1      -3.515  13.193  22.231  0.00  0.00    +0.000 C 
ATOM     23  O   UNL     1      -4.248  12.326  22.695  0.00  0.00    +0.000 OA
ATOM     24  N   UNL     1      -2.224  13.024  21.748  0.00  0.00    +0.000 N 
ATOM     25  H   UNL     1      -1.693  13.860  21.544  0.00  0.00    +0.000 HD
ENDBRANCH  15  24
ENDBRANCH   1  18
BRANCH  12  26
ATOM     26  C   UNL     1       4.911   5.281  17.771  0.00  0.00    +0.000 A 
ATOM     27  C   UNL     1       6.137   4.602  17.850  0.00  0.00    +0.000 A 
ATOM     28  C   UNL     1       7.002   4.552  16.755  0.00  0.00    +0.000 A 
ATOM     29  C   UNL     1       6.669   5.201  15.570  0.00  0.00    +0.000 A 
ATOM     30  C   UNL     1       5.479   5.920  15.486  0.00  0.00    +0.000 A 
ATOM     31  C   UNL     1       4.608   5.962  16.578  0.00  0.00    +0.000 A 
ENDBRANCH  12  26
TORSDOF 3
ENDMDL
MODEL 4
REMARK VINA RESULT:      -9.0      1.504      1.629
REMARK  Name = 
REMARK  4 active torsions:
REMARK  status: ('A' for Active; 'I' for Inactive)
REMARK    1  A    between atoms: C_1  and  C_2
REMARK    2  A    between atoms: N_4  and  C_5
REMARK    3  A    between atoms: C_8  and  N_9
REMARK    4  A    between atoms: C_20  and  C_21
REMARK                            x       y       z     vdW  Elec       q    Type
REMARK                         _______ _______ _______ _____ _____    ______ ____
ROOT
ATOM      1  N   UNL     1       0.764   8.220  21.360  0.00  0.00    +0.000 N 
ATOM      2  C   UNL     1       1.651   8.035  20.327  0.00  0.00    +0.000 C 
ATOM      3  O   UNL     1       2.003   8.950  19.580  0.00  0.00    +0.000 OA
ATOM      4  N   UNL     1       2.159   6.763  20.115  0.00  0.00    +0.000 N 
ATOM      5  C   UNL     1       1.900   5.533  20.873  0.00  0.00    +0.000 C 
ATOM      6  C   UNL     1       1.774   4.312  19.978  0.00  0.00    +0.000 A 
ATOM      7  C   UNL     1       0.895   3.270  20.297  0.00  0.00    +0.000 A 
ATOM      8  C   UNL     1       0.729   2.200  19.418  0.00  0.00    +0.000 A 
ATOM      9  C   UNL     1       1.435   2.164  18.216  0.00  0.00    +0.000 A 
ATOM     10  C   UNL     1       2.368   3.158  17.921  0.00  0.00    +0.000 A 
ATOM     11  C   UNL     1       2.572   4.216  18.814  0.00  0.00    +0.000 A 
ATOM     12  C   UNL     1       3.637   5.285  18.642  0.00  0.00    +0.000 C 
ATOM     13  C   UNL     1       2.976   6.649  18.895  0.00  0.00    +0.000 C 
ATOM     14  H   UNL     1       0.741   7.529  22.090  0.00  0.00    +0.000 HD
ENDROOT
BRANCH   1  18
ATOM     15  C   UNL     1      -1.480  11.773  22.102  0.00  0.00    +0.000 A 
ATOM     16  C   UNL     1      -1.015  11.486  20.824  0.00  0.00    +0.000 A 
ATOM     17  C   UNL     1      -0.284  10.321  20.571  0.00  0.00    +0.000 A 
ATOM     18  C   UNL     1       0.031   9.414  21.587  0.00  0.00    +0.000 A 
ATOM     19  C   UNL     1      -0.418   9.712  22.882  0.00  0.00    +0.000 A 
ATOM     20  C   UNL     1      -1.150  10.890  23.138  0.00  0.00    +0.000 A 
BRANCH  15  24
ATOM     21  C   UNL     1      -2.917  15.068  23.261  0.00  0.00    +0.000 C 
ATOM     22  C   UNL     1      -1.836  14.036  23.080  0.00  0.00    +0.000 C 
ATOM     23  O   UNL     1      -0.710  14.246  23.520  0.00  0.00    +0.000 OA
ATOM     24  N   UNL     1      -2.266  12.912  22.387  0.00  0.00    +0.000 N 
ATOM     25  H   UNL     1      -3.179  12.956  21.955  0.00  0.00    +0.000 HD
ENDBRANCH  15  24
ENDBRANCH   1  18
BRANCH  12  26
ATOM     26  C   UNL     1       4.461   5.257  17.358  0.00  0.00    +0.000 A 
ATOM     27  C   UNL     1       5.057   4.083  16.871  0.00  0.00    +0.000 A 
ATOM     28  C   UNL     1       5.730   4.073  15.647  0.00  0.00    +0.000 A 
ATOM     29  C   UNL     1       5.840   5.243  14.901  0.00  0.00    +0.000 A 
ATOM     30  C   UNL     1       5.295   6.428  15.389  0.00  0.00    +0.000 A 
ATOM     31  C   UNL     1       4.614   6.437  16.608  0.00  0.00    +0.000 A 
ENDBRANCH  12  26
TORSDOF 3
ENDMDL
MODEL 5
REMARK VINA RESULT:      -9.0      0.422      1.326
REMARK  Name = 
REMARK  4 active torsions:
REMARK  status: ('A' for Active; 'I' for Inactive)
REMARK    1  A    between atoms: C_1  and  C_2
REMARK    2  A    between atoms: N_4  and  C_5
REMARK    3  A    between atoms: C_8  and  N_9
REMARK    4  A    between atoms: C_20  and  C_21
REMARK                            x       y       z     vdW  Elec       q    Type
REMARK                         _______ _______ _______ _____ _____    ______ ____
ROOT
ATOM      1  N   UNL     1       0.701   8.459  20.758  0.00  0.00    +0.000 N 
ATOM      2  C   UNL     1       1.745   8.198  19.905  0.00  0.00    +0.000 C 
ATOM      3  O   UNL     1       2.238   9.058  19.171  0.00  0.00    +0.000 OA
ATOM      4  N   UNL     1       2.255   6.909  19.864  0.00  0.00    +0.000 N 
ATOM      5  C   UNL     1       1.846   5.735  20.644  0.00  0.00    +0.000 C 
ATOM      6  C   UNL     1       1.847   4.459  19.820  0.00  0.00    +0.000 A 
ATOM      7  C   UNL     1       0.905   3.449  20.051  0.00  0.00    +0.000 A 
ATOM      8  C   UNL     1       0.867   2.325  19.225  0.00  0.00    +0.000 A 
ATOM      9  C   UNL     1       1.766   2.202  18.166  0.00  0.00    +0.000 A 
ATOM     10  C   UNL     1       2.755   3.165  17.972  0.00  0.00    +0.000 A 
ATOM     11  C   UNL     1       2.828   4.278  18.817  0.00  0.00    +0.000 A 
ATOM     12  C   UNL     1       3.929   5.322  18.761  0.00  0.00    +0.000 C 
ATOM     13  C   UNL     1       3.263   6.706  18.811  0.00  0.00    +0.000 C 
ATOM     14  H   UNL     1       0.540   7.819  21.516  0.00  0.00    +0.000 HD
ENDROOT
BRANCH   1  18
ATOM     15  C   UNL     1      -1.495  12.119  20.748  0.00  0.00    +0.000 A 
ATOM     16  C   UNL     1      -0.859  11.681  21.903  0.00  0.00    +0.000 A 
ATOM     17  C   UNL     1      -0.133  10.485  21.914  0.00  0.00    +0.000 A 
ATOM     18  C   UNL     1      -0.035   9.674  20.780  0.00  0.00    +0.000 A 
ATOM     19  C   UNL     1      -0.694  10.103  19.619  0.00  0.00    +0.000 A 
ATOM     20  C   UNL     1      -1.431  11.304  19.610  0.00  0.00    +0.000 A 
BRANCH  15  24
ATOM     21  C   UNL     1      -3.968  14.969  20.902  0.00  0.00    +0.000 C 
ATOM     22  C   UNL     1      -3.480  13.567  21.154  0.00  0.00    +0.000 C 
ATOM     23  O   UNL     1      -4.203  12.762  21.732  0.00  0.00    +0.000 OA
ATOM     24  N   UNL     1      -2.193  13.345  20.682  0.00  0.00    +0.000 N 
ATOM     25  H   UNL     1      -1.670  14.152  20.368  0.00  0.00    +0.000 HD
ENDBRANCH  15  24
ENDBRANCH   1  18
BRANCH  12  26
ATOM     26  C   UNL     1       4.957   5.201  17.641  0.00  0.00    +0.000 A 
ATOM     27  C   UNL     1       4.711   5.664  16.338  0.00  0.00    +0.000 A 
ATOM     28  C   UNL     1       5.706   5.617  15.359  0.00  0.00    +0.000 A 
ATOM     29  C   UNL     1       6.956   5.083  15.657  0.00  0.00    +0.000 A 
ATOM     30  C   UNL     1       7.205   4.575  16.931  0.00  0.00    +0.000 A 
ATOM     31  C   UNL     1       6.214   4.630  17.914  0.00  0.00    +0.000 A 
ENDBRANCH  12  26
TORSDOF 3
ENDMDL
MODEL 6
REMARK VINA RESULT:      -9.0      1.000      1.000
REMARK  Name = 
REMARK  4 active torsions:
REMARK  status: ('A' for Active; 'I' for Inactive)
REMARK    1  A    between atoms: C_1  and  C_2
REMARK    2  A    between atoms: N_4  and  C_5
REMARK    3  A    between atoms: C_8  and  N_9
REMARK    4  A    between atoms: C_20  and  C_21
REMARK                            x       y       z     vdW  Elec       q    Type
REMARK                         _______ _______ _______ _____ _____    ______ ____
ROOT
ATOM      1  N   UNL     1       0.645   8.565  20.674  0.00  0.00    +0.000 N 
ATOM      2  C   UNL     1       1.709   8.306  19.844  0.00  0.00    +0.000 C 
ATOM      3  O   UNL     1       2.204   9.163  19.108  0.00  0.00    +0.000 OA
ATOM      4  N   UNL     1       2.236   7.024  19.829  0.00  0.00    +0.000 N 
ATOM      5  C   UNL     1       1.828   5.855  20.616  0.00  0.00    +0.000 C 
ATOM      6  C   UNL     1       1.861   4.568  19.809  0.00  0.00    +0.000 A 
ATOM      7  C   UNL     1       0.927   3.549  20.035  0.00  0.00    +0.000 A 
ATOM      8  C   UNL     1       0.920   2.414  19.224  0.00  0.00    +0.000 A 
ATOM      9  C   UNL     1       1.839   2.290  18.184  0.00  0.00    +0.000 A 
ATOM     10  C   UNL     1       2.820   3.263  17.995  0.00  0.00    +0.000 A 
ATOM     11  C   UNL     1       2.863   4.387  18.827  0.00  0.00    +0.000 A 
ATOM     12  C   UNL     1       3.951   5.446  18.778  0.00  0.00    +0.000 C 
ATOM     13  C   UNL     1       3.266   6.821  18.797  0.00  0.00    +0.000 C 
ATOM     14  H   UNL     1       0.479   7.932  21.437  0.00  0.00    +0.000 HD
ENDROOT
BRANCH   1  18
ATOM     15  C   UNL     1      -1.633  12.173  20.729  0.00  0.00    +0.000 A 
ATOM     16  C   UNL     1      -1.504  11.438  19.557  0.00  0.00    +0.000 A 
ATOM     17  C   UNL     1      -0.763  10.252  19.531  0.00  0.00    +0.000 A 
ATOM     18  C   UNL     1      -0.107   9.769  20.667  0.00  0.00    +0.000 A 
ATOM     19  C   UNL     1      -0.217  10.520  21.846  0.00  0.00    +0.000 A 
ATOM     20  C   UNL     1      -0.957  11.720  21.870  0.00  0.00    +0.000 A 
BRANCH  15  24
ATOM     21  C   UNL     1      -3.005  15.689  20.875  0.00  0.00    +0.000 C 
ATOM     22  C   UNL     1      -1.932  14.646  20.709  0.00  0.00    +0.000 C 
ATOM     23  O   UNL     1      -0.773  14.988  20.500  0.00  0.00    +0.000 OA
ATOM     24  N   UNL     1      -2.414  13.347  20.809  0.00  0.00    +0.000 N 
ATOM     25  H   UNL     1      -3.418  13.226  20.828  0.00  0.00    +0.000 HD
ENDBRANCH  15  24
ENDBRANCH   1  18
BRANCH  12  26
ATOM     26  C   UNL     1       5.001   5.323  17.678  0.00  0.00    +0.000 A 
ATOM     27  C   UNL     1       6.250   4.718  17.892  0.00  0.00    +0.000 A 
ATOM     28  C   UNL     1       7.153   4.543  16.841  0.00  0.00    +0.000 A 
ATOM     29  C   UNL     1       6.835   4.993  15.564  0.00  0.00    +0.000 A 
ATOM     30  C   UNL     1       5.620   5.638  15.340  0.00  0.00    +0.000 A 
ATOM     31  C   UNL     1       4.712   5.805  16.388  0.00  0.00    +0.000 A 
ENDBRANCH  12  26
TORSDOF 3
ENDMDL
MODEL 7
REMARK VINA RESULT:      -8.9      1.874      2.090
REMARK  Name = 
REMARK  4 active torsions:
REMARK  status: ('A' for Active; 'I' for Inactive)
REMARK    1  A    between atoms: C_1  and  C_2
REMARK    2  A    between atoms: N_4  and  C_5
REMARK    3  A    between atoms: C_8  and  N_9
REMARK    4  A    between atoms: C_20  and  C_21
REMARK                            x       y       z     vdW  Elec       q    Type
REMARK                         _______ _______ _______ _____ _____    ______ ____
ROOT
ATOM      1  N   UNL     1       0.363   9.052  19.136  0.00  0.00    +0.000 N 
ATOM      2  C   UNL     1       1.414   8.621  18.362  0.00  0.00    +0.000 C 
ATOM      3  O   UNL     1       1.599   9.019  17.210  0.00  0.00    +0.000 OA
ATOM      4  N   UNL     1       2.291   7.694  18.901  0.00  0.00    +0.000 N 
ATOM      5  C   UNL     1       2.282   7.092  20.240  0.00  0.00    +0.000 C 
ATOM      6  C   UNL     1       2.649   5.618  20.219  0.00  0.00    +0.000 A 
ATOM      7  C   UNL     1       2.067   4.715  21.117  0.00  0.00    +0.000 A 
ATOM      8  C   UNL     1       2.351   3.352  21.023  0.00  0.00    +0.000 A 
ATOM      9  C   UNL     1       3.215   2.883  20.034  0.00  0.00    +0.000 A 
ATOM     10  C   UNL     1       3.858   3.779  19.181  0.00  0.00    +0.000 A 
ATOM     11  C   UNL     1       3.611   5.153  19.291  0.00  0.00    +0.000 A 
ATOM     12  C   UNL     1       4.338   6.218  18.490  0.00  0.00    +0.000 C 
ATOM     13  C   UNL     1       3.283   7.190  17.938  0.00  0.00    +0.000 C 
ATOM     14  H   UNL     1       0.427   8.923  20.130  0.00  0.00    +0.000 HD
ENDROOT
BRANCH   1  18
ATOM     15  C   UNL     1      -2.878  11.481  17.790  0.00  0.00    +0.000 A 
ATOM     16  C   UNL     1      -2.382  10.459  16.990  0.00  0.00    +0.000 A 
ATOM     17  C   UNL     1      -1.324   9.655  17.425  0.00  0.00    +0.000 A 
ATOM     18  C   UNL     1      -0.707   9.857  18.663  0.00  0.00    +0.000 A 
ATOM     19  C   UNL     1      -1.191  10.901  19.464  0.00  0.00    +0.000 A 
ATOM     20  C   UNL     1      -2.253  11.716  19.022  0.00  0.00    +0.000 A 
BRANCH  15  24
ATOM     21  C   UNL     1      -6.257  12.977  17.012  0.00  0.00    +0.000 C 
ATOM     22  C   UNL     1      -5.316  11.932  17.549  0.00  0.00    +0.000 C 
ATOM     23  O   UNL     1      -5.762  10.907  18.053  0.00  0.00    +0.000 OA
ATOM     24  N   UNL     1      -3.979  12.280  17.409  0.00  0.00    +0.000 N 
ATOM     25  H   UNL     1      -3.775  13.226  17.114  0.00  0.00    +0.000 HD
ENDBRANCH  15  24
ENDBRANCH   1  18
BRANCH  12  26
ATOM     26  C   UNL     1       5.323   5.747  17.424  0.00  0.00    +0.000 A 
ATOM     27  C   UNL     1       6.585   5.219  17.744  0.00  0.00    +0.000 A 
ATOM     28  C   UNL     1       7.425   4.715  16.749  0.00  0.00    +0.000 A 
ATOM     29  C   UNL     1       7.031   4.753  15.415  0.00  0.00    +0.000 A 
ATOM     30  C   UNL     1       5.803   5.314  15.073  0.00  0.00    +0.000 A 
ATOM     31  C   UNL     1       4.957   5.810  16.068  0.00  0.00    +0.000 A 
ENDBRANCH  12  26
TORSDOF 3
ENDMDL
MODEL 8
REMARK VINA RESULT:      -8.9      1.501      1.949
REMARK  Name = 
REMARK  4 active torsions:
REMARK  status: ('A' for Active; 'I' for Inactive)
REMARK    1  A    between atoms: C_1  and  C_2
REMARK    2  A    between atoms: N_4  and  C_5
REMARK    3  A    between atoms: C_8  and  N_9
REMARK    4  A    between atoms: C_20  and  C_21
REMARK                            x       y       z     vdW  Elec       q    Type
REMARK                         _______ _______ _______ _____ _____    ______ ____
ROOT
ATOM      1  N   UNL     1       0.686   8.285  21.407  0.00  0.00    +0.000 N 
ATOM      2  C   UNL     1       1.550   8.110  20.353  0.00  0.00    +0.000 C 
ATOM      3  O   UNL     1       1.871   9.029  19.596  0.00  0.00    +0.000 OA
ATOM      4  N   UNL     1       2.068   6.845  20.129  0.00  0.00    +0.000 N 
ATOM      5  C   UNL     1       1.843   5.613  20.895  0.00  0.00    +0.000 C 
ATOM      6  C   UNL     1       1.711   4.389  20.005  0.00  0.00    +0.000 A 
ATOM      7  C   UNL     1       0.852   3.337  20.346  0.00  0.00    +0.000 A 
ATOM      8  C   UNL     1       0.678   2.264  19.472  0.00  0.00    +0.000 A 
ATOM      9  C   UNL     1       1.355   2.235  18.254  0.00  0.00    +0.000 A 
ATOM     10  C   UNL     1       2.267   3.239  17.935  0.00  0.00    +0.000 A 
ATOM     11  C   UNL     1       2.481   4.301  18.821  0.00  0.00    +0.000 A 
ATOM     12  C   UNL     1       3.528   5.383  18.622  0.00  0.00    +0.000 C 
ATOM     13  C   UNL     1       2.856   6.739  18.890  0.00  0.00    +0.000 C 
ATOM     14  H   UNL     1       0.689   7.595  22.138  0.00  0.00    +0.000 HD
ENDROOT
BRANCH   1  18
ATOM     15  C   UNL     1      -1.508  11.884  22.079  0.00  0.00    +0.000 A 
ATOM     16  C   UNL     1      -1.225  11.023  23.132  0.00  0.00    +0.000 A 
ATOM     17  C   UNL     1      -0.502   9.844  22.922  0.00  0.00    +0.000 A 
ATOM     18  C   UNL     1      -0.057   9.471  21.650  0.00  0.00    +0.000 A 
ATOM     19  C   UNL     1      -0.359  10.327  20.582  0.00  0.00    +0.000 A 
ATOM     20  C   UNL     1      -1.094  11.512  20.793  0.00  0.00    +0.000 A 
BRANCH  15  24
ATOM     21  C   UNL     1      -2.659  15.370  22.966  0.00  0.00    +0.000 C 
ATOM     22  C   UNL     1      -1.677  14.231  22.896  0.00  0.00    +0.000 C 
ATOM     23  O   UNL     1      -0.553  14.362  23.368  0.00  0.00    +0.000 OA
ATOM     24  N   UNL     1      -2.189  13.108  22.259  0.00  0.00    +0.000 N 
ATOM     25  H   UNL     1      -3.078  13.209  21.787  0.00  0.00    +0.000 HD
ENDBRANCH  15  24
ENDBRANCH   1  18
BRANCH  12  26
ATOM     26  C   UNL     1       4.320   5.363  17.319  0.00  0.00    +0.000 A 
ATOM     27  C   UNL     1       4.548   6.521  16.557  0.00  0.00    +0.000 A 
ATOM     28  C   UNL     1       5.351   6.483  15.416  0.00  0.00    +0.000 A 
ATOM     29  C   UNL     1       5.920   5.283  15.000  0.00  0.00    +0.000 A 
ATOM     30  C   UNL     1       5.668   4.115  15.716  0.00  0.00    +0.000 A 
ATOM     31  C   UNL     1       4.873   4.153  16.863  0.00  0.00    +0.000 A 
ENDBRANCH  12  26
TORSDOF 3
ENDMDL
MODEL 9
REMARK VINA RESULT:      -8.6      1.736      1.922
REMARK  Name = 
REMARK  4 active torsions:
REMARK  status: ('A' for Active; 'I' for Inactive)
REMARK    1  A    between atoms: C_1  and  C_2
REMARK    2  A    between atoms: N_4  and  C_5
REMARK    3  A    between atoms: C_8  and  N_9
REMARK    4  A    between atoms: C_20  and  C_21
REMARK                            x       y       z     vdW  Elec       q    Type
REMARK                         _______ _______ _______ _____ _____    ______ ____
ROOT
ATOM      1  N   UNL     1       1.164   9.283  19.934  0.00  0.00    +0.000 N 
ATOM      2  C   UNL     1       2.029   8.779  18.993  0.00  0.00    +0.000 C 
ATOM      3  O   UNL     1       2.441   9.447  18.042  0.00  0.00    +0.000 OA
ATOM      4  N   UNL     1       2.443   7.462  19.116  0.00  0.00    +0.000 N 
ATOM      5  C   UNL     1       2.100   6.487  20.158  0.00  0.00    +0.000 C 
ATOM      6  C   UNL     1       1.881   5.091  19.601  0.00  0.00    +0.000 A 
ATOM      7  C   UNL     1       0.930   4.229  20.162  0.00  0.00    +0.000 A 
ATOM      8  C   UNL     1       0.682   2.986  19.580  0.00  0.00    +0.000 A 
ATOM      9  C   UNL     1       1.376   2.596  18.436  0.00  0.00    +0.000 A 
ATOM     10  C   UNL     1       2.376   3.413  17.910  0.00  0.00    +0.000 A 
ATOM     11  C   UNL     1       2.662   4.646  18.508  0.00  0.00    +0.000 A 
ATOM     12  C   UNL     1       3.800   5.557  18.084  0.00  0.00    +0.000 C 
ATOM     13  C   UNL     1       3.241   6.984  17.976  0.00  0.00    +0.000 C 
ATOM     14  H   UNL     1       1.096   8.803  20.815  0.00  0.00    +0.000 HD
ENDROOT
BRANCH   1  18
ATOM     15  C   UNL     1      -0.763  13.085  19.737  0.00  0.00    +0.000 A 
ATOM     16  C   UNL     1      -1.075  12.088  18.821  0.00  0.00    +0.000 A 
ATOM     17  C   UNL     1      -0.452  10.837  18.882  0.00  0.00    +0.000 A 
ATOM     18  C   UNL     1       0.520  10.545  19.842  0.00  0.00    +0.000 A 
ATOM     19  C   UNL     1       0.853  11.557  20.755  0.00  0.00    +0.000 A 
ATOM     20  C   UNL     1       0.230  12.820  20.689  0.00  0.00    +0.000 A 
BRANCH  15  24
ATOM     21  C   UNL     1      -1.746  16.728  19.561  0.00  0.00    +0.000 C 
ATOM     22  C   UNL     1      -0.810  15.556  19.426  0.00  0.00    +0.000 C 
ATOM     23  O   UNL     1       0.346  15.736  19.059  0.00  0.00    +0.000 OA
ATOM     24  N   UNL     1      -1.407  14.343  19.741  0.00  0.00    +0.000 N 
ATOM     25  H   UNL     1      -2.410  14.341  19.875  0.00  0.00    +0.000 HD
ENDBRANCH  15  24
ENDBRANCH   1  18
BRANCH  12  26
ATOM     26  C   UNL     1       4.612   5.145  16.860  0.00  0.00    +0.000 A 
ATOM     27  C   UNL     1       4.978   6.057  15.857  0.00  0.00    +0.000 A 
ATOM     28  C   UNL     1       5.796   5.666  14.795  0.00  0.00    +0.000 A 
ATOM     29  C   UNL     1       6.240   4.351  14.702  0.00  0.00    +0.000 A 
ATOM     30  C   UNL     1       5.850   3.420  15.661  0.00  0.00    +0.000 A 
ATOM     31  C   UNL     1       5.040   3.812  16.730  0.00  0.00    +0.000 A 
ENDBRANCH  12  26
TORSDOF 3
ENDMDL
