MODEL 1
REMARK VINA RESULT:      -7.9      0.000      0.000
REMARK  Name = 
REMARK  3 active torsions:
REMARK  status: ('A' for Active; 'I' for Inactive)
REMARK    1  A    between atoms: C_1  and  C_2
REMARK    2  A    between atoms: C_13  and  C_15
REMARK    3  A    between atoms: C_15  and  N_16
REMARK                            x       y       z     vdW  Elec       q    Type
REMARK                         _______ _______ _______ _____ _____    ______ ____
ROOT
ATOM      1  C   UNL     1       1.554   4.369  19.944  0.00  0.00    +0.000 C 
ATOM      2  C   UNL     1       2.688   4.408  18.922  0.00  0.00    +0.000 C 
ATOM      3  C   UNL     1       3.804   3.502  19.477  0.00  0.00    +0.000 C 
ATOM      4  O   UNL     1       3.683   2.747  20.439  0.00  0.00    +0.000 OA
ATOM      5  N   UNL     1       4.930   3.429  18.714  0.00  0.00    +0.000 N 
ATOM      6  C   UNL     1       5.179   4.295  17.652  0.00  0.00    +0.000 A 
ATOM      7  C   UNL     1       6.292   4.007  16.851  0.00  0.00    +0.000 A 
ATOM      8  C   UNL     1       6.643   4.864  15.818  0.00  0.00    +0.000 A 
ATOM      9  C   UNL     1       5.879   6.000  15.597  0.00  0.00    +0.000 A 
ATOM     10  C   UNL     1       4.756   6.286  16.399  0.00  0.00    +0.000 A 
ATOM     11  C   UNL     1       4.380   5.446  17.459  0.00  0.00    +0.000 A 
ATOM     12  N   UNL     1       3.255   5.696  18.370  0.00  0.00    +0.000 N 
ATOM     13  C   UNL     1       2.751   6.999  18.530  0.00  0.00    +0.000 C 
ATOM     14  O   UNL     1       3.168   7.972  17.885  0.00  0.00    +0.000 OA
ATOM     15  H   UNL     1       5.601   2.722  18.978  0.00  0.00    +0.000 HD
ENDROOT
BRANCH  13  16
ATOM     16  C   UNL     1       1.594   7.301  19.502  0.00  0.00    +0.000 C 
BRANCH  16  17
ATOM     17  N   UNL     1       1.856   8.533  20.246  0.00  0.00    +0.000 N 
ATOM     18  N   UNL     1       1.703   8.441  21.636  0.00  0.00    +0.000 NA
ATOM     19  C   UNL     1       0.834   9.353  21.920  0.00  0.00    +0.000 A 
ATOM     20  C   UNL     1       0.123   9.508  23.199  0.00  0.00    +0.000 A 
ATOM     21  C   UNL     1      -0.955  10.303  23.203  0.00  0.00    +0.000 A 
ATOM     22  C   UNL     1      -1.324  11.080  22.029  0.00  0.00    +0.000 A 
ATOM     23  C   UNL     1      -0.585  11.009  20.914  0.00  0.00    +0.000 A 
ATOM     24  N   UNL     1       0.474  10.149  20.887  0.00  0.00    +0.000 N 
ATOM     25  C   UNL     1       1.139   9.679  19.785  0.00  0.00    +0.000 A 
ATOM     26  O   UNL     1       1.036  10.055  18.627  0.00  0.00    +0.000 OA
ENDBRANCH  16  17
ENDBRANCH  13  16
TORSDOF 2
ENDMDL
MODEL 2
REMARK VINA RESULT:      -7.7      2.620      4.364
REMARK  Name = 
REMARK  3 active torsions:
REMARK  status: ('A' for Active; 'I' for Inactive)
REMARK    1  A    between atoms: C_1  and  C_2
REMARK    2  A    between atoms: C_13  and  C_15
REMARK    3  A    between atoms: C_15  and  N_16
REMARK                            x       y       z     vdW  Elec       q    Type
REMARK                         _______ _______ _______ _____ _____    ______ ____
ROOT
ATOM      1  C   UNL     1       6.591   5.416  19.487  0.00  0.00    +0.000 C 
ATOM      2  C   UNL     1       6.787   5.120  18.001  0.00  0.00    +0.000 C 
ATOM      3  C   UNL     1       7.391   6.395  17.381  0.00  0.00    +0.000 C 
ATOM      4  O   UNL     1       7.817   7.354  18.021  0.00  0.00    +0.000 OA
ATOM      5  N   UNL     1       7.614   6.342  16.039  0.00  0.00    +0.000 N 
ATOM      6  C   UNL     1       7.105   5.329  15.229  0.00  0.00    +0.000 A 
ATOM      7  C   UNL     1       7.543   5.304  13.899  0.00  0.00    +0.000 A 
ATOM      8  C   UNL     1       7.026   4.368  13.016  0.00  0.00    +0.000 A 
ATOM      9  C   UNL     1       6.074   3.467  13.471  0.00  0.00    +0.000 A 
ATOM     10  C   UNL     1       5.637   3.489  14.811  0.00  0.00    +0.000 A 
ATOM     11  C   UNL     1       6.132   4.430  15.727  0.00  0.00    +0.000 A 
ATOM     12  N   UNL     1       5.696   4.551  17.125  0.00  0.00    +0.000 N 
ATOM     13  C   UNL     1       4.448   4.038  17.523  0.00  0.00    +0.000 C 
ATOM     14  O   UNL     1       3.696   3.416  16.759  0.00  0.00    +0.000 OA
ATOM     15  H   UNL     1       8.152   7.101  15.647  0.00  0.00    +0.000 HD
ENDROOT
BRANCH  13  16
ATOM     16  C   UNL     1       3.946   4.177  18.973  0.00  0.00    +0.000 C 
BRANCH  16  17
ATOM     17  N   UNL     1       2.591   4.727  18.997  0.00  0.00    +0.000 N 
ATOM     18  N   UNL     1       2.317   5.694  18.020  0.00  0.00    +0.000 NA
ATOM     19  C   UNL     1       1.930   6.725  18.695  0.00  0.00    +0.000 A 
ATOM     20  C   UNL     1       1.771   8.093  18.178  0.00  0.00    +0.000 A 
ATOM     21  C   UNL     1       1.670   9.077  19.081  0.00  0.00    +0.000 A 
ATOM     22  C   UNL     1       1.587   8.788  20.505  0.00  0.00    +0.000 A 
ATOM     23  C   UNL     1       1.614   7.521  20.939  0.00  0.00    +0.000 A 
ATOM     24  N   UNL     1       1.784   6.523  20.024  0.00  0.00    +0.000 N 
ATOM     25  C   UNL     1       2.167   5.229  20.265  0.00  0.00    +0.000 A 
ATOM     26  O   UNL     1       2.270   4.661  21.342  0.00  0.00    +0.000 OA
ENDBRANCH  16  17
ENDBRANCH  13  16
TORSDOF 2
ENDMDL
MODEL 3
REMARK VINA RESULT:      -7.6      1.867      7.603
REMARK  Name = 
REMARK  3 active torsions:
REMARK  status: ('A' for Active; 'I' for Inactive)
REMARK    1  A    between atoms: C_1  and  C_2
REMARK    2  A    between atoms: C_13  and  C_15
REMARK    3  A    between atoms: C_15  and  N_16
REMARK                            x       y       z     vdW  Elec       q    Type
REMARK                         _______ _______ _______ _____ _____    ______ ____
ROOT
ATOM      1  C   UNL     1       1.381   7.137  21.033  0.00  0.00    +0.000 C 
ATOM      2  C   UNL     1       1.189   8.637  20.823  0.00  0.00    +0.000 C 
ATOM      3  C   UNL     1      -0.157   8.999  21.480  0.00  0.00    +0.000 C 
ATOM      4  O   UNL     1      -0.808   8.250  22.204  0.00  0.00    +0.000 OA
ATOM      5  N   UNL     1      -0.526  10.305  21.372  0.00  0.00    +0.000 N 
ATOM      6  C   UNL     1       0.112  11.202  20.518  0.00  0.00    +0.000 A 
ATOM      7  C   UNL     1      -0.260  12.548  20.625  0.00  0.00    +0.000 A 
ATOM      8  C   UNL     1       0.282  13.488  19.760  0.00  0.00    +0.000 A 
ATOM      9  C   UNL     1       1.190  13.072  18.797  0.00  0.00    +0.000 A 
ATOM     10  C   UNL     1       1.568  11.718  18.694  0.00  0.00    +0.000 A 
ATOM     11  C   UNL     1       1.031  10.741  19.546  0.00  0.00    +0.000 A 
ATOM     12  N   UNL     1       1.336   9.305  19.476  0.00  0.00    +0.000 N 
ATOM     13  C   UNL     1       1.834   8.746  18.285  0.00  0.00    +0.000 C 
ATOM     14  O   UNL     1       2.098   9.420  17.277  0.00  0.00    +0.000 OA
ATOM     15  H   UNL     1      -1.319  10.591  21.928  0.00  0.00    +0.000 HD
ENDROOT
BRANCH  13  16
ATOM     16  C   UNL     1       2.133   7.239  18.166  0.00  0.00    +0.000 C 
BRANCH  16  17
ATOM     17  N   UNL     1       3.576   7.000  18.172  0.00  0.00    +0.000 N 
ATOM     18  N   UNL     1       4.250   7.357  16.997  0.00  0.00    +0.000 NA
ATOM     19  C   UNL     1       4.838   6.268  16.626  0.00  0.00    +0.000 A 
ATOM     20  C   UNL     1       5.466   6.021  15.319  0.00  0.00    +0.000 A 
ATOM     21  C   UNL     1       5.740   4.747  15.007  0.00  0.00    +0.000 A 
ATOM     22  C   UNL     1       5.549   3.676  15.974  0.00  0.00    +0.000 A 
ATOM     23  C   UNL     1       5.088   3.950  17.201  0.00  0.00    +0.000 A 
ATOM     24  N   UNL     1       4.745   5.237  17.496  0.00  0.00    +0.000 N 
ATOM     25  C   UNL     1       3.965   5.674  18.534  0.00  0.00    +0.000 A 
ATOM     26  O   UNL     1       3.559   5.035  19.494  0.00  0.00    +0.000 OA
ENDBRANCH  16  17
ENDBRANCH  13  16
TORSDOF 2
ENDMDL
MODEL 4
REMARK VINA RESULT:      -7.5      1.756      7.978
REMARK  Name = 
REMARK  3 active torsions:
REMARK  status: ('A' for Active; 'I' for Inactive)
REMARK    1  A    between atoms: C_1  and  C_2
REMARK    2  A    between atoms: C_13  and  C_15
REMARK    3  A    between atoms: C_15  and  N_16
REMARK                            x       y       z     vdW  Elec       q    Type
REMARK                         _______ _______ _______ _____ _____    ______ ____
ROOT
ATOM      1  C   UNL     1       1.867   9.828  17.418  0.00  0.00    +0.000 C 
ATOM      2  C   UNL     1       1.108  10.019  18.729  0.00  0.00    +0.000 C 
ATOM      3  C   UNL     1       1.395  11.461  19.189  0.00  0.00    +0.000 C 
ATOM      4  O   UNL     1       1.946  12.321  18.506  0.00  0.00    +0.000 OA
ATOM      5  N   UNL     1       0.824  11.820  20.372  0.00  0.00    +0.000 N 
ATOM      6  C   UNL     1       0.242  10.899  21.241  0.00  0.00    +0.000 A 
ATOM      7  C   UNL     1      -0.451  11.419  22.341  0.00  0.00    +0.000 A 
ATOM      8  C   UNL     1      -0.995  10.561  23.286  0.00  0.00    +0.000 A 
ATOM      9  C   UNL     1      -0.840   9.192  23.121  0.00  0.00    +0.000 A 
ATOM     10  C   UNL     1      -0.147   8.670  22.011  0.00  0.00    +0.000 A 
ATOM     11  C   UNL     1       0.425   9.510  21.043  0.00  0.00    +0.000 A 
ATOM     12  N   UNL     1       1.201   9.049  19.883  0.00  0.00    +0.000 N 
ATOM     13  C   UNL     1       1.804   7.778  19.896  0.00  0.00    +0.000 C 
ATOM     14  O   UNL     1       1.666   6.971  20.828  0.00  0.00    +0.000 OA
ATOM     15  H   UNL     1       0.868  12.801  20.608  0.00  0.00    +0.000 HD
ENDROOT
BRANCH  13  16
ATOM     16  C   UNL     1       2.652   7.277  18.711  0.00  0.00    +0.000 C 
BRANCH  16  17
ATOM     17  N   UNL     1       3.281   5.996  19.035  0.00  0.00    +0.000 N 
ATOM     18  N   UNL     1       4.648   6.057  19.337  0.00  0.00    +0.000 NA
ATOM     19  C   UNL     1       5.195   5.248  18.491  0.00  0.00    +0.000 A 
ATOM     20  C   UNL     1       6.633   5.134  18.201  0.00  0.00    +0.000 A 
ATOM     21  C   UNL     1       6.979   4.477  17.087  0.00  0.00    +0.000 A 
ATOM     22  C   UNL     1       5.983   3.792  16.275  0.00  0.00    +0.000 A 
ATOM     23  C   UNL     1       4.692   3.813  16.632  0.00  0.00    +0.000 A 
ATOM     24  N   UNL     1       4.331   4.539  17.730  0.00  0.00    +0.000 N 
ATOM     25  C   UNL     1       3.074   4.963  18.071  0.00  0.00    +0.000 A 
ATOM     26  O   UNL     1       2.008   4.644  17.566  0.00  0.00    +0.000 OA
ENDBRANCH  16  17
ENDBRANCH  13  16
TORSDOF 2
ENDMDL
MODEL 5
REMARK VINA RESULT:      -7.5      2.724      6.540
REMARK  Name = 
REMARK  3 active torsions:
REMARK  status: ('A' for Active; 'I' for Inactive)
REMARK    1  A    between atoms: C_1  and  C_2
REMARK    2  A    between atoms: C_13  and  C_15
REMARK    3  A    between atoms: C_15  and  N_16
REMARK                            x       y       z     vdW  Elec       q    Type
REMARK                         _______ _______ _______ _____ _____    ______ ____
ROOT
ATOM      1  C   UNL     1       4.080   2.312  19.229  0.00  0.00    +0.000 C 
ATOM      2  C   UNL     1       3.466   3.632  19.691  0.00  0.00    +0.000 C 
ATOM      3  C   UNL     1       2.125   3.276  20.360  0.00  0.00    +0.000 C 
ATOM      4  O   UNL     1       1.761   2.137  20.642  0.00  0.00    +0.000 OA
ATOM      5  N   UNL     1       1.402   4.336  20.817  0.00  0.00    +0.000 N 
ATOM      6  C   UNL     1       1.703   5.655  20.485  0.00  0.00    +0.000 A 
ATOM      7  C   UNL     1       0.982   6.654  21.151  0.00  0.00    +0.000 A 
ATOM      8  C   UNL     1       1.178   7.987  20.821  0.00  0.00    +0.000 A 
ATOM      9  C   UNL     1       2.092   8.308  19.828  0.00  0.00    +0.000 A 
ATOM     10  C   UNL     1       2.821   7.302  19.162  0.00  0.00    +0.000 A 
ATOM     11  C   UNL     1       2.639   5.944  19.464  0.00  0.00    +0.000 A 
ATOM     12  N   UNL     1       3.322   4.834  18.786  0.00  0.00    +0.000 N 
ATOM     13  C   UNL     1       3.866   5.017  17.502  0.00  0.00    +0.000 C 
ATOM     14  O   UNL     1       3.859   6.108  16.911  0.00  0.00    +0.000 OA
ATOM     15  H   UNL     1       0.604   4.114  21.396  0.00  0.00    +0.000 HD
ENDROOT
BRANCH  13  16
ATOM     16  C   UNL     1       4.560   3.866  16.749  0.00  0.00    +0.000 C 
BRANCH  16  17
ATOM     17  N   UNL     1       6.004   4.095  16.678  0.00  0.00    +0.000 N 
ATOM     18  N   UNL     1       6.668   4.135  17.912  0.00  0.00    +0.000 NA
ATOM     19  C   UNL     1       7.252   5.287  17.920  0.00  0.00    +0.000 A 
ATOM     20  C   UNL     1       7.867   5.941  19.084  0.00  0.00    +0.000 A 
ATOM     21  C   UNL     1       8.139   7.248  18.976  0.00  0.00    +0.000 A 
ATOM     22  C   UNL     1       7.955   7.954  17.716  0.00  0.00    +0.000 A 
ATOM     23  C   UNL     1       7.505   7.301  16.636  0.00  0.00    +0.000 A 
ATOM     24  N   UNL     1       7.166   5.985  16.765  0.00  0.00    +0.000 N 
ATOM     25  C   UNL     1       6.395   5.237  15.915  0.00  0.00    +0.000 A 
ATOM     26  O   UNL     1       5.997   5.536  14.798  0.00  0.00    +0.000 OA
ENDBRANCH  16  17
ENDBRANCH  13  16
TORSDOF 2
ENDMDL
MODEL 6
REMARK VINA RESULT:      -7.5      2.523      7.762
REMARK  Name = 
REMARK  3 active torsions:
REMARK  status: ('A' for Active; 'I' for Inactive)
REMARK    1  A    between atoms: C_1  and  C_2
REMARK    2  A    between atoms: C_13  and  C_15
REMARK    3  A    between atoms: C_15  and  N_16
REMARK                            x       y       z     vdW  Elec       q    Type
REMARK                         _______ _______ _______ _____ _____    ______ ____
ROOT
ATOM      1  C   UNL     1       2.031   8.826  17.590  0.00  0.00    +0.000 C 
ATOM      2  C   UNL     1       1.269   9.541  18.704  0.00  0.00    +0.000 C 
ATOM      3  C   UNL     1       1.760  11.002  18.697  0.00  0.00    +0.000 C 
ATOM      4  O   UNL     1       2.459  11.504  17.820  0.00  0.00    +0.000 OA
ATOM      5  N   UNL     1       1.214  11.805  19.651  0.00  0.00    +0.000 N 
ATOM      6  C   UNL     1       0.470  11.309  20.720  0.00  0.00    +0.000 A 
ATOM      7  C   UNL     1      -0.170  12.252  21.535  0.00  0.00    +0.000 A 
ATOM      8  C   UNL     1      -0.869  11.836  22.659  0.00  0.00    +0.000 A 
ATOM      9  C   UNL     1      -0.922  10.482  22.956  0.00  0.00    +0.000 A 
ATOM     10  C   UNL     1      -0.282   9.534  22.133  0.00  0.00    +0.000 A 
ATOM     11  C   UNL     1       0.442   9.922  20.996  0.00  0.00    +0.000 A 
ATOM     12  N   UNL     1       1.175   9.004  20.113  0.00  0.00    +0.000 N 
ATOM     13  C   UNL     1       1.574   7.739  20.583  0.00  0.00    +0.000 C 
ATOM     14  O   UNL     1       1.284   7.312  21.710  0.00  0.00    +0.000 OA
ATOM     15  H   UNL     1       1.401  12.793  19.562  0.00  0.00    +0.000 HD
ENDROOT
BRANCH  13  16
ATOM     16  C   UNL     1       2.372   6.765  19.695  0.00  0.00    +0.000 C 
BRANCH  16  17
ATOM     17  N   UNL     1       1.836   5.408  19.811  0.00  0.00    +0.000 N 
ATOM     18  N   UNL     1       2.499   4.577  20.725  0.00  0.00    +0.000 NA
ATOM     19  C   UNL     1       2.862   3.557  20.019  0.00  0.00    +0.000 A 
ATOM     20  C   UNL     1       3.813   2.512  20.427  0.00  0.00    +0.000 A 
ATOM     21  C   UNL     1       4.301   1.722  19.462  0.00  0.00    +0.000 A 
ATOM     22  C   UNL     1       3.807   1.809  18.095  0.00  0.00    +0.000 A 
ATOM     23  C   UNL     1       2.850   2.692  17.779  0.00  0.00    +0.000 A 
ATOM     24  N   UNL     1       2.402   3.542  18.748  0.00  0.00    +0.000 N 
ATOM     25  C   UNL     1       1.700   4.706  18.575  0.00  0.00    +0.000 A 
ATOM     26  O   UNL     1       1.190   5.134  17.549  0.00  0.00    +0.000 OA
ENDBRANCH  16  17
ENDBRANCH  13  16
TORSDOF 2
ENDMDL
MODEL 7
REMARK VINA RESULT:      -7.5      2.167      7.898
REMARK  Name = 
REMARK  3 active torsions:
REMARK  status: ('A' for Active; 'I' for Inactive)
REMARK    1  A    between atoms: C_1  and  C_2
REMARK    2  A    between atoms: C_13  and  C_15
REMARK    3  A    between atoms: C_15  and  N_16
REMARK                            x       y       z     vdW  Elec       q    Type
REMARK                         _______ _______ _______ _____ _____    ______ ____
ROOT
ATOM      1  C   UNL     1       1.822   9.376  17.600  0.00  0.00    +0.000 C 
ATOM      2  C   UNL     1       1.067   9.956  18.795  0.00  0.00    +0.000 C 
ATOM      3  C   UNL     1       1.504  11.429  18.910  0.00  0.00    +0.000 C 
ATOM      4  O   UNL     1       2.157  12.037  18.065  0.00  0.00    +0.000 OA
ATOM      5  N   UNL     1       0.957  12.120  19.948  0.00  0.00    +0.000 N 
ATOM      6  C   UNL     1       0.264  11.500  20.986  0.00  0.00    +0.000 A 
ATOM      7  C   UNL     1      -0.385  12.338  21.901  0.00  0.00    +0.000 A 
ATOM      8  C   UNL     1      -1.035  11.794  23.000  0.00  0.00    +0.000 A 
ATOM      9  C   UNL     1      -1.029  10.418  23.172  0.00  0.00    +0.000 A 
ATOM     10  C   UNL     1      -0.380   9.574  22.248  0.00  0.00    +0.000 A 
ATOM     11  C   UNL     1       0.296  10.093  21.133  0.00  0.00    +0.000 A 
ATOM     12  N   UNL     1       1.035   9.289  20.150  0.00  0.00    +0.000 N 
ATOM     13  C   UNL     1       1.494   8.003  20.490  0.00  0.00    +0.000 C 
ATOM     14  O   UNL     1       1.254   7.463  21.580  0.00  0.00    +0.000 OA
ATOM     15  H   UNL     1       1.105  13.119  19.946  0.00  0.00    +0.000 HD
ENDROOT
BRANCH  13  16
ATOM     16  C   UNL     1       2.300   7.146  19.495  0.00  0.00    +0.000 C 
BRANCH  16  17
ATOM     17  N   UNL     1       2.723   5.893  20.121  0.00  0.00    +0.000 N 
ATOM     18  N   UNL     1       3.979   5.415  19.723  0.00  0.00    +0.000 NA
ATOM     19  C   UNL     1       3.738   4.227  19.276  0.00  0.00    +0.000 A 
ATOM     20  C   UNL     1       4.661   3.387  18.498  0.00  0.00    +0.000 A 
ATOM     21  C   UNL     1       4.136   2.333  17.861  0.00  0.00    +0.000 A 
ATOM     22  C   UNL     1       2.739   1.963  18.041  0.00  0.00    +0.000 A 
ATOM     23  C   UNL     1       1.951   2.680  18.852  0.00  0.00    +0.000 A 
ATOM     24  N   UNL     1       2.469   3.792  19.449  0.00  0.00    +0.000 N 
ATOM     25  C   UNL     1       1.779   4.825  20.027  0.00  0.00    +0.000 A 
ATOM     26  O   UNL     1       0.584   4.887  20.277  0.00  0.00    +0.000 OA
ENDBRANCH  16  17
ENDBRANCH  13  16
TORSDOF 2
ENDMDL
MODEL 8
REMARK VINA RESULT:      -7.4      3.036      7.791
REMARK  Name = 
REMARK  3 active torsions:
REMARK  status: ('A' for Active; 'I' for Inactive)
REMARK    1  A    between atoms: C_1  and  C_2
REMARK    2  A    between atoms: C_13  and  C_15
REMARK    3  A    between atoms: C_15  and  N_16
REMARK                            x       y       z     vdW  Elec       q    Type
REMARK                         _______ _______ _______ _____ _____    ______ ____
ROOT
ATOM      1  C   UNL     1      -0.963  10.328  20.179  0.00  0.00    +0.000 C 
ATOM      2  C   UNL     1      -0.227  11.631  19.875  0.00  0.00    +0.000 C 
ATOM      3  C   UNL     1      -1.312  12.681  19.565  0.00  0.00    +0.000 C 
ATOM      4  O   UNL     1      -2.516  12.522  19.749  0.00  0.00    +0.000 OA
ATOM      5  N   UNL     1      -0.849  13.918  19.236  0.00  0.00    +0.000 N 
ATOM      6  C   UNL     1       0.489  14.170  18.941  0.00  0.00    +0.000 A 
ATOM      7  C   UNL     1       0.859  15.512  18.779  0.00  0.00    +0.000 A 
ATOM      8  C   UNL     1       2.158  15.834  18.414  0.00  0.00    +0.000 A 
ATOM      9  C   UNL     1       3.075  14.812  18.216  0.00  0.00    +0.000 A 
ATOM     10  C   UNL     1       2.704  13.463  18.384  0.00  0.00    +0.000 A 
ATOM     11  C   UNL     1       1.396  13.102  18.741  0.00  0.00    +0.000 A 
ATOM     12  N   UNL     1       0.916  11.721  18.891  0.00  0.00    +0.000 N 
ATOM     13  C   UNL     1       1.598  10.664  18.262  0.00  0.00    +0.000 C 
ATOM     14  O   UNL     1       2.647  10.820  17.619  0.00  0.00    +0.000 OA
ATOM     15  H   UNL     1      -1.540  14.654  19.186  0.00  0.00    +0.000 HD
ENDROOT
BRANCH  13  16
ATOM     16  C   UNL     1       1.104   9.208  18.372  0.00  0.00    +0.000 C 
BRANCH  16  17
ATOM     17  N   UNL     1       2.191   8.328  18.803  0.00  0.00    +0.000 N 
ATOM     18  N   UNL     1       2.584   7.358  17.871  0.00  0.00    +0.000 NA
ATOM     19  C   UNL     1       2.446   6.239  18.502  0.00  0.00    +0.000 A 
ATOM     20  C   UNL     1       2.474   4.895  17.905  0.00  0.00    +0.000 A 
ATOM     21  C   UNL     1       2.005   3.887  18.651  0.00  0.00    +0.000 A 
ATOM     22  C   UNL     1       1.612   4.095  20.037  0.00  0.00    +0.000 A 
ATOM     23  C   UNL     1       1.711   5.311  20.591  0.00  0.00    +0.000 A 
ATOM     24  N   UNL     1       2.126   6.351  19.811  0.00  0.00    +0.000 N 
ATOM     25  C   UNL     1       1.984   7.690  20.063  0.00  0.00    +0.000 A 
ATOM     26  O   UNL     1       1.616   8.227  21.098  0.00  0.00    +0.000 OA
ENDBRANCH  16  17
ENDBRANCH  13  16
TORSDOF 2
ENDMDL
MODEL 9
REMARK VINA RESULT:      -7.3      2.363      7.769
REMARK  Name = 
REMARK  3 active torsions:
REMARK  status: ('A' for Active; 'I' for Inactive)
REMARK    1  A    between atoms: C_1  and  C_2
REMARK    2  A    between atoms: C_13  and  C_15
REMARK    3  A    between atoms: C_15  and  N_16
REMARK                            x       y       z     vdW  Elec       q    Type
REMARK                         _______ _______ _______ _____ _____    ______ ____
ROOT
ATOM      1  C   UNL     1       1.911   9.602  17.765  0.00  0.00    +0.000 C 
ATOM      2  C   UNL     1       1.084  10.208  18.897  0.00  0.00    +0.000 C 
ATOM      3  C   UNL     1       1.462  11.701  18.959  0.00  0.00    +0.000 C 
ATOM      4  O   UNL     1       2.130  12.292  18.114  0.00  0.00    +0.000 OA
ATOM      5  N   UNL     1       0.845  12.418  19.938  0.00  0.00    +0.000 N 
ATOM      6  C   UNL     1       0.130  11.822  20.974  0.00  0.00    +0.000 A 
ATOM      7  C   UNL     1      -0.589  12.678  21.819  0.00  0.00    +0.000 A 
ATOM      8  C   UNL     1      -1.267  12.162  22.914  0.00  0.00    +0.000 A 
ATOM      9  C   UNL     1      -1.219  10.796  23.154  0.00  0.00    +0.000 A 
ATOM     10  C   UNL     1      -0.500   9.936  22.300  0.00  0.00    +0.000 A 
ATOM     11  C   UNL     1       0.205  10.426  21.191  0.00  0.00    +0.000 A 
ATOM     12  N   UNL     1       1.016   9.605  20.281  0.00  0.00    +0.000 N 
ATOM     13  C   UNL     1       1.505   8.355  20.703  0.00  0.00    +0.000 C 
ATOM     14  O   UNL     1       1.237   7.859  21.807  0.00  0.00    +0.000 OA
ATOM     15  H   UNL     1       0.957  13.421  19.893  0.00  0.00    +0.000 HD
ENDROOT
BRANCH  13  16
ATOM     16  C   UNL     1       2.385   7.484  19.786  0.00  0.00    +0.000 C 
BRANCH  16  17
ATOM     17  N   UNL     1       1.743   6.194  19.533  0.00  0.00    +0.000 N 
ATOM     18  N   UNL     1       1.357   5.479  20.675  0.00  0.00    +0.000 NA
ATOM     19  C   UNL     1       1.961   4.343  20.556  0.00  0.00    +0.000 A 
ATOM     20  C   UNL     1       2.107   3.323  21.606  0.00  0.00    +0.000 A 
ATOM     21  C   UNL     1       3.021   2.366  21.401  0.00  0.00    +0.000 A 
ATOM     22  C   UNL     1       3.740   2.267  20.138  0.00  0.00    +0.000 A 
ATOM     23  C   UNL     1       3.497   3.142  19.154  0.00  0.00    +0.000 A 
ATOM     24  N   UNL     1       2.614   4.157  19.387  0.00  0.00    +0.000 N 
ATOM     25  C   UNL     1       2.472   5.317  18.673  0.00  0.00    +0.000 A 
ATOM     26  O   UNL     1       2.977   5.607  17.598  0.00  0.00    +0.000 OA
ENDBRANCH  16  17
ENDBRANCH  13  16
TORSDOF 2
ENDMDL
