MODEL 1
REMARK VINA RESULT:      -9.0      0.000      0.000
REMARK  Name = 
REMARK  3 active torsions:
REMARK  status: ('A' for Active; 'I' for Inactive)
REMARK    1  A    between atoms: C_2  and  C_3
REMARK    2  A    between atoms: C_3  and  N_4
REMARK    3  A    between atoms: C_20  and  C_21
REMARK                            x       y       z     vdW  Elec       q    Type
REMARK                         _______ _______ _______ _____ _____    ______ ____
ROOT
ATOM      1  O   UNL     1       4.330   6.682  18.362  0.00  0.00    +0.000 OA
ATOM      2  C   UNL     1       4.379   5.591  18.932  0.00  0.00    +0.000 C 
ATOM      3  N   UNL     1       3.384   5.169  19.802  0.00  0.00    +0.000 N 
ATOM      4  C   UNL     1       3.334   3.890  20.503  0.00  0.00    +0.000 C 
ATOM      5  C   UNL     1       1.884   3.448  20.386  0.00  0.00    +0.000 C 
ATOM      6  C   UNL     1       1.137   4.769  20.452  0.00  0.00    +0.000 C 
ATOM      7  C   UNL     1       2.043   5.720  19.647  0.00  0.00    +0.000 C 
ENDROOT
BRANCH   7   8
ATOM      8  C   UNL     1       1.812   7.153  20.063  0.00  0.00    +0.000 A 
ATOM      9  C   UNL     1       1.627   7.565  21.392  0.00  0.00    +0.000 A 
ATOM     10  C   UNL     1       1.173   8.861  21.673  0.00  0.00    +0.000 A 
ATOM     11  C   UNL     1       0.885   9.740  20.630  0.00  0.00    +0.000 A 
ATOM     12  C   UNL     1       1.172   9.368  19.321  0.00  0.00    +0.000 A 
ATOM     13  C   UNL     1       1.642   8.093  19.036  0.00  0.00    +0.000 A 
ATOM     14  O   UNL     1       0.941  10.197  18.257  0.00  0.00    +0.000 OA
ATOM     15  C   UNL     1      -0.282  10.879  18.508  0.00  0.00    +0.000 C 
ATOM     16  C   UNL     1      -0.234  11.648  19.825  0.00  0.00    +0.000 C 
ATOM     17  O   UNL     1       0.274  10.919  20.951  0.00  0.00    +0.000 OA
ENDBRANCH   7   8
BRANCH   2  18
ATOM     18  C   UNL     1       5.523   4.605  18.685  0.00  0.00    +0.000 C 
BRANCH  18  19
ATOM     19  N   UNL     1       6.017   4.705  17.323  0.00  0.00    +0.000 N 
ATOM     20  C   UNL     1       7.068   5.536  17.032  0.00  0.00    +0.000 A 
ATOM     21  N   UNL     1       7.582   5.692  15.858  0.00  0.00    +0.000 NA
ATOM     22  C   UNL     1       7.003   4.981  14.796  0.00  0.00    +0.000 A 
ATOM     23  C   UNL     1       7.545   5.124  13.520  0.00  0.00    +0.000 A 
ATOM     24  C   UNL     1       6.996   4.421  12.449  0.00  0.00    +0.000 A 
ATOM     25  F   UNL     1       7.524   4.564  11.230  0.00  0.00    +0.000 F 
ATOM     26  C   UNL     1       5.904   3.575  12.626  0.00  0.00    +0.000 A 
ATOM     27  C   UNL     1       5.352   3.426  13.895  0.00  0.00    +0.000 A 
ATOM     28  C   UNL     1       5.906   4.130  14.972  0.00  0.00    +0.000 A 
ATOM     29  C   UNL     1       5.363   3.983  16.335  0.00  0.00    +0.000 A 
ATOM     30  O   UNL     1       4.409   3.240  16.544  0.00  0.00    +0.000 OA
ENDBRANCH  18  19
ENDBRANCH   2  18
TORSDOF 3
ENDMDL
MODEL 2
REMARK VINA RESULT:      -8.1      0.989      1.560
REMARK  Name = 
REMARK  3 active torsions:
REMARK  status: ('A' for Active; 'I' for Inactive)
REMARK    1  A    between atoms: C_2  and  C_3
REMARK    2  A    between atoms: C_3  and  N_4
REMARK    3  A    between atoms: C_20  and  C_21
REMARK                            x       y       z     vdW  Elec       q    Type
REMARK                         _______ _______ _______ _____ _____    ______ ____
ROOT
ATOM      1  O   UNL     1       4.564   7.050  18.183  0.00  0.00    +0.000 OA
ATOM      2  C   UNL     1       4.695   5.935  18.688  0.00  0.00    +0.000 C 
ATOM      3  N   UNL     1       3.716   5.371  19.494  0.00  0.00    +0.000 N 
ATOM      4  C   UNL     1       3.761   4.051  20.116  0.00  0.00    +0.000 C 
ATOM      5  C   UNL     1       2.362   3.490  19.919  0.00  0.00    +0.000 C 
ATOM      6  C   UNL     1       1.495   4.733  20.035  0.00  0.00    +0.000 C 
ATOM      7  C   UNL     1       2.335   5.808  19.323  0.00  0.00    +0.000 C 
ENDROOT
BRANCH   7   8
ATOM      8  C   UNL     1       1.961   7.186  19.814  0.00  0.00    +0.000 A 
ATOM      9  C   UNL     1       1.691   7.496  21.157  0.00  0.00    +0.000 A 
ATOM     10  C   UNL     1       1.112   8.726  21.496  0.00  0.00    +0.000 A 
ATOM     11  C   UNL     1       0.784   9.642  20.497  0.00  0.00    +0.000 A 
ATOM     12  C   UNL     1       1.152   9.379  19.181  0.00  0.00    +0.000 A 
ATOM     13  C   UNL     1       1.744   8.172  18.840  0.00  0.00    +0.000 A 
ATOM     14  O   UNL     1       0.886  10.251  18.160  0.00  0.00    +0.000 OA
ATOM     15  C   UNL     1      -0.402  10.807  18.399  0.00  0.00    +0.000 C 
ATOM     16  C   UNL     1      -0.472  11.491  19.761  0.00  0.00    +0.000 C 
ATOM     17  O   UNL     1       0.059  10.739  20.862  0.00  0.00    +0.000 OA
ENDBRANCH   7   8
BRANCH   2  18
ATOM     18  C   UNL     1       5.931   5.072  18.426  0.00  0.00    +0.000 C 
BRANCH  18  19
ATOM     19  N   UNL     1       6.028   4.707  17.023  0.00  0.00    +0.000 N 
ATOM     20  C   UNL     1       5.277   3.674  16.527  0.00  0.00    +0.000 A 
ATOM     21  N   UNL     1       5.287   3.276  15.299  0.00  0.00    +0.000 NA
ATOM     22  C   UNL     1       6.154   3.932  14.412  0.00  0.00    +0.000 A 
ATOM     23  C   UNL     1       6.179   3.530  13.078  0.00  0.00    +0.000 A 
ATOM     24  C   UNL     1       7.024   4.171  12.174  0.00  0.00    +0.000 A 
ATOM     25  F   UNL     1       7.039   3.779  10.897  0.00  0.00    +0.000 F 
ATOM     26  C   UNL     1       7.857   5.211  12.579  0.00  0.00    +0.000 A 
ATOM     27  C   UNL     1       7.843   5.621  13.909  0.00  0.00    +0.000 A 
ATOM     28  C   UNL     1       6.992   4.978  14.817  0.00  0.00    +0.000 A 
ATOM     29  C   UNL     1       6.934   5.397  16.229  0.00  0.00    +0.000 A 
ATOM     30  O   UNL     1       7.640   6.316  16.633  0.00  0.00    +0.000 OA
ENDBRANCH  18  19
ENDBRANCH   2  18
TORSDOF 3
ENDMDL
MODEL 3
REMARK VINA RESULT:      -8.0      3.130      8.116
REMARK  Name = 
REMARK  3 active torsions:
REMARK  status: ('A' for Active; 'I' for Inactive)
REMARK    1  A    between atoms: C_2  and  C_3
REMARK    2  A    between atoms: C_3  and  N_4
REMARK    3  A    between atoms: C_20  and  C_21
REMARK                            x       y       z     vdW  Elec       q    Type
REMARK                         _______ _______ _______ _____ _____    ______ ____
ROOT
ATOM      1  O   UNL     1       4.447   5.891  19.669  0.00  0.00    +0.000 OA
ATOM      2  C   UNL     1       3.282   5.570  19.438  0.00  0.00    +0.000 C 
ATOM      3  N   UNL     1       2.958   4.566  18.537  0.00  0.00    +0.000 N 
ATOM      4  C   UNL     1       1.616   4.092  18.214  0.00  0.00    +0.000 C 
ATOM      5  C   UNL     1       1.749   2.579  18.159  0.00  0.00    +0.000 C 
ATOM      6  C   UNL     1       3.146   2.397  17.591  0.00  0.00    +0.000 C 
ATOM      7  C   UNL     1       3.945   3.526  18.269  0.00  0.00    +0.000 C 
ENDROOT
BRANCH   7   8
ATOM      8  C   UNL     1       5.155   3.891  17.443  0.00  0.00    +0.000 A 
ATOM      9  C   UNL     1       6.121   4.830  17.837  0.00  0.00    +0.000 A 
ATOM     10  C   UNL     1       7.070   5.296  16.918  0.00  0.00    +0.000 A 
ATOM     11  C   UNL     1       7.047   4.841  15.600  0.00  0.00    +0.000 A 
ATOM     12  C   UNL     1       6.160   3.831  15.240  0.00  0.00    +0.000 A 
ATOM     13  C   UNL     1       5.230   3.350  16.151  0.00  0.00    +0.000 A 
ATOM     14  O   UNL     1       6.109   3.321  13.972  0.00  0.00    +0.000 OA
ATOM     15  C   UNL     1       6.293   4.406  13.069  0.00  0.00    +0.000 C 
ATOM     16  C   UNL     1       7.607   5.136  13.333  0.00  0.00    +0.000 C 
ATOM     17  O   UNL     1       7.872   5.461  14.705  0.00  0.00    +0.000 OA
ENDBRANCH   7   8
BRANCH   2  18
ATOM     18  C   UNL     1       2.106   6.229  20.164  0.00  0.00    +0.000 C 
BRANCH  18  19
ATOM     19  N   UNL     1       1.888   7.583  19.686  0.00  0.00    +0.000 N 
ATOM     20  C   UNL     1       2.300   7.945  18.430  0.00  0.00    +0.000 A 
ATOM     21  N   UNL     1       2.150   9.118  17.912  0.00  0.00    +0.000 NA
ATOM     22  C   UNL     1       1.547  10.104  18.706  0.00  0.00    +0.000 A 
ATOM     23  C   UNL     1       1.363  11.377  18.170  0.00  0.00    +0.000 A 
ATOM     24  C   UNL     1       0.757  12.373  18.932  0.00  0.00    +0.000 A 
ATOM     25  F   UNL     1       0.584  13.590  18.407  0.00  0.00    +0.000 F 
ATOM     26  C   UNL     1       0.331  12.125  20.235  0.00  0.00    +0.000 A 
ATOM     27  C   UNL     1       0.511  10.858  20.784  0.00  0.00    +0.000 A 
ATOM     28  C   UNL     1       1.118   9.857  20.015  0.00  0.00    +0.000 A 
ATOM     29  C   UNL     1       1.307   8.497  20.554  0.00  0.00    +0.000 A 
ATOM     30  O   UNL     1       0.938   8.225  21.692  0.00  0.00    +0.000 OA
ENDBRANCH  18  19
ENDBRANCH   2  18
TORSDOF 3
ENDMDL
MODEL 4
REMARK VINA RESULT:      -8.0      4.074      7.012
REMARK  Name = 
REMARK  3 active torsions:
REMARK  status: ('A' for Active; 'I' for Inactive)
REMARK    1  A    between atoms: C_2  and  C_3
REMARK    2  A    between atoms: C_3  and  N_4
REMARK    3  A    between atoms: C_20  and  C_21
REMARK                            x       y       z     vdW  Elec       q    Type
REMARK                         _______ _______ _______ _____ _____    ______ ____
ROOT
ATOM      1  O   UNL     1       0.990  11.723  20.138  0.00  0.00    +0.000 OA
ATOM      2  C   UNL     1       0.630  10.981  19.224  0.00  0.00    +0.000 C 
ATOM      3  N   UNL     1      -0.703  10.856  18.857  0.00  0.00    +0.000 N 
ATOM      4  C   UNL     1      -1.229  10.029  17.776  0.00  0.00    +0.000 C 
ATOM      5  C   UNL     1      -2.271  10.906  17.100  0.00  0.00    +0.000 C 
ATOM      6  C   UNL     1      -2.848  11.685  18.270  0.00  0.00    +0.000 C 
ATOM      7  C   UNL     1      -1.611  11.961  19.145  0.00  0.00    +0.000 C 
ENDROOT
BRANCH   7   8
ATOM      8  C   UNL     1      -2.016  12.191  20.581  0.00  0.00    +0.000 A 
ATOM      9  C   UNL     1      -1.401  11.572  21.680  0.00  0.00    +0.000 A 
ATOM     10  C   UNL     1      -1.988  11.641  22.950  0.00  0.00    +0.000 A 
ATOM     11  C   UNL     1      -3.199  12.311  23.123  0.00  0.00    +0.000 A 
ATOM     12  C   UNL     1      -3.750  13.016  22.058  0.00  0.00    +0.000 A 
ATOM     13  C   UNL     1      -3.163  12.969  20.801  0.00  0.00    +0.000 A 
ATOM     14  O   UNL     1      -4.919  13.717  22.172  0.00  0.00    +0.000 OA
ATOM     15  C   UNL     1      -5.793  12.957  22.997  0.00  0.00    +0.000 C 
ATOM     16  C   UNL     1      -5.169  12.672  24.360  0.00  0.00    +0.000 C 
ATOM     17  O   UNL     1      -3.817  12.192  24.336  0.00  0.00    +0.000 OA
ENDBRANCH   7   8
BRANCH   2  18
ATOM     18  C   UNL     1       1.634  10.176  18.396  0.00  0.00    +0.000 C 
BRANCH  18  19
ATOM     19  N   UNL     1       1.801   8.837  18.934  0.00  0.00    +0.000 N 
ATOM     20  C   UNL     1       1.395   8.552  20.212  0.00  0.00    +0.000 A 
ATOM     21  N   UNL     1       1.495   7.397  20.779  0.00  0.00    +0.000 NA
ATOM     22  C   UNL     1       2.091   6.362  20.042  0.00  0.00    +0.000 A 
ATOM     23  C   UNL     1       2.203   5.102  20.626  0.00  0.00    +0.000 A 
ATOM     24  C   UNL     1       2.782   4.054  19.913  0.00  0.00    +0.000 A 
ATOM     25  F   UNL     1       2.883   2.849  20.482  0.00  0.00    +0.000 F 
ATOM     26  C   UNL     1       3.261   4.241  18.619  0.00  0.00    +0.000 A 
ATOM     27  C   UNL     1       3.158   5.495  18.025  0.00  0.00    +0.000 A 
ATOM     28  C   UNL     1       2.573   6.548  18.741  0.00  0.00    +0.000 A 
ATOM     29  C   UNL     1       2.426   7.886  18.139  0.00  0.00    +0.000 A 
ATOM     30  O   UNL     1       2.822   8.098  16.997  0.00  0.00    +0.000 OA
ENDBRANCH  18  19
ENDBRANCH   2  18
TORSDOF 3
ENDMDL
MODEL 5
REMARK VINA RESULT:      -8.0      6.192     11.894
REMARK  Name = 
REMARK  3 active torsions:
REMARK  status: ('A' for Active; 'I' for Inactive)
REMARK    1  A    between atoms: C_2  and  C_3
REMARK    2  A    between atoms: C_3  and  N_4
REMARK    3  A    between atoms: C_20  and  C_21
REMARK                            x       y       z     vdW  Elec       q    Type
REMARK                         _______ _______ _______ _____ _____    ______ ____
ROOT
ATOM      1  O   UNL     1       0.613  11.284  21.913  0.00  0.00    +0.000 OA
ATOM      2  C   UNL     1      -0.117  12.073  21.312  0.00  0.00    +0.000 C 
ATOM      3  N   UNL     1      -0.607  11.803  20.043  0.00  0.00    +0.000 N 
ATOM      4  C   UNL     1      -1.496  12.655  19.259  0.00  0.00    +0.000 C 
ATOM      5  C   UNL     1      -2.505  11.694  18.651  0.00  0.00    +0.000 C 
ATOM      6  C   UNL     1      -1.661  10.456  18.397  0.00  0.00    +0.000 C 
ATOM      7  C   UNL     1      -0.735  10.411  19.627  0.00  0.00    +0.000 C 
ENDROOT
BRANCH   7   8
ATOM      8  C   UNL     1       0.527   9.644  19.313  0.00  0.00    +0.000 A 
ATOM      9  C   UNL     1       1.282   9.818  18.142  0.00  0.00    +0.000 A 
ATOM     10  C   UNL     1       2.290   8.905  17.809  0.00  0.00    +0.000 A 
ATOM     11  C   UNL     1       2.535   7.806  18.632  0.00  0.00    +0.000 A 
ATOM     12  C   UNL     1       1.863   7.696  19.845  0.00  0.00    +0.000 A 
ATOM     13  C   UNL     1       0.877   8.608  20.192  0.00  0.00    +0.000 A 
ATOM     14  O   UNL     1       2.081   6.658  20.710  0.00  0.00    +0.000 OA
ATOM     15  C   UNL     1       2.253   5.481  19.928  0.00  0.00    +0.000 C 
ATOM     16  C   UNL     1       3.397   5.636  18.930  0.00  0.00    +0.000 C 
ATOM     17  O   UNL     1       3.397   6.852  18.170  0.00  0.00    +0.000 OA
ENDBRANCH   7   8
BRANCH   2  18
ATOM     18  C   UNL     1      -0.570  13.392  21.944  0.00  0.00    +0.000 C 
BRANCH  18  19
ATOM     19  N   UNL     1      -1.906  13.274  22.500  0.00  0.00    +0.000 N 
ATOM     20  C   UNL     1      -2.269  12.144  23.187  0.00  0.00    +0.000 A 
ATOM     21  N   UNL     1      -3.427  11.945  23.722  0.00  0.00    +0.000 NA
ATOM     22  C   UNL     1      -4.396  12.947  23.563  0.00  0.00    +0.000 A 
ATOM     23  C   UNL     1      -5.651  12.762  24.138  0.00  0.00    +0.000 A 
ATOM     24  C   UNL     1      -6.629  13.746  24.006  0.00  0.00    +0.000 A 
ATOM     25  F   UNL     1      -7.829  13.560  24.563  0.00  0.00    +0.000 F 
ATOM     26  C   UNL     1      -6.379  14.920  23.298  0.00  0.00    +0.000 A 
ATOM     27  C   UNL     1      -5.130  15.115  22.716  0.00  0.00    +0.000 A 
ATOM     28  C   UNL     1      -4.146  14.127  22.853  0.00  0.00    +0.000 A 
ATOM     29  C   UNL     1      -2.805  14.306  22.269  0.00  0.00    +0.000 A 
ATOM     30  O   UNL     1      -2.531  15.328  21.647  0.00  0.00    +0.000 OA
ENDBRANCH  18  19
ENDBRANCH   2  18
TORSDOF 3
ENDMDL
MODEL 6
REMARK VINA RESULT:      -7.9      3.954      6.820
REMARK  Name = 
REMARK  3 active torsions:
REMARK  status: ('A' for Active; 'I' for Inactive)
REMARK    1  A    between atoms: C_2  and  C_3
REMARK    2  A    between atoms: C_3  and  N_4
REMARK    3  A    between atoms: C_20  and  C_21
REMARK                            x       y       z     vdW  Elec       q    Type
REMARK                         _______ _______ _______ _____ _____    ______ ____
ROOT
ATOM      1  O   UNL     1      -0.538   9.475  20.431  0.00  0.00    +0.000 OA
ATOM      2  C   UNL     1       0.536   9.857  19.966  0.00  0.00    +0.000 C 
ATOM      3  N   UNL     1       0.625  10.943  19.108  0.00  0.00    +0.000 N 
ATOM      4  C   UNL     1       1.847  11.490  18.527  0.00  0.00    +0.000 C 
ATOM      5  C   UNL     1       1.681  12.996  18.639  0.00  0.00    +0.000 C 
ATOM      6  C   UNL     1       0.187  13.174  18.427  0.00  0.00    +0.000 C 
ATOM      7  C   UNL     1      -0.413  11.965  19.168  0.00  0.00    +0.000 C 
ENDROOT
BRANCH   7   8
ATOM      8  C   UNL     1      -1.777  11.626  18.615  0.00  0.00    +0.000 A 
ATOM      9  C   UNL     1      -1.995  11.103  17.330  0.00  0.00    +0.000 A 
ATOM     10  C   UNL     1      -3.291  11.049  16.800  0.00  0.00    +0.000 A 
ATOM     11  C   UNL     1      -4.369  11.533  17.542  0.00  0.00    +0.000 A 
ATOM     12  C   UNL     1      -4.165  11.948  18.854  0.00  0.00    +0.000 A 
ATOM     13  C   UNL     1      -2.887  11.985  19.393  0.00  0.00    +0.000 A 
ATOM     14  O   UNL     1      -5.185  12.405  19.643  0.00  0.00    +0.000 OA
ATOM     15  C   UNL     1      -6.046  13.183  18.819  0.00  0.00    +0.000 C 
ATOM     16  C   UNL     1      -6.565  12.375  17.633  0.00  0.00    +0.000 C 
ATOM     17  O   UNL     1      -5.576  11.627  16.911  0.00  0.00    +0.000 OA
ENDBRANCH   7   8
BRANCH   2  18
ATOM     18  C   UNL     1       1.859   9.183  20.340  0.00  0.00    +0.000 C 
BRANCH  18  19
ATOM     19  N   UNL     1       1.997   7.897  19.678  0.00  0.00    +0.000 N 
ATOM     20  C   UNL     1       2.464   7.832  18.391  0.00  0.00    +0.000 A 
ATOM     21  N   UNL     1       2.627   6.742  17.719  0.00  0.00    +0.000 NA
ATOM     22  C   UNL     1       2.271   5.536  18.342  0.00  0.00    +0.000 A 
ATOM     23  C   UNL     1       2.445   4.343  17.643  0.00  0.00    +0.000 A 
ATOM     24  C   UNL     1       2.110   3.131  18.242  0.00  0.00    +0.000 A 
ATOM     25  F   UNL     1       2.283   1.992  17.563  0.00  0.00    +0.000 F 
ATOM     26  C   UNL     1       1.593   3.084  19.534  0.00  0.00    +0.000 A 
ATOM     27  C   UNL     1       1.412   4.268  20.242  0.00  0.00    +0.000 A 
ATOM     28  C   UNL     1       1.752   5.487  19.641  0.00  0.00    +0.000 A 
ATOM     29  C   UNL     1       1.595   6.761  20.366  0.00  0.00    +0.000 A 
ATOM     30  O   UNL     1       1.154   6.771  21.512  0.00  0.00    +0.000 OA
ENDBRANCH  18  19
ENDBRANCH   2  18
TORSDOF 3
ENDMDL
MODEL 7
REMARK VINA RESULT:      -7.8      4.498      9.483
REMARK  Name = 
REMARK  3 active torsions:
REMARK  status: ('A' for Active; 'I' for Inactive)
REMARK    1  A    between atoms: C_2  and  C_3
REMARK    2  A    between atoms: C_3  and  N_4
REMARK    3  A    between atoms: C_20  and  C_21
REMARK                            x       y       z     vdW  Elec       q    Type
REMARK                         _______ _______ _______ _____ _____    ______ ____
ROOT
ATOM      1  O   UNL     1       2.082   9.818  17.580  0.00  0.00    +0.000 OA
ATOM      2  C   UNL     1       1.286  10.047  18.491  0.00  0.00    +0.000 C 
ATOM      3  N   UNL     1       1.066   9.144  19.522  0.00  0.00    +0.000 N 
ATOM      4  C   UNL     1       0.168   9.330  20.658  0.00  0.00    +0.000 C 
ATOM      5  C   UNL     1       0.953   8.810  21.851  0.00  0.00    +0.000 C 
ATOM      6  C   UNL     1       1.739   7.659  21.246  0.00  0.00    +0.000 C 
ATOM      7  C   UNL     1       2.122   8.196  19.855  0.00  0.00    +0.000 C 
ENDROOT
BRANCH   7   8
ATOM      8  C   UNL     1       2.381   7.056  18.899  0.00  0.00    +0.000 A 
ATOM      9  C   UNL     1       1.673   5.844  18.911  0.00  0.00    +0.000 A 
ATOM     10  C   UNL     1       2.132   4.750  18.166  0.00  0.00    +0.000 A 
ATOM     11  C   UNL     1       3.307   4.856  17.422  0.00  0.00    +0.000 A 
ATOM     12  C   UNL     1       3.946   6.088  17.324  0.00  0.00    +0.000 A 
ATOM     13  C   UNL     1       3.485   7.182  18.043  0.00  0.00    +0.000 A 
ATOM     14  O   UNL     1       5.085   6.264  16.587  0.00  0.00    +0.000 OA
ATOM     15  C   UNL     1       5.888   5.102  16.760  0.00  0.00    +0.000 C 
ATOM     16  C   UNL     1       5.139   3.837  16.352  0.00  0.00    +0.000 C 
ATOM     17  O   UNL     1       3.805   3.713  16.866  0.00  0.00    +0.000 OA
ENDBRANCH   7   8
BRANCH   2  18
ATOM     18  C   UNL     1       0.514  11.365  18.573  0.00  0.00    +0.000 C 
BRANCH  18  19
ATOM     19  N   UNL     1      -0.907  11.154  18.360  0.00  0.00    +0.000 N 
ATOM     20  C   UNL     1      -1.336  10.243  17.429  0.00  0.00    +0.000 A 
ATOM     21  N   UNL     1      -2.572   9.979  17.168  0.00  0.00    +0.000 NA
ATOM     22  C   UNL     1      -3.551  10.700  17.868  0.00  0.00    +0.000 A 
ATOM     23  C   UNL     1      -4.894  10.430  17.613  0.00  0.00    +0.000 A 
ATOM     24  C   UNL     1      -5.886  11.124  18.302  0.00  0.00    +0.000 A 
ATOM     25  F   UNL     1      -7.171  10.855  18.051  0.00  0.00    +0.000 F 
ATOM     26  C   UNL     1      -5.563  12.097  19.244  0.00  0.00    +0.000 A 
ATOM     27  C   UNL     1      -4.226  12.379  19.506  0.00  0.00    +0.000 A 
ATOM     28  C   UNL     1      -3.229  11.679  18.816  0.00  0.00    +0.000 A 
ATOM     29  C   UNL     1      -1.801  11.934  19.081  0.00  0.00    +0.000 A 
ATOM     30  O   UNL     1      -1.465  12.773  19.911  0.00  0.00    +0.000 OA
ENDBRANCH  18  19
ENDBRANCH   2  18
TORSDOF 3
ENDMDL
MODEL 8
REMARK VINA RESULT:      -7.7      3.906      7.111
REMARK  Name = 
REMARK  3 active torsions:
REMARK  status: ('A' for Active; 'I' for Inactive)
REMARK    1  A    between atoms: C_2  and  C_3
REMARK    2  A    between atoms: C_3  and  N_4
REMARK    3  A    between atoms: C_20  and  C_21
REMARK                            x       y       z     vdW  Elec       q    Type
REMARK                         _______ _______ _______ _____ _____    ______ ____
ROOT
ATOM      1  O   UNL     1      -0.443   9.837  20.183  0.00  0.00    +0.000 OA
ATOM      2  C   UNL     1       0.465  10.519  19.710  0.00  0.00    +0.000 C 
ATOM      3  N   UNL     1       0.613  11.865  20.015  0.00  0.00    +0.000 N 
ATOM      4  C   UNL     1       1.667  12.751  19.530  0.00  0.00    +0.000 C 
ATOM      5  C   UNL     1       2.070  13.564  20.749  0.00  0.00    +0.000 C 
ATOM      6  C   UNL     1       0.749  13.723  21.484  0.00  0.00    +0.000 C 
ATOM      7  C   UNL     1       0.072  12.357  21.276  0.00  0.00    +0.000 C 
ENDROOT
BRANCH   7   8
ATOM      8  C   UNL     1      -1.428  12.482  21.404  0.00  0.00    +0.000 A 
ATOM      9  C   UNL     1      -2.239  13.171  20.489  0.00  0.00    +0.000 A 
ATOM     10  C   UNL     1      -3.575  13.455  20.803  0.00  0.00    +0.000 A 
ATOM     11  C   UNL     1      -4.098  13.069  22.037  0.00  0.00    +0.000 A 
ATOM     12  C   UNL     1      -3.327  12.293  22.895  0.00  0.00    +0.000 A 
ATOM     13  C   UNL     1      -2.009  11.990  22.582  0.00  0.00    +0.000 A 
ATOM     14  O   UNL     1      -3.793  11.858  24.106  0.00  0.00    +0.000 OA
ATOM     15  C   UNL     1      -4.568  12.911  24.667  0.00  0.00    +0.000 C 
ATOM     16  C   UNL     1      -5.705  13.326  23.738  0.00  0.00    +0.000 C 
ATOM     17  O   UNL     1      -5.342  13.529  22.365  0.00  0.00    +0.000 OA
ENDBRANCH   7   8
BRANCH   2  18
ATOM     18  C   UNL     1       1.524   9.918  18.782  0.00  0.00    +0.000 C 
BRANCH  18  19
ATOM     19  N   UNL     1       1.812   8.540  19.139  0.00  0.00    +0.000 N 
ATOM     20  C   UNL     1       1.533   8.083  20.401  0.00  0.00    +0.000 A 
ATOM     21  N   UNL     1       1.746   6.879  20.815  0.00  0.00    +0.000 NA
ATOM     22  C   UNL     1       2.336   5.979  19.915  0.00  0.00    +0.000 A 
ATOM     23  C   UNL     1       2.570   4.670  20.332  0.00  0.00    +0.000 A 
ATOM     24  C   UNL     1       3.145   3.753  19.455  0.00  0.00    +0.000 A 
ATOM     25  F   UNL     1       3.363   2.499  19.864  0.00  0.00    +0.000 F 
ATOM     26  C   UNL     1       3.501   4.120  18.159  0.00  0.00    +0.000 A 
ATOM     27  C   UNL     1       3.276   5.425  17.731  0.00  0.00    +0.000 A 
ATOM     28  C   UNL     1       2.695   6.346  18.612  0.00  0.00    +0.000 A 
ATOM     29  C   UNL     1       2.421   7.731  18.189  0.00  0.00    +0.000 A 
ATOM     30  O   UNL     1       2.706   8.100  17.054  0.00  0.00    +0.000 OA
ENDBRANCH  18  19
ENDBRANCH   2  18
TORSDOF 3
ENDMDL
MODEL 9
REMARK VINA RESULT:      -7.7      4.028      7.150
REMARK  Name = 
REMARK  3 active torsions:
REMARK  status: ('A' for Active; 'I' for Inactive)
REMARK    1  A    between atoms: C_2  and  C_3
REMARK    2  A    between atoms: C_3  and  N_4
REMARK    3  A    between atoms: C_20  and  C_21
REMARK                            x       y       z     vdW  Elec       q    Type
REMARK                         _______ _______ _______ _____ _____    ______ ____
ROOT
ATOM      1  O   UNL     1      -0.488   9.609  19.970  0.00  0.00    +0.000 OA
ATOM      2  C   UNL     1       0.503  10.183  19.518  0.00  0.00    +0.000 C 
ATOM      3  N   UNL     1       0.412  11.396  18.851  0.00  0.00    +0.000 N 
ATOM      4  C   UNL     1       1.523  12.168  18.304  0.00  0.00    +0.000 C 
ATOM      5  C   UNL     1       1.206  13.607  18.677  0.00  0.00    +0.000 C 
ATOM      6  C   UNL     1      -0.310  13.641  18.580  0.00  0.00    +0.000 C 
ATOM      7  C   UNL     1      -0.722  12.267  19.139  0.00  0.00    +0.000 C 
ENDROOT
BRANCH   7   8
ATOM      8  C   UNL     1      -2.078  11.864  18.613  0.00  0.00    +0.000 A 
ATOM      9  C   UNL     1      -2.305  11.380  17.314  0.00  0.00    +0.000 A 
ATOM     10  C   UNL     1      -3.611  11.265  16.821  0.00  0.00    +0.000 A 
ATOM     11  C   UNL     1      -4.692  11.649  17.614  0.00  0.00    +0.000 A 
ATOM     12  C   UNL     1      -4.473  12.023  18.936  0.00  0.00    +0.000 A 
ATOM     13  C   UNL     1      -3.183  12.120  19.438  0.00  0.00    +0.000 A 
ATOM     14  O   UNL     1      -5.494  12.382  19.773  0.00  0.00    +0.000 OA
ATOM     15  C   UNL     1      -6.428  13.136  19.008  0.00  0.00    +0.000 C 
ATOM     16  C   UNL     1      -6.933  12.345  17.805  0.00  0.00    +0.000 C 
ATOM     17  O   UNL     1      -5.923  11.691  17.023  0.00  0.00    +0.000 OA
ENDBRANCH   7   8
BRANCH   2  18
ATOM     18  C   UNL     1       1.914   9.617  19.699  0.00  0.00    +0.000 C 
BRANCH  18  19
ATOM     19  N   UNL     1       1.892   8.167  19.771  0.00  0.00    +0.000 N 
ATOM     20  C   UNL     1       1.443   7.540  20.905  0.00  0.00    +0.000 A 
ATOM     21  N   UNL     1       1.380   6.261  21.066  0.00  0.00    +0.000 NA
ATOM     22  C   UNL     1       1.831   5.452  20.013  0.00  0.00    +0.000 A 
ATOM     23  C   UNL     1       1.766   4.067  20.156  0.00  0.00    +0.000 A 
ATOM     24  C   UNL     1       2.198   3.240  19.121  0.00  0.00    +0.000 A 
ATOM     25  F   UNL     1       2.129   1.913  19.268  0.00  0.00    +0.000 F 
ATOM     26  C   UNL     1       2.706   3.770  17.938  0.00  0.00    +0.000 A 
ATOM     27  C   UNL     1       2.779   5.152  17.783  0.00  0.00    +0.000 A 
ATOM     28  C   UNL     1       2.342   5.983  18.822  0.00  0.00    +0.000 A 
ATOM     29  C   UNL     1       2.384   7.451  18.689  0.00  0.00    +0.000 A 
ATOM     30  O   UNL     1       2.811   7.967  17.661  0.00  0.00    +0.000 OA
ENDBRANCH  18  19
ENDBRANCH   2  18
TORSDOF 3
ENDMDL
