MODEL 1
REMARK VINA RESULT:      -9.1      0.000      0.000
REMARK  Name = 
REMARK  6 active torsions:
REMARK  status: ('A' for Active; 'I' for Inactive)
REMARK    1  A    between atoms: C_1  and  N_2
REMARK    2  A    between atoms: C_6  and  C_7
REMARK    3  A    between atoms: C_7  and  C_8
REMARK    4  A    between atoms: C_8  and  C_9
REMARK    5  A    between atoms: C_12  and  N_13
REMARK    6  A    between atoms: C_18  and  C_19
REMARK                            x       y       z     vdW  Elec       q    Type
REMARK                         _______ _______ _______ _____ _____    ______ ____
ROOT
ATOM      1  C   UNL     1       1.310   9.095  19.041  0.00  0.00    +0.000 A 
ATOM      2  C   UNL     1       1.398   8.531  20.323  0.00  0.00    +0.000 A 
ATOM      3  C   UNL     1       1.928   7.254  20.525  0.00  0.00    +0.000 A 
ATOM      4  C   UNL     1       2.274   6.472  19.419  0.00  0.00    +0.000 A 
ATOM      5  C   UNL     1       2.497   7.122  18.206  0.00  0.00    +0.000 A 
ATOM      6  C   UNL     1       2.007   8.419  18.022  0.00  0.00    +0.000 A 
ENDROOT
BRANCH   4   7
ATOM      7  N   UNL     1       2.008   5.029  19.433  0.00  0.00    +0.000 N 
ATOM      8  C   UNL     1       3.059   4.277  20.164  0.00  0.00    +0.000 C 
ATOM      9  C   UNL     1       4.070   4.060  19.079  0.00  0.00    +0.000 A 
ATOM     10  C   UNL     1       5.448   4.172  19.123  0.00  0.00    +0.000 A 
ATOM     11  C   UNL     1       6.128   4.338  17.911  0.00  0.00    +0.000 A 
ATOM     12  C   UNL     1       5.438   4.372  16.672  0.00  0.00    +0.000 A 
ATOM     13  C   UNL     1       4.045   4.178  16.646  0.00  0.00    +0.000 A 
ATOM     14  C   UNL     1       3.394   4.042  17.860  0.00  0.00    +0.000 A 
ATOM     15  C   UNL     1       1.988   4.433  18.137  0.00  0.00    +0.000 C 
ATOM     16  O   UNL     1       1.098   4.433  17.308  0.00  0.00    +0.000 OA
BRANCH  12  17
ATOM     17  C   UNL     1       6.158   4.747  15.399  0.00  0.00    +0.000 C 
ATOM     18  F   UNL     1       7.424   5.204  15.605  0.00  0.00    +0.000 F 
ATOM     19  F   UNL     1       6.267   3.709  14.528  0.00  0.00    +0.000 F 
ATOM     20  F   UNL     1       5.517   5.744  14.720  0.00  0.00    +0.000 F 
ENDBRANCH  12  17
ENDBRANCH   4   7
BRANCH   1  21
ATOM     21  C   UNL     1       0.415  10.434  18.769  0.00  0.00    +0.000 C 
ATOM     22  C   UNL     1      -0.679  10.307  17.636  0.00  0.00    +0.000 C 
ATOM     23  C   UNL     1      -1.746  10.050  18.707  0.00  0.00    +0.000 C 
ATOM     24  C   UNL     1      -0.796  10.615  19.767  0.00  0.00    +0.000 C 
BRANCH  21  25
ATOM     25  C   UNL     1       1.399  11.617  18.686  0.00  0.00    +0.000 C 
BRANCH  25  31
ATOM     26  C   UNL     1      -0.295  14.293  18.644  0.00  0.00    +0.000 C 
ATOM     27  N   UNL     1       0.530  13.793  19.710  0.00  0.00    +0.000 N 
ATOM     28  C   UNL     1       0.638  14.359  20.944  0.00  0.00    +0.000 A 
ATOM     29  N   UNL     1       1.477  13.666  21.674  0.00  0.00    +0.000 NA
ATOM     30  N   UNL     1       1.902  12.603  20.918  0.00  0.00    +0.000 NA
ATOM     31  C   UNL     1       1.318  12.669  19.737  0.00  0.00    +0.000 A 
ENDBRANCH  25  31
ENDBRANCH  21  25
ENDBRANCH   1  21
TORSDOF 5
ENDMDL
MODEL 2
REMARK VINA RESULT:      -9.0      1.753      2.730
REMARK  Name = 
REMARK  6 active torsions:
REMARK  status: ('A' for Active; 'I' for Inactive)
REMARK    1  A    between atoms: C_1  and  N_2
REMARK    2  A    between atoms: C_6  and  C_7
REMARK    3  A    between atoms: C_7  and  C_8
REMARK    4  A    between atoms: C_8  and  C_9
REMARK    5  A    between atoms: C_12  and  N_13
REMARK    6  A    between atoms: C_18  and  C_19
REMARK                            x       y       z     vdW  Elec       q    Type
REMARK                         _______ _______ _______ _____ _____    ______ ____
ROOT
ATOM      1  C   UNL     1       1.208   9.093  19.047  0.00  0.00    +0.000 A 
ATOM      2  C   UNL     1       1.404   8.546  20.325  0.00  0.00    +0.000 A 
ATOM      3  C   UNL     1       1.992   7.291  20.501  0.00  0.00    +0.000 A 
ATOM      4  C   UNL     1       2.289   6.510  19.379  0.00  0.00    +0.000 A 
ATOM      5  C   UNL     1       2.406   7.155  18.149  0.00  0.00    +0.000 A 
ATOM      6  C   UNL     1       1.858   8.432  17.989  0.00  0.00    +0.000 A 
ENDROOT
BRANCH   4   7
ATOM      7  N   UNL     1       2.077   5.059  19.422  0.00  0.00    +0.000 N 
ATOM      8  C   UNL     1       3.164   4.360  20.155  0.00  0.00    +0.000 C 
ATOM      9  C   UNL     1       4.171   4.160  19.064  0.00  0.00    +0.000 A 
ATOM     10  C   UNL     1       5.544   4.324  19.091  0.00  0.00    +0.000 A 
ATOM     11  C   UNL     1       6.204   4.493  17.868  0.00  0.00    +0.000 A 
ATOM     12  C   UNL     1       5.501   4.477  16.636  0.00  0.00    +0.000 A 
ATOM     13  C   UNL     1       4.116   4.232  16.629  0.00  0.00    +0.000 A 
ATOM     14  C   UNL     1       3.483   4.095  17.853  0.00  0.00    +0.000 A 
ATOM     15  C   UNL     1       2.067   4.439  18.138  0.00  0.00    +0.000 C 
ATOM     16  O   UNL     1       1.168   4.390  17.319  0.00  0.00    +0.000 OA
BRANCH  12  17
ATOM     17  C   UNL     1       6.193   4.855  15.349  0.00  0.00    +0.000 C 
ATOM     18  F   UNL     1       7.439   5.373  15.533  0.00  0.00    +0.000 F 
ATOM     19  F   UNL     1       6.341   3.804  14.500  0.00  0.00    +0.000 F 
ATOM     20  F   UNL     1       5.503   5.807  14.654  0.00  0.00    +0.000 F 
ENDBRANCH  12  17
ENDBRANCH   4   7
BRANCH   1  21
ATOM     21  C   UNL     1       0.248  10.397  18.827  0.00  0.00    +0.000 C 
ATOM     22  C   UNL     1      -0.290  11.080  20.145  0.00  0.00    +0.000 C 
ATOM     23  C   UNL     1       0.824  12.128  20.047  0.00  0.00    +0.000 C 
ATOM     24  C   UNL     1       1.036  11.743  18.580  0.00  0.00    +0.000 C 
BRANCH  21  25
ATOM     25  C   UNL     1      -0.781  10.013  17.746  0.00  0.00    +0.000 C 
BRANCH  25  31
ATOM     26  C   UNL     1      -2.764  10.376  15.303  0.00  0.00    +0.000 C 
ATOM     27  N   UNL     1      -2.933  10.852  16.649  0.00  0.00    +0.000 N 
ATOM     28  C   UNL     1      -4.052  11.467  17.124  0.00  0.00    +0.000 A 
ATOM     29  N   UNL     1      -3.878  11.785  18.383  0.00  0.00    +0.000 NA
ATOM     30  N   UNL     1      -2.635  11.338  18.754  0.00  0.00    +0.000 NA
ATOM     31  C   UNL     1      -2.070  10.759  17.711  0.00  0.00    +0.000 A 
ENDBRANCH  25  31
ENDBRANCH  21  25
ENDBRANCH   1  21
TORSDOF 5
ENDMDL
MODEL 3
REMARK VINA RESULT:      -8.9      1.369      1.575
REMARK  Name = 
REMARK  6 active torsions:
REMARK  status: ('A' for Active; 'I' for Inactive)
REMARK    1  A    between atoms: C_1  and  N_2
REMARK    2  A    between atoms: C_6  and  C_7
REMARK    3  A    between atoms: C_7  and  C_8
REMARK    4  A    between atoms: C_8  and  C_9
REMARK    5  A    between atoms: C_12  and  N_13
REMARK    6  A    between atoms: C_18  and  C_19
REMARK                            x       y       z     vdW  Elec       q    Type
REMARK                         _______ _______ _______ _____ _____    ______ ____
ROOT
ATOM      1  C   UNL     1       1.308   8.922  19.514  0.00  0.00    +0.000 A 
ATOM      2  C   UNL     1       1.374   8.222  20.729  0.00  0.00    +0.000 A 
ATOM      3  C   UNL     1       1.895   6.928  20.800  0.00  0.00    +0.000 A 
ATOM      4  C   UNL     1       2.255   6.268  19.621  0.00  0.00    +0.000 A 
ATOM      5  C   UNL     1       2.500   7.044  18.489  0.00  0.00    +0.000 A 
ATOM      6  C   UNL     1       2.018   8.356  18.439  0.00  0.00    +0.000 A 
ENDROOT
BRANCH   4   7
ATOM      7  N   UNL     1       1.983   4.834  19.475  0.00  0.00    +0.000 N 
ATOM      8  C   UNL     1       3.032   4.001  20.115  0.00  0.00    +0.000 C 
ATOM      9  C   UNL     1       4.041   3.902  19.012  0.00  0.00    +0.000 A 
ATOM     10  C   UNL     1       5.419   4.002  19.065  0.00  0.00    +0.000 A 
ATOM     11  C   UNL     1       6.098   4.300  17.877  0.00  0.00    +0.000 A 
ATOM     12  C   UNL     1       5.406   4.474  16.651  0.00  0.00    +0.000 A 
ATOM     13  C   UNL     1       4.012   4.290  16.607  0.00  0.00    +0.000 A 
ATOM     14  C   UNL     1       3.362   4.022  17.800  0.00  0.00    +0.000 A 
ATOM     15  C   UNL     1       1.959   4.386  18.121  0.00  0.00    +0.000 C 
ATOM     16  O   UNL     1       1.067   4.481  17.299  0.00  0.00    +0.000 OA
BRANCH  12  17
ATOM     17  C   UNL     1       6.126   4.986  15.426  0.00  0.00    +0.000 C 
ATOM     18  F   UNL     1       6.290   4.042  14.458  0.00  0.00    +0.000 F 
ATOM     19  F   UNL     1       5.485   6.028  14.835  0.00  0.00    +0.000 F 
ATOM     20  F   UNL     1       7.383   5.431  15.718  0.00  0.00    +0.000 F 
ENDBRANCH  12  17
ENDBRANCH   4   7
BRANCH   1  21
ATOM     21  C   UNL     1       0.423  10.288  19.375  0.00  0.00    +0.000 C 
ATOM     22  C   UNL     1       0.242  10.839  17.906  0.00  0.00    +0.000 C 
ATOM     23  C   UNL     1      -1.137  10.172  17.834  0.00  0.00    +0.000 C 
ATOM     24  C   UNL     1      -1.138  10.047  19.360  0.00  0.00    +0.000 C 
BRANCH  21  25
ATOM     25  C   UNL     1       0.942  11.264  20.448  0.00  0.00    +0.000 C 
BRANCH  25  31
ATOM     26  C   UNL     1      -1.107  13.676  20.588  0.00  0.00    +0.000 C 
ATOM     27  N   UNL     1      -0.892  12.649  21.571  0.00  0.00    +0.000 N 
ATOM     28  C   UNL     1      -1.626  12.491  22.708  0.00  0.00    +0.000 A 
ATOM     29  N   UNL     1      -1.165  11.472  23.391  0.00  0.00    +0.000 NA
ATOM     30  N   UNL     1      -0.131  10.927  22.672  0.00  0.00    +0.000 NA
ATOM     31  C   UNL     1       0.025  11.628  21.564  0.00  0.00    +0.000 A 
ENDBRANCH  25  31
ENDBRANCH  21  25
ENDBRANCH   1  21
TORSDOF 5
ENDMDL
MODEL 4
REMARK VINA RESULT:      -8.9      0.680      1.378
REMARK  Name = 
REMARK  6 active torsions:
REMARK  status: ('A' for Active; 'I' for Inactive)
REMARK    1  A    between atoms: C_1  and  N_2
REMARK    2  A    between atoms: C_6  and  C_7
REMARK    3  A    between atoms: C_7  and  C_8
REMARK    4  A    between atoms: C_8  and  C_9
REMARK    5  A    between atoms: C_12  and  N_13
REMARK    6  A    between atoms: C_18  and  C_19
REMARK                            x       y       z     vdW  Elec       q    Type
REMARK                         _______ _______ _______ _____ _____    ______ ____
ROOT
ATOM      1  C   UNL     1       1.291   9.115  18.955  0.00  0.00    +0.000 A 
ATOM      2  C   UNL     1       1.457   8.589  20.247  0.00  0.00    +0.000 A 
ATOM      3  C   UNL     1       2.014   7.325  20.456  0.00  0.00    +0.000 A 
ATOM      4  C   UNL     1       2.309   6.515  19.355  0.00  0.00    +0.000 A 
ATOM      5  C   UNL     1       2.457   7.132  18.113  0.00  0.00    +0.000 A 
ATOM      6  C   UNL     1       1.940   8.417  17.919  0.00  0.00    +0.000 A 
ENDROOT
BRANCH   4   7
ATOM      7  N   UNL     1       2.063   5.070  19.424  0.00  0.00    +0.000 N 
ATOM      8  C   UNL     1       3.152   4.355  20.136  0.00  0.00    +0.000 C 
ATOM      9  C   UNL     1       4.123   4.115  19.019  0.00  0.00    +0.000 A 
ATOM     10  C   UNL     1       5.500   4.246  19.005  0.00  0.00    +0.000 A 
ATOM     11  C   UNL     1       6.129   4.381  17.761  0.00  0.00    +0.000 A 
ATOM     12  C   UNL     1       5.390   4.367  16.550  0.00  0.00    +0.000 A 
ATOM     13  C   UNL     1       4.000   4.156  16.587  0.00  0.00    +0.000 A 
ATOM     14  C   UNL     1       3.399   4.051  17.830  0.00  0.00    +0.000 A 
ATOM     15  C   UNL     1       2.000   4.433  18.150  0.00  0.00    +0.000 C 
ATOM     16  O   UNL     1       1.078   4.395  17.357  0.00  0.00    +0.000 OA
BRANCH  12  17
ATOM     17  C   UNL     1       6.054   4.711  15.239  0.00  0.00    +0.000 C 
ATOM     18  F   UNL     1       5.698   3.885  14.216  0.00  0.00    +0.000 F 
ATOM     19  F   UNL     1       5.775   5.974  14.821  0.00  0.00    +0.000 F 
ATOM     20  F   UNL     1       7.415   4.629  15.315  0.00  0.00    +0.000 F 
ENDBRANCH  12  17
ENDBRANCH   4   7
BRANCH   1  21
ATOM     21  C   UNL     1       0.365  10.435  18.695  0.00  0.00    +0.000 C 
ATOM     22  C   UNL     1      -0.811  10.251  17.657  0.00  0.00    +0.000 C 
ATOM     23  C   UNL     1      -1.790  10.035  18.817  0.00  0.00    +0.000 C 
ATOM     24  C   UNL     1      -0.767  10.652  19.775  0.00  0.00    +0.000 C 
BRANCH  21  25
ATOM     25  C   UNL     1       1.329  11.618  18.485  0.00  0.00    +0.000 C 
BRANCH  25  31
ATOM     26  C   UNL     1       2.511  13.527  20.719  0.00  0.00    +0.000 C 
ATOM     27  N   UNL     1       1.431  13.803  19.811  0.00  0.00    +0.000 N 
ATOM     28  C   UNL     1       0.792  15.000  19.700  0.00  0.00    +0.000 A 
ATOM     29  N   UNL     1      -0.149  14.914  18.792  0.00  0.00    +0.000 NA
ATOM     30  N   UNL     1      -0.104  13.646  18.270  0.00  0.00    +0.000 NA
ATOM     31  C   UNL     1       0.861  12.978  18.874  0.00  0.00    +0.000 A 
ENDBRANCH  25  31
ENDBRANCH  21  25
ENDBRANCH   1  21
TORSDOF 5
ENDMDL
MODEL 5
REMARK VINA RESULT:      -8.8      1.886      2.824
REMARK  Name = 
REMARK  6 active torsions:
REMARK  status: ('A' for Active; 'I' for Inactive)
REMARK    1  A    between atoms: C_1  and  N_2
REMARK    2  A    between atoms: C_6  and  C_7
REMARK    3  A    between atoms: C_7  and  C_8
REMARK    4  A    between atoms: C_8  and  C_9
REMARK    5  A    between atoms: C_12  and  N_13
REMARK    6  A    between atoms: C_18  and  C_19
REMARK                            x       y       z     vdW  Elec       q    Type
REMARK                         _______ _______ _______ _____ _____    ______ ____
ROOT
ATOM      1  C   UNL     1       1.290   9.073  19.622  0.00  0.00    +0.000 A 
ATOM      2  C   UNL     1       1.483   8.345  20.807  0.00  0.00    +0.000 A 
ATOM      3  C   UNL     1       2.001   7.049  20.793  0.00  0.00    +0.000 A 
ATOM      4  C   UNL     1       2.230   6.415  19.567  0.00  0.00    +0.000 A 
ATOM      5  C   UNL     1       2.356   7.216  18.433  0.00  0.00    +0.000 A 
ATOM      6  C   UNL     1       1.878   8.530  18.465  0.00  0.00    +0.000 A 
ENDROOT
BRANCH   4   7
ATOM      7  N   UNL     1       1.936   4.985  19.419  0.00  0.00    +0.000 N 
ATOM      8  C   UNL     1       2.933   4.137  20.122  0.00  0.00    +0.000 C 
ATOM      9  C   UNL     1       3.996   4.007  19.074  0.00  0.00    +0.000 A 
ATOM     10  C   UNL     1       5.372   4.080  19.200  0.00  0.00    +0.000 A 
ATOM     11  C   UNL     1       6.118   4.353  18.048  0.00  0.00    +0.000 A 
ATOM     12  C   UNL     1       5.497   4.529  16.785  0.00  0.00    +0.000 A 
ATOM     13  C   UNL     1       4.104   4.373  16.668  0.00  0.00    +0.000 A 
ATOM     14  C   UNL     1       3.386   4.130  17.827  0.00  0.00    +0.000 A 
ATOM     15  C   UNL     1       1.975   4.525  18.070  0.00  0.00    +0.000 C 
ATOM     16  O   UNL     1       1.130   4.630  17.200  0.00  0.00    +0.000 OA
BRANCH  12  17
ATOM     17  C   UNL     1       6.291   5.014  15.596  0.00  0.00    +0.000 C 
ATOM     18  F   UNL     1       5.552   5.730  14.704  0.00  0.00    +0.000 F 
ATOM     19  F   UNL     1       7.335   5.810  15.949  0.00  0.00    +0.000 F 
ATOM     20  F   UNL     1       6.827   3.983  14.881  0.00  0.00    +0.000 F 
ENDBRANCH  12  17
ENDBRANCH   4   7
BRANCH   1  21
ATOM     21  C   UNL     1       0.402  10.444  19.609  0.00  0.00    +0.000 C 
ATOM     22  C   UNL     1       0.809  11.532  20.679  0.00  0.00    +0.000 C 
ATOM     23  C   UNL     1       1.613  12.275  19.606  0.00  0.00    +0.000 C 
ATOM     24  C   UNL     1       0.857  11.498  18.524  0.00  0.00    +0.000 C 
BRANCH  21  25
ATOM     25  C   UNL     1      -1.076  10.014  19.549  0.00  0.00    +0.000 C 
BRANCH  25  31
ATOM     26  C   UNL     1      -3.379  12.140  19.090  0.00  0.00    +0.000 C 
ATOM     27  N   UNL     1      -2.791  11.260  18.117  0.00  0.00    +0.000 N 
ATOM     28  C   UNL     1      -3.072  11.270  16.785  0.00  0.00    +0.000 A 
ATOM     29  N   UNL     1      -2.377  10.337  16.181  0.00  0.00    +0.000 NA
ATOM     30  N   UNL     1      -1.598   9.724  17.130  0.00  0.00    +0.000 NA
ATOM     31  C   UNL     1      -1.835  10.292  18.297  0.00  0.00    +0.000 A 
ENDBRANCH  25  31
ENDBRANCH  21  25
ENDBRANCH   1  21
TORSDOF 5
ENDMDL
MODEL 6
REMARK VINA RESULT:      -8.8      1.381      1.756
REMARK  Name = 
REMARK  6 active torsions:
REMARK  status: ('A' for Active; 'I' for Inactive)
REMARK    1  A    between atoms: C_1  and  N_2
REMARK    2  A    between atoms: C_6  and  C_7
REMARK    3  A    between atoms: C_7  and  C_8
REMARK    4  A    between atoms: C_8  and  C_9
REMARK    5  A    between atoms: C_12  and  N_13
REMARK    6  A    between atoms: C_18  and  C_19
REMARK                            x       y       z     vdW  Elec       q    Type
REMARK                         _______ _______ _______ _____ _____    ______ ____
ROOT
ATOM      1  C   UNL     1       1.294   8.975  19.508  0.00  0.00    +0.000 A 
ATOM      2  C   UNL     1       1.500   8.286  20.715  0.00  0.00    +0.000 A 
ATOM      3  C   UNL     1       2.030   6.994  20.738  0.00  0.00    +0.000 A 
ATOM      4  C   UNL     1       2.256   6.324  19.531  0.00  0.00    +0.000 A 
ATOM      5  C   UNL     1       2.368   7.090  18.372  0.00  0.00    +0.000 A 
ATOM      6  C   UNL     1       1.879   8.401  18.365  0.00  0.00    +0.000 A 
ENDROOT
BRANCH   4   7
ATOM      7  N   UNL     1       1.974   4.888  19.430  0.00  0.00    +0.000 N 
ATOM      8  C   UNL     1       3.014   4.068  20.102  0.00  0.00    +0.000 C 
ATOM      9  C   UNL     1       4.027   3.926  19.007  0.00  0.00    +0.000 A 
ATOM     10  C   UNL     1       5.406   4.019  19.063  0.00  0.00    +0.000 A 
ATOM     11  C   UNL     1       6.092   4.273  17.869  0.00  0.00    +0.000 A 
ATOM     12  C   UNL     1       5.407   4.412  16.635  0.00  0.00    +0.000 A 
ATOM     13  C   UNL     1       4.012   4.237  16.590  0.00  0.00    +0.000 A 
ATOM     14  C   UNL     1       3.355   4.013  17.788  0.00  0.00    +0.000 A 
ATOM     15  C   UNL     1       1.953   4.397  18.091  0.00  0.00    +0.000 C 
ATOM     16  O   UNL     1       1.065   4.472  17.262  0.00  0.00    +0.000 OA
BRANCH  12  17
ATOM     17  C   UNL     1       6.136   4.879  15.398  0.00  0.00    +0.000 C 
ATOM     18  F   UNL     1       7.404   5.310  15.644  0.00  0.00    +0.000 F 
ATOM     19  F   UNL     1       6.241   3.910  14.450  0.00  0.00    +0.000 F 
ATOM     20  F   UNL     1       5.505   5.929  14.795  0.00  0.00    +0.000 F 
ENDBRANCH  12  17
ENDBRANCH   4   7
BRANCH   1  21
ATOM     21  C   UNL     1       0.394  10.337  19.458  0.00  0.00    +0.000 C 
ATOM     22  C   UNL     1       0.232  10.998  18.033  0.00  0.00    +0.000 C 
ATOM     23  C   UNL     1      -1.136  10.323  17.885  0.00  0.00    +0.000 C 
ATOM     24  C   UNL     1      -1.163  10.080  19.396  0.00  0.00    +0.000 C 
BRANCH  21  25
ATOM     25  C   UNL     1       0.882  11.234  20.613  0.00  0.00    +0.000 C 
BRANCH  25  31
ATOM     26  C   UNL     1      -0.652  10.095  23.140  0.00  0.00    +0.000 C 
ATOM     27  N   UNL     1      -0.751  11.413  22.573  0.00  0.00    +0.000 N 
ATOM     28  C   UNL     1      -1.469  12.439  23.108  0.00  0.00    +0.000 A 
ATOM     29  N   UNL     1      -1.360  13.497  22.342  0.00  0.00    +0.000 NA
ATOM     30  N   UNL     1      -0.527  13.171  21.302  0.00  0.00    +0.000 NA
ATOM     31  C   UNL     1      -0.145  11.916  21.450  0.00  0.00    +0.000 A 
ENDBRANCH  25  31
ENDBRANCH  21  25
ENDBRANCH   1  21
TORSDOF 5
ENDMDL
MODEL 7
REMARK VINA RESULT:      -8.6      4.154      8.516
REMARK  Name = 
REMARK  6 active torsions:
REMARK  status: ('A' for Active; 'I' for Inactive)
REMARK    1  A    between atoms: C_1  and  N_2
REMARK    2  A    between atoms: C_6  and  C_7
REMARK    3  A    between atoms: C_7  and  C_8
REMARK    4  A    between atoms: C_8  and  C_9
REMARK    5  A    between atoms: C_12  and  N_13
REMARK    6  A    between atoms: C_18  and  C_19
REMARK                            x       y       z     vdW  Elec       q    Type
REMARK                         _______ _______ _______ _____ _____    ______ ____
ROOT
ATOM      1  C   UNL     1       2.456   6.707  18.833  0.00  0.00    +0.000 A 
ATOM      2  C   UNL     1       2.372   7.825  17.987  0.00  0.00    +0.000 A 
ATOM      3  C   UNL     1       1.839   9.038  18.429  0.00  0.00    +0.000 A 
ATOM      4  C   UNL     1       1.271   9.113  19.705  0.00  0.00    +0.000 A 
ATOM      5  C   UNL     1       1.637   8.145  20.639  0.00  0.00    +0.000 A 
ATOM      6  C   UNL     1       2.215   6.949  20.198  0.00  0.00    +0.000 A 
ENDROOT
BRANCH   4   7
ATOM      7  N   UNL     1       0.055   9.906  19.917  0.00  0.00    +0.000 N 
ATOM      8  C   UNL     1      -0.278  10.740  18.735  0.00  0.00    +0.000 C 
ATOM      9  C   UNL     1       0.543  11.965  19.001  0.00  0.00    +0.000 A 
ATOM     10  C   UNL     1       1.314  12.716  18.132  0.00  0.00    +0.000 A 
ATOM     11  C   UNL     1       2.305  13.537  18.683  0.00  0.00    +0.000 A 
ATOM     12  C   UNL     1       2.506  13.619  20.085  0.00  0.00    +0.000 A 
ATOM     13  C   UNL     1       1.659  12.906  20.951  0.00  0.00    +0.000 A 
ATOM     14  C   UNL     1       0.704  12.081  20.381  0.00  0.00    +0.000 A 
ATOM     15  C   UNL     1       0.156  10.842  20.988  0.00  0.00    +0.000 C 
ATOM     16  O   UNL     1       0.053  10.650  22.185  0.00  0.00    +0.000 OA
BRANCH  12  17
ATOM     17  C   UNL     1       3.700  14.351  20.650  0.00  0.00    +0.000 C 
ATOM     18  F   UNL     1       4.306  13.692  21.677  0.00  0.00    +0.000 F 
ATOM     19  F   UNL     1       4.667  14.579  19.723  0.00  0.00    +0.000 F 
ATOM     20  F   UNL     1       3.362  15.575  21.152  0.00  0.00    +0.000 F 
ENDBRANCH  12  17
ENDBRANCH   4   7
BRANCH   1  21
ATOM     21  C   UNL     1       2.779   5.221  18.237  0.00  0.00    +0.000 C 
ATOM     22  C   UNL     1       2.828   4.054  19.299  0.00  0.00    +0.000 C 
ATOM     23  C   UNL     1       1.388   3.673  18.934  0.00  0.00    +0.000 C 
ATOM     24  C   UNL     1       1.521   4.478  17.638  0.00  0.00    +0.000 C 
BRANCH  21  25
ATOM     25  C   UNL     1       3.982   5.377  17.286  0.00  0.00    +0.000 C 
BRANCH  25  31
ATOM     26  C   UNL     1       6.497   4.192  15.767  0.00  0.00    +0.000 C 
ATOM     27  N   UNL     1       6.428   4.644  17.130  0.00  0.00    +0.000 N 
ATOM     28  C   UNL     1       7.489   4.728  17.979  0.00  0.00    +0.000 A 
ATOM     29  N   UNL     1       7.086   5.164  19.147  0.00  0.00    +0.000 NA
ATOM     30  N   UNL     1       5.738   5.406  19.054  0.00  0.00    +0.000 NA
ATOM     31  C   UNL     1       5.343   5.108  17.831  0.00  0.00    +0.000 A 
ENDBRANCH  25  31
ENDBRANCH  21  25
ENDBRANCH   1  21
TORSDOF 5
ENDMDL
MODEL 8
REMARK VINA RESULT:      -8.6      4.362      8.966
REMARK  Name = 
REMARK  6 active torsions:
REMARK  status: ('A' for Active; 'I' for Inactive)
REMARK    1  A    between atoms: C_1  and  N_2
REMARK    2  A    between atoms: C_6  and  C_7
REMARK    3  A    between atoms: C_7  and  C_8
REMARK    4  A    between atoms: C_8  and  C_9
REMARK    5  A    between atoms: C_12  and  N_13
REMARK    6  A    between atoms: C_18  and  C_19
REMARK                            x       y       z     vdW  Elec       q    Type
REMARK                         _______ _______ _______ _____ _____    ______ ____
ROOT
ATOM      1  C   UNL     1       2.545   7.338  18.739  0.00  0.00    +0.000 A 
ATOM      2  C   UNL     1       2.332   8.425  17.876  0.00  0.00    +0.000 A 
ATOM      3  C   UNL     1       1.569   9.528  18.265  0.00  0.00    +0.000 A 
ATOM      4  C   UNL     1       0.906   9.504  19.496  0.00  0.00    +0.000 A 
ATOM      5  C   UNL     1       1.363   8.612  20.465  0.00  0.00    +0.000 A 
ATOM      6  C   UNL     1       2.168   7.534  20.080  0.00  0.00    +0.000 A 
ENDROOT
BRANCH   4   7
ATOM      7  N   UNL     1      -0.440  10.076  19.613  0.00  0.00    +0.000 N 
ATOM      8  C   UNL     1      -0.748  11.005  18.495  0.00  0.00    +0.000 C 
ATOM      9  C   UNL     1      -0.179  12.289  19.018  0.00  0.00    +0.000 A 
ATOM     10  C   UNL     1       0.567  13.254  18.365  0.00  0.00    +0.000 A 
ATOM     11  C   UNL     1       1.331  14.128  19.148  0.00  0.00    +0.000 A 
ATOM     12  C   UNL     1       1.331  14.048  20.564  0.00  0.00    +0.000 A 
ATOM     13  C   UNL     1       0.505  13.109  21.208  0.00  0.00    +0.000 A 
ATOM     14  C   UNL     1      -0.220  12.239  20.411  0.00  0.00    +0.000 A 
ATOM     15  C   UNL     1      -0.633  10.863  20.786  0.00  0.00    +0.000 C 
ATOM     16  O   UNL     1      -0.859  10.498  21.924  0.00  0.00    +0.000 OA
BRANCH  12  17
ATOM     17  C   UNL     1       2.306  14.862  21.381  0.00  0.00    +0.000 C 
ATOM     18  F   UNL     1       1.757  15.401  22.505  0.00  0.00    +0.000 F 
ATOM     19  F   UNL     1       3.381  14.140  21.794  0.00  0.00    +0.000 F 
ATOM     20  F   UNL     1       2.808  15.919  20.679  0.00  0.00    +0.000 F 
ENDBRANCH  12  17
ENDBRANCH   4   7
BRANCH   1  21
ATOM     21  C   UNL     1       3.160   5.930  18.185  0.00  0.00    +0.000 C 
ATOM     22  C   UNL     1       4.241   6.059  17.041  0.00  0.00    +0.000 C 
ATOM     23  C   UNL     1       5.353   5.906  18.086  0.00  0.00    +0.000 C 
ATOM     24  C   UNL     1       4.326   5.341  19.072  0.00  0.00    +0.000 C 
BRANCH  21  25
ATOM     25  C   UNL     1       1.964   4.990  17.937  0.00  0.00    +0.000 C 
BRANCH  25  31
ATOM     26  C   UNL     1       2.945   1.979  18.002  0.00  0.00    +0.000 C 
ATOM     27  N   UNL     1       2.156   2.666  18.988  0.00  0.00    +0.000 N 
ATOM     28  C   UNL     1       1.778   2.143  20.187  0.00  0.00    +0.000 A 
ATOM     29  N   UNL     1       1.059   3.021  20.842  0.00  0.00    +0.000 NA
ATOM     30  N   UNL     1       0.993   4.156  20.075  0.00  0.00    +0.000 NA
ATOM     31  C   UNL     1       1.669   3.949  18.961  0.00  0.00    +0.000 A 
ENDBRANCH  25  31
ENDBRANCH  21  25
ENDBRANCH   1  21
TORSDOF 5
ENDMDL
MODEL 9
REMARK VINA RESULT:      -8.5      0.851      1.022
REMARK  Name = 
REMARK  6 active torsions:
REMARK  status: ('A' for Active; 'I' for Inactive)
REMARK    1  A    between atoms: C_1  and  N_2
REMARK    2  A    between atoms: C_6  and  C_7
REMARK    3  A    between atoms: C_7  and  C_8
REMARK    4  A    between atoms: C_8  and  C_9
REMARK    5  A    between atoms: C_12  and  N_13
REMARK    6  A    between atoms: C_18  and  C_19
REMARK                            x       y       z     vdW  Elec       q    Type
REMARK                         _______ _______ _______ _____ _____    ______ ____
ROOT
ATOM      1  C   UNL     1       1.272   9.032  19.473  0.00  0.00    +0.000 A 
ATOM      2  C   UNL     1       1.399   8.347  20.692  0.00  0.00    +0.000 A 
ATOM      3  C   UNL     1       1.927   7.055  20.753  0.00  0.00    +0.000 A 
ATOM      4  C   UNL     1       2.230   6.382  19.565  0.00  0.00    +0.000 A 
ATOM      5  C   UNL     1       2.417   7.145  18.413  0.00  0.00    +0.000 A 
ATOM      6  C   UNL     1       1.930   8.455  18.371  0.00  0.00    +0.000 A 
ENDROOT
BRANCH   4   7
ATOM      7  N   UNL     1       1.955   4.945  19.449  0.00  0.00    +0.000 N 
ATOM      8  C   UNL     1       2.979   4.125  20.145  0.00  0.00    +0.000 C 
ATOM      9  C   UNL     1       4.021   3.991  19.077  0.00  0.00    +0.000 A 
ATOM     10  C   UNL     1       5.398   4.087  19.172  0.00  0.00    +0.000 A 
ATOM     11  C   UNL     1       6.116   4.349  17.999  0.00  0.00    +0.000 A 
ATOM     12  C   UNL     1       5.464   4.492  16.746  0.00  0.00    +0.000 A 
ATOM     13  C   UNL     1       4.072   4.314  16.663  0.00  0.00    +0.000 A 
ATOM     14  C   UNL     1       3.383   4.082  17.841  0.00  0.00    +0.000 A 
ATOM     15  C   UNL     1       1.972   4.461  18.108  0.00  0.00    +0.000 C 
ATOM     16  O   UNL     1       1.107   4.537  17.255  0.00  0.00    +0.000 OA
BRANCH  12  17
ATOM     17  C   UNL     1       6.225   4.967  15.532  0.00  0.00    +0.000 C 
ATOM     18  F   UNL     1       7.372   5.635  15.836  0.00  0.00    +0.000 F 
ATOM     19  F   UNL     1       6.586   3.951  14.705  0.00  0.00    +0.000 F 
ATOM     20  F   UNL     1       5.492   5.831  14.771  0.00  0.00    +0.000 F 
ENDBRANCH  12  17
ENDBRANCH   4   7
BRANCH   1  21
ATOM     21  C   UNL     1       0.378  10.394  19.361  0.00  0.00    +0.000 C 
ATOM     22  C   UNL     1      -0.192  10.722  17.926  0.00  0.00    +0.000 C 
ATOM     23  C   UNL     1      -1.537  10.106  18.328  0.00  0.00    +0.000 C 
ATOM     24  C   UNL     1      -1.129  10.215  19.800  0.00  0.00    +0.000 C 
BRANCH  21  25
ATOM     25  C   UNL     1       1.163  11.502  20.091  0.00  0.00    +0.000 C 
BRANCH  25  31
ATOM     26  C   UNL     1      -0.496  14.197  19.962  0.00  0.00    +0.000 C 
ATOM     27  N   UNL     1       0.772  13.916  19.344  0.00  0.00    +0.000 N 
ATOM     28  C   UNL     1       1.528  14.824  18.667  0.00  0.00    +0.000 A 
ATOM     29  N   UNL     1       2.615  14.245  18.220  0.00  0.00    +0.000 NA
ATOM     30  N   UNL     1       2.591  12.940  18.642  0.00  0.00    +0.000 NA
ATOM     31  C   UNL     1       1.485  12.744  19.335  0.00  0.00    +0.000 A 
ENDBRANCH  25  31
ENDBRANCH  21  25
ENDBRANCH   1  21
TORSDOF 5
ENDMDL
