MODEL 1
REMARK VINA RESULT:      -8.2      0.000      0.000
REMARK  Name = 
REMARK  4 active torsions:
REMARK  status: ('A' for Active; 'I' for Inactive)
REMARK    1  A    between atoms: C_2  and  C_10
REMARK    2  A    between atoms: N_3  and  C_4
REMARK    3  A    between atoms: C_4  and  C_5
REMARK    4  A    between atoms: N_12  and  C_13
REMARK                            x       y       z     vdW  Elec       q    Type
REMARK                         _______ _______ _______ _____ _____    ______ ____
ROOT
ATOM      1  C   UNL     1       6.318   5.194  18.195  0.00  0.00    +0.000 A 
ATOM      2  N   UNL     1       5.329   4.940  19.003  0.00  0.00    +0.000 NA
ATOM      3  N   UNL     1       4.236   4.231  18.529  0.00  0.00    +0.000 N 
ATOM      4  C   UNL     1       4.105   3.817  17.197  0.00  0.00    +0.000 A 
ATOM      5  O   UNL     1       3.167   3.185  16.714  0.00  0.00    +0.000 OA
ATOM      6  C   UNL     1       5.178   4.224  16.273  0.00  0.00    +0.000 A 
ATOM      7  C   UNL     1       5.044   3.966  14.899  0.00  0.00    +0.000 A 
ATOM      8  C   UNL     1       6.049   4.342  14.013  0.00  0.00    +0.000 A 
ATOM      9  C   UNL     1       7.198   4.960  14.499  0.00  0.00    +0.000 A 
ATOM     10  C   UNL     1       7.328   5.228  15.867  0.00  0.00    +0.000 A 
ATOM     11  C   UNL     1       6.306   4.871  16.758  0.00  0.00    +0.000 A 
ENDROOT
BRANCH   3  12
ATOM     12  C   UNL     1       3.267   3.905  19.538  0.00  0.00    +0.000 A 
ATOM     13  C   UNL     1       3.454   2.841  20.433  0.00  0.00    +0.000 A 
ATOM     14  C   UNL     1       2.498   2.527  21.405  0.00  0.00    +0.000 A 
ATOM     15  C   UNL     1       1.326   3.269  21.494  0.00  0.00    +0.000 A 
ATOM     16  C   UNL     1       1.118   4.334  20.622  0.00  0.00    +0.000 A 
ATOM     17  C   UNL     1       2.088   4.658  19.662  0.00  0.00    +0.000 A 
ENDBRANCH   3  12
BRANCH   1  19
ATOM     18  O   UNL     1       8.259   5.294  19.588  0.00  0.00    +0.000 OA
ATOM     19  C   UNL     1       7.532   5.892  18.808  0.00  0.00    +0.000 C 
ATOM     20  N   UNL     1       7.710   7.194  18.400  0.00  0.00    +0.000 N 
ATOM     21  H   UNL     1       6.969   7.616  17.845  0.00  0.00    +0.000 HD
BRANCH  20  22
ATOM     22  C   UNL     1       8.829   7.999  18.843  0.00  0.00    +0.000 C 
BRANCH  22  23
ATOM     23  C   UNL     1       8.532   9.501  18.887  0.00  0.00    +0.000 C 
ATOM     24  C   UNL     1       8.484  10.170  17.513  0.00  0.00    +0.000 C 
ATOM     25  C   UNL     1       8.657  11.660  17.796  0.00  0.00    +0.000 C 
ATOM     26  C   UNL     1       9.232  11.774  19.207  0.00  0.00    +0.000 C 
ATOM     27  C   UNL     1       9.555  10.348  19.640  0.00  0.00    +0.000 C 
ENDBRANCH  22  23
ENDBRANCH  20  22
ENDBRANCH   1  19
TORSDOF 4
ENDMDL
MODEL 2
REMARK VINA RESULT:      -8.1      3.425      5.838
REMARK  Name = 
REMARK  4 active torsions:
REMARK  status: ('A' for Active; 'I' for Inactive)
REMARK    1  A    between atoms: C_2  and  C_10
REMARK    2  A    between atoms: N_3  and  C_4
REMARK    3  A    between atoms: C_4  and  C_5
REMARK    4  A    between atoms: N_12  and  C_13
REMARK                            x       y       z     vdW  Elec       q    Type
REMARK                         _______ _______ _______ _____ _____    ______ ____
ROOT
ATOM      1  C   UNL     1       4.118   5.526  18.242  0.00  0.00    +0.000 A 
ATOM      2  N   UNL     1       3.504   6.607  18.628  0.00  0.00    +0.000 NA
ATOM      3  N   UNL     1       2.346   6.495  19.382  0.00  0.00    +0.000 N 
ATOM      4  C   UNL     1       1.757   5.266  19.709  0.00  0.00    +0.000 A 
ATOM      5  O   UNL     1       0.737   5.096  20.375  0.00  0.00    +0.000 OA
ATOM      6  C   UNL     1       2.399   4.060  19.157  0.00  0.00    +0.000 A 
ATOM      7  C   UNL     1       1.786   2.809  19.327  0.00  0.00    +0.000 A 
ATOM      8  C   UNL     1       2.380   1.660  18.813  0.00  0.00    +0.000 A 
ATOM      9  C   UNL     1       3.598   1.757  18.146  0.00  0.00    +0.000 A 
ATOM     10  C   UNL     1       4.206   3.005  17.966  0.00  0.00    +0.000 A 
ATOM     11  C   UNL     1       3.596   4.165  18.462  0.00  0.00    +0.000 A 
ENDROOT
BRANCH   3  12
ATOM     12  C   UNL     1       1.828   7.749  19.851  0.00  0.00    +0.000 A 
ATOM     13  C   UNL     1       1.536   7.973  21.205  0.00  0.00    +0.000 A 
ATOM     14  C   UNL     1       1.021   9.196  21.649  0.00  0.00    +0.000 A 
ATOM     15  C   UNL     1       0.778  10.220  20.741  0.00  0.00    +0.000 A 
ATOM     16  C   UNL     1       1.064  10.026  19.392  0.00  0.00    +0.000 A 
ATOM     17  C   UNL     1       1.599   8.805  18.954  0.00  0.00    +0.000 A 
ENDBRANCH   3  12
BRANCH   1  19
ATOM     18  O   UNL     1       6.436   6.093  18.102  0.00  0.00    +0.000 OA
ATOM     19  C   UNL     1       5.439   5.724  17.500  0.00  0.00    +0.000 C 
ATOM     20  N   UNL     1       5.385   5.447  16.153  0.00  0.00    +0.000 N 
ATOM     21  H   UNL     1       4.469   5.268  15.748  0.00  0.00    +0.000 HD
BRANCH  20  22
ATOM     22  C   UNL     1       6.549   5.538  15.296  0.00  0.00    +0.000 C 
BRANCH  22  23
ATOM     23  C   UNL     1       6.618   4.442  14.229  0.00  0.00    +0.000 C 
ATOM     24  C   UNL     1       7.438   4.821  12.995  0.00  0.00    +0.000 C 
ATOM     25  C   UNL     1       6.994   3.840  11.912  0.00  0.00    +0.000 C 
ATOM     26  C   UNL     1       5.668   3.243  12.380  0.00  0.00    +0.000 C 
ATOM     27  C   UNL     1       5.277   4.025  13.629  0.00  0.00    +0.000 C 
ENDBRANCH  22  23
ENDBRANCH  20  22
ENDBRANCH   1  19
TORSDOF 4
ENDMDL
MODEL 3
REMARK VINA RESULT:      -8.1      3.521      6.835
REMARK  Name = 
REMARK  4 active torsions:
REMARK  status: ('A' for Active; 'I' for Inactive)
REMARK    1  A    between atoms: C_2  and  C_10
REMARK    2  A    between atoms: N_3  and  C_4
REMARK    3  A    between atoms: C_4  and  C_5
REMARK    4  A    between atoms: N_12  and  C_13
REMARK                            x       y       z     vdW  Elec       q    Type
REMARK                         _______ _______ _______ _____ _____    ______ ____
ROOT
ATOM      1  C   UNL     1       2.933   5.959  18.518  0.00  0.00    +0.000 A 
ATOM      2  N   UNL     1       3.861   5.868  17.610  0.00  0.00    +0.000 NA
ATOM      3  N   UNL     1       4.274   4.614  17.188  0.00  0.00    +0.000 N 
ATOM      4  C   UNL     1       3.784   3.419  17.733  0.00  0.00    +0.000 A 
ATOM      5  O   UNL     1       4.103   2.277  17.405  0.00  0.00    +0.000 OA
ATOM      6  C   UNL     1       2.826   3.547  18.846  0.00  0.00    +0.000 A 
ATOM      7  C   UNL     1       2.401   2.397  19.530  0.00  0.00    +0.000 A 
ATOM      8  C   UNL     1       1.496   2.501  20.582  0.00  0.00    +0.000 A 
ATOM      9  C   UNL     1       0.998   3.751  20.939  0.00  0.00    +0.000 A 
ATOM     10  C   UNL     1       1.428   4.899  20.265  0.00  0.00    +0.000 A 
ATOM     11  C   UNL     1       2.358   4.799  19.221  0.00  0.00    +0.000 A 
ENDROOT
BRANCH   3  12
ATOM     12  C   UNL     1       5.211   4.639  16.100  0.00  0.00    +0.000 A 
ATOM     13  C   UNL     1       4.864   4.210  14.811  0.00  0.00    +0.000 A 
ATOM     14  C   UNL     1       5.789   4.229  13.761  0.00  0.00    +0.000 A 
ATOM     15  C   UNL     1       7.088   4.672  13.985  0.00  0.00    +0.000 A 
ATOM     16  C   UNL     1       7.456   5.109  15.255  0.00  0.00    +0.000 A 
ATOM     17  C   UNL     1       6.520   5.106  16.299  0.00  0.00    +0.000 A 
ENDBRANCH   3  12
BRANCH   1  19
ATOM     18  O   UNL     1       2.296   7.699  20.028  0.00  0.00    +0.000 OA
ATOM     19  C   UNL     1       2.458   7.370  18.863  0.00  0.00    +0.000 C 
ATOM     20  N   UNL     1       2.252   8.186  17.773  0.00  0.00    +0.000 N 
ATOM     21  H   UNL     1       2.302   7.759  16.853  0.00  0.00    +0.000 HD
BRANCH  20  22
ATOM     22  C   UNL     1       1.842   9.569  17.908  0.00  0.00    +0.000 C 
BRANCH  22  23
ATOM     23  C   UNL     1       0.475   9.746  18.574  0.00  0.00    +0.000 C 
ATOM     24  C   UNL     1      -0.692   9.849  17.591  0.00  0.00    +0.000 C 
ATOM     25  C   UNL     1      -1.827  10.480  18.394  0.00  0.00    +0.000 C 
ATOM     26  C   UNL     1      -1.189  11.119  19.627  0.00  0.00    +0.000 C 
ATOM     27  C   UNL     1       0.317  11.009  19.419  0.00  0.00    +0.000 C 
ENDBRANCH  22  23
ENDBRANCH  20  22
ENDBRANCH   1  19
TORSDOF 4
ENDMDL
MODEL 4
REMARK VINA RESULT:      -8.1      3.243      6.004
REMARK  Name = 
REMARK  4 active torsions:
REMARK  status: ('A' for Active; 'I' for Inactive)
REMARK    1  A    between atoms: C_2  and  C_10
REMARK    2  A    between atoms: N_3  and  C_4
REMARK    3  A    between atoms: C_4  and  C_5
REMARK    4  A    between atoms: N_12  and  C_13
REMARK                            x       y       z     vdW  Elec       q    Type
REMARK                         _______ _______ _______ _____ _____    ______ ____
ROOT
ATOM      1  C   UNL     1       4.507   5.661  18.661  0.00  0.00    +0.000 A 
ATOM      2  N   UNL     1       3.766   6.728  18.579  0.00  0.00    +0.000 NA
ATOM      3  N   UNL     1       2.587   6.790  19.306  0.00  0.00    +0.000 N 
ATOM      4  C   UNL     1       2.110   5.730  20.090  0.00  0.00    +0.000 A 
ATOM      5  O   UNL     1       1.079   5.720  20.761  0.00  0.00    +0.000 OA
ATOM      6  C   UNL     1       2.901   4.488  20.069  0.00  0.00    +0.000 A 
ATOM      7  C   UNL     1       2.411   3.343  20.718  0.00  0.00    +0.000 A 
ATOM      8  C   UNL     1       3.147   2.161  20.709  0.00  0.00    +0.000 A 
ATOM      9  C   UNL     1       4.383   2.127  20.068  0.00  0.00    +0.000 A 
ATOM     10  C   UNL     1       4.868   3.264  19.412  0.00  0.00    +0.000 A 
ATOM     11  C   UNL     1       4.117   4.447  19.400  0.00  0.00    +0.000 A 
ENDROOT
BRANCH   3  12
ATOM     12  C   UNL     1       1.918   8.059  19.233  0.00  0.00    +0.000 A 
ATOM     13  C   UNL     1       1.347   8.664  20.363  0.00  0.00    +0.000 A 
ATOM     14  C   UNL     1       0.689   9.896  20.277  0.00  0.00    +0.000 A 
ATOM     15  C   UNL     1       0.581  10.544  19.052  0.00  0.00    +0.000 A 
ATOM     16  C   UNL     1       1.144   9.967  17.917  0.00  0.00    +0.000 A 
ATOM     17  C   UNL     1       1.820   8.742  18.011  0.00  0.00    +0.000 A 
ENDBRANCH   3  12
BRANCH   1  19
ATOM     18  O   UNL     1       6.870   5.985  18.502  0.00  0.00    +0.000 OA
ATOM     19  C   UNL     1       5.838   5.701  17.912  0.00  0.00    +0.000 C 
ATOM     20  N   UNL     1       5.751   5.391  16.573  0.00  0.00    +0.000 N 
ATOM     21  H   UNL     1       4.821   5.294  16.175  0.00  0.00    +0.000 HD
BRANCH  20  22
ATOM     22  C   UNL     1       6.915   5.337  15.714  0.00  0.00    +0.000 C 
BRANCH  22  23
ATOM     23  C   UNL     1       6.768   4.373  14.533  0.00  0.00    +0.000 C 
ATOM     24  C   UNL     1       7.512   4.811  13.271  0.00  0.00    +0.000 C 
ATOM     25  C   UNL     1       6.868   4.014  12.139  0.00  0.00    +0.000 C 
ATOM     26  C   UNL     1       5.530   3.502  12.671  0.00  0.00    +0.000 C 
ATOM     27  C   UNL     1       5.341   4.167  14.029  0.00  0.00    +0.000 C 
ENDBRANCH  22  23
ENDBRANCH  20  22
ENDBRANCH   1  19
TORSDOF 4
ENDMDL
MODEL 5
REMARK VINA RESULT:      -8.0      3.647      5.803
REMARK  Name = 
REMARK  4 active torsions:
REMARK  status: ('A' for Active; 'I' for Inactive)
REMARK    1  A    between atoms: C_2  and  C_10
REMARK    2  A    between atoms: N_3  and  C_4
REMARK    3  A    between atoms: C_4  and  C_5
REMARK    4  A    between atoms: N_12  and  C_13
REMARK                            x       y       z     vdW  Elec       q    Type
REMARK                         _______ _______ _______ _____ _____    ______ ____
ROOT
ATOM      1  C   UNL     1       3.803   5.750  17.759  0.00  0.00    +0.000 A 
ATOM      2  N   UNL     1       3.212   6.793  18.267  0.00  0.00    +0.000 NA
ATOM      3  N   UNL     1       2.294   6.618  19.290  0.00  0.00    +0.000 N 
ATOM      4  C   UNL     1       1.916   5.360  19.779  0.00  0.00    +0.000 A 
ATOM      5  O   UNL     1       1.113   5.135  20.684  0.00  0.00    +0.000 OA
ATOM      6  C   UNL     1       2.504   4.189  19.106  0.00  0.00    +0.000 A 
ATOM      7  C   UNL     1       2.066   2.900  19.449  0.00  0.00    +0.000 A 
ATOM      8  C   UNL     1       2.612   1.783  18.824  0.00  0.00    +0.000 A 
ATOM      9  C   UNL     1       3.612   1.950  17.870  0.00  0.00    +0.000 A 
ATOM     10  C   UNL     1       4.042   3.235  17.519  0.00  0.00    +0.000 A 
ATOM     11  C   UNL     1       3.476   4.362  18.130  0.00  0.00    +0.000 A 
ENDROOT
BRANCH   3  12
ATOM     12  C   UNL     1       1.799   7.845  19.851  0.00  0.00    +0.000 A 
ATOM     13  C   UNL     1       1.600   8.004  21.231  0.00  0.00    +0.000 A 
ATOM     14  C   UNL     1       1.109   9.200  21.764  0.00  0.00    +0.000 A 
ATOM     15  C   UNL     1       0.796  10.262  20.923  0.00  0.00    +0.000 A 
ATOM     16  C   UNL     1       0.990  10.132  19.550  0.00  0.00    +0.000 A 
ATOM     17  C   UNL     1       1.501   8.938  19.022  0.00  0.00    +0.000 A 
ENDBRANCH   3  12
BRANCH   1  19
ATOM     18  O   UNL     1       4.821   7.033  16.018  0.00  0.00    +0.000 OA
ATOM     19  C   UNL     1       4.874   6.024  16.705  0.00  0.00    +0.000 C 
ATOM     20  N   UNL     1       5.857   5.063  16.624  0.00  0.00    +0.000 N 
ATOM     21  H   UNL     1       5.723   4.211  17.163  0.00  0.00    +0.000 HD
BRANCH  20  22
ATOM     22  C   UNL     1       6.976   5.174  15.712  0.00  0.00    +0.000 C 
BRANCH  22  23
ATOM     23  C   UNL     1       6.601   4.958  14.243  0.00  0.00    +0.000 C 
ATOM     24  C   UNL     1       5.975   3.594  13.952  0.00  0.00    +0.000 C 
ATOM     25  C   UNL     1       6.125   3.409  12.443  0.00  0.00    +0.000 C 
ATOM     26  C   UNL     1       7.187   4.406  11.983  0.00  0.00    +0.000 C 
ATOM     27  C   UNL     1       7.764   5.015  13.255  0.00  0.00    +0.000 C 
ENDBRANCH  22  23
ENDBRANCH  20  22
ENDBRANCH   1  19
TORSDOF 4
ENDMDL
MODEL 6
REMARK VINA RESULT:      -7.9      3.417      6.948
REMARK  Name = 
REMARK  4 active torsions:
REMARK  status: ('A' for Active; 'I' for Inactive)
REMARK    1  A    between atoms: C_2  and  C_10
REMARK    2  A    between atoms: N_3  and  C_4
REMARK    3  A    between atoms: C_4  and  C_5
REMARK    4  A    between atoms: N_12  and  C_13
REMARK                            x       y       z     vdW  Elec       q    Type
REMARK                         _______ _______ _______ _____ _____    ______ ____
ROOT
ATOM      1  C   UNL     1       2.944   6.333  18.130  0.00  0.00    +0.000 A 
ATOM      2  N   UNL     1       3.886   6.157  17.249  0.00  0.00    +0.000 NA
ATOM      3  N   UNL     1       4.375   4.878  17.028  0.00  0.00    +0.000 N 
ATOM      4  C   UNL     1       3.948   3.756  17.750  0.00  0.00    +0.000 A 
ATOM      5  O   UNL     1       4.336   2.598  17.603  0.00  0.00    +0.000 OA
ATOM      6  C   UNL     1       2.972   3.998  18.827  0.00  0.00    +0.000 A 
ATOM      7  C   UNL     1       2.607   2.945  19.681  0.00  0.00    +0.000 A 
ATOM      8  C   UNL     1       1.685   3.157  20.702  0.00  0.00    +0.000 A 
ATOM      9  C   UNL     1       1.112   4.415  20.860  0.00  0.00    +0.000 A 
ATOM     10  C   UNL     1       1.483   5.469  20.016  0.00  0.00    +0.000 A 
ATOM     11  C   UNL     1       2.429   5.263  19.003  0.00  0.00    +0.000 A 
ENDROOT
BRANCH   3  12
ATOM     12  C   UNL     1       5.321   4.790  15.951  0.00  0.00    +0.000 A 
ATOM     13  C   UNL     1       5.009   4.159  14.738  0.00  0.00    +0.000 A 
ATOM     14  C   UNL     1       5.943   4.070  13.699  0.00  0.00    +0.000 A 
ATOM     15  C   UNL     1       7.217   4.605  13.860  0.00  0.00    +0.000 A 
ATOM     16  C   UNL     1       7.550   5.242  15.053  0.00  0.00    +0.000 A 
ATOM     17  C   UNL     1       6.604   5.346  16.083  0.00  0.00    +0.000 A 
ENDBRANCH   3  12
BRANCH   1  19
ATOM     18  O   UNL     1       2.444   8.520  17.304  0.00  0.00    +0.000 OA
ATOM     19  C   UNL     1       2.384   7.749  18.251  0.00  0.00    +0.000 C 
ATOM     20  N   UNL     1       1.829   8.042  19.475  0.00  0.00    +0.000 N 
ATOM     21  H   UNL     1       1.951   7.360  20.219  0.00  0.00    +0.000 HD
BRANCH  20  22
ATOM     22  C   UNL     1       1.212   9.321  19.760  0.00  0.00    +0.000 C 
BRANCH  22  23
ATOM     23  C   UNL     1       0.329   9.317  21.011  0.00  0.00    +0.000 C 
ATOM     24  C   UNL     1      -0.360  10.652  21.295  0.00  0.00    +0.000 C 
ATOM     25  C   UNL     1      -0.770  10.578  22.764  0.00  0.00    +0.000 C 
ATOM     26  C   UNL     1       0.052   9.453  23.391  0.00  0.00    +0.000 C 
ATOM     27  C   UNL     1       1.053   9.025  22.324  0.00  0.00    +0.000 C 
ENDBRANCH  22  23
ENDBRANCH  20  22
ENDBRANCH   1  19
TORSDOF 4
ENDMDL
MODEL 7
REMARK VINA RESULT:      -7.9      3.274      6.036
REMARK  Name = 
REMARK  4 active torsions:
REMARK  status: ('A' for Active; 'I' for Inactive)
REMARK    1  A    between atoms: C_2  and  C_10
REMARK    2  A    between atoms: N_3  and  C_4
REMARK    3  A    between atoms: C_4  and  C_5
REMARK    4  A    between atoms: N_12  and  C_13
REMARK                            x       y       z     vdW  Elec       q    Type
REMARK                         _______ _______ _______ _____ _____    ______ ____
ROOT
ATOM      1  C   UNL     1       4.483   5.727  18.577  0.00  0.00    +0.000 A 
ATOM      2  N   UNL     1       3.736   6.790  18.495  0.00  0.00    +0.000 NA
ATOM      3  N   UNL     1       2.584   6.868  19.262  0.00  0.00    +0.000 N 
ATOM      4  C   UNL     1       2.139   5.828  20.089  0.00  0.00    +0.000 A 
ATOM      5  O   UNL     1       1.131   5.832  20.796  0.00  0.00    +0.000 OA
ATOM      6  C   UNL     1       2.932   4.586  20.070  0.00  0.00    +0.000 A 
ATOM      7  C   UNL     1       2.468   3.457  20.764  0.00  0.00    +0.000 A 
ATOM      8  C   UNL     1       3.206   2.277  20.759  0.00  0.00    +0.000 A 
ATOM      9  C   UNL     1       4.418   2.229  20.075  0.00  0.00    +0.000 A 
ATOM     10  C   UNL     1       4.877   3.350  19.374  0.00  0.00    +0.000 A 
ATOM     11  C   UNL     1       4.123   4.531  19.359  0.00  0.00    +0.000 A 
ENDROOT
BRANCH   3  12
ATOM     12  C   UNL     1       1.910   8.133  19.182  0.00  0.00    +0.000 A 
ATOM     13  C   UNL     1       1.775   8.828  17.970  0.00  0.00    +0.000 A 
ATOM     14  C   UNL     1       1.125  10.065  17.906  0.00  0.00    +0.000 A 
ATOM     15  C   UNL     1       0.602  10.638  19.060  0.00  0.00    +0.000 A 
ATOM     16  C   UNL     1       0.718   9.967  20.274  0.00  0.00    +0.000 A 
ATOM     17  C   UNL     1       1.353   8.718  20.331  0.00  0.00    +0.000 A 
ENDBRANCH   3  12
BRANCH   1  19
ATOM     18  O   UNL     1       6.749   6.382  18.190  0.00  0.00    +0.000 OA
ATOM     19  C   UNL     1       5.786   5.751  17.780  0.00  0.00    +0.000 C 
ATOM     20  N   UNL     1       5.759   5.015  16.617  0.00  0.00    +0.000 N 
ATOM     21  H   UNL     1       4.863   4.636  16.324  0.00  0.00    +0.000 HD
BRANCH  20  22
ATOM     22  C   UNL     1       6.915   4.886  15.755  0.00  0.00    +0.000 C 
BRANCH  22  23
ATOM     23  C   UNL     1       6.573   4.838  14.263  0.00  0.00    +0.000 C 
ATOM     24  C   UNL     1       5.980   3.507  13.801  0.00  0.00    +0.000 C 
ATOM     25  C   UNL     1       6.161   3.502  12.284  0.00  0.00    +0.000 C 
ATOM     26  C   UNL     1       7.212   4.565  11.967  0.00  0.00    +0.000 C 
ATOM     27  C   UNL     1       7.753   5.031  13.313  0.00  0.00    +0.000 C 
ENDBRANCH  22  23
ENDBRANCH  20  22
ENDBRANCH   1  19
TORSDOF 4
ENDMDL
MODEL 8
REMARK VINA RESULT:      -7.6      3.168      6.055
REMARK  Name = 
REMARK  4 active torsions:
REMARK  status: ('A' for Active; 'I' for Inactive)
REMARK    1  A    between atoms: C_2  and  C_10
REMARK    2  A    between atoms: N_3  and  C_4
REMARK    3  A    between atoms: C_4  and  C_5
REMARK    4  A    between atoms: N_12  and  C_13
REMARK                            x       y       z     vdW  Elec       q    Type
REMARK                         _______ _______ _______ _____ _____    ______ ____
ROOT
ATOM      1  C   UNL     1       4.355   5.317  18.882  0.00  0.00    +0.000 A 
ATOM      2  N   UNL     1       3.743   6.448  18.677  0.00  0.00    +0.000 NA
ATOM      3  N   UNL     1       2.576   6.722  19.373  0.00  0.00    +0.000 N 
ATOM      4  C   UNL     1       1.975   5.813  20.255  0.00  0.00    +0.000 A 
ATOM      5  O   UNL     1       0.946   5.993  20.904  0.00  0.00    +0.000 OA
ATOM      6  C   UNL     1       2.616   4.492  20.377  0.00  0.00    +0.000 A 
ATOM      7  C   UNL     1       1.993   3.487  21.133  0.00  0.00    +0.000 A 
ATOM      8  C   UNL     1       2.586   2.234  21.260  0.00  0.00    +0.000 A 
ATOM      9  C   UNL     1       3.813   1.990  20.649  0.00  0.00    +0.000 A 
ATOM     10  C   UNL     1       4.430   2.988  19.886  0.00  0.00    +0.000 A 
ATOM     11  C   UNL     1       3.822   4.242  19.737  0.00  0.00    +0.000 A 
ENDROOT
BRANCH   3  12
ATOM     12  C   UNL     1       2.060   8.044  19.156  0.00  0.00    +0.000 A 
ATOM     13  C   UNL     1       2.203   8.705  17.927  0.00  0.00    +0.000 A 
ATOM     14  C   UNL     1       1.705   9.998  17.731  0.00  0.00    +0.000 A 
ATOM     15  C   UNL     1       1.060  10.661  18.769  0.00  0.00    +0.000 A 
ATOM     16  C   UNL     1       0.900  10.025  19.997  0.00  0.00    +0.000 A 
ATOM     17  C   UNL     1       1.383   8.721  20.183  0.00  0.00    +0.000 A 
ENDBRANCH   3  12
BRANCH   1  19
ATOM     18  O   UNL     1       6.561   4.427  18.647  0.00  0.00    +0.000 OA
ATOM     19  C   UNL     1       5.686   5.124  18.157  0.00  0.00    +0.000 C 
ATOM     20  N   UNL     1       5.780   5.781  16.950  0.00  0.00    +0.000 N 
ATOM     21  H   UNL     1       5.033   6.427  16.710  0.00  0.00    +0.000 HD
BRANCH  20  22
ATOM     22  C   UNL     1       6.949   5.680  16.103  0.00  0.00    +0.000 C 
BRANCH  22  23
ATOM     23  C   UNL     1       6.818   4.640  14.987  0.00  0.00    +0.000 C 
ATOM     24  C   UNL     1       7.534   5.019  13.691  0.00  0.00    +0.000 C 
ATOM     25  C   UNL     1       6.901   4.133  12.620  0.00  0.00    +0.000 C 
ATOM     26  C   UNL     1       5.585   3.617  13.200  0.00  0.00    +0.000 C 
ATOM     27  C   UNL     1       5.392   4.361  14.517  0.00  0.00    +0.000 C 
ENDBRANCH  22  23
ENDBRANCH  20  22
ENDBRANCH   1  19
TORSDOF 4
ENDMDL
MODEL 9
REMARK VINA RESULT:      -7.5      6.094      9.944
REMARK  Name = 
REMARK  4 active torsions:
REMARK  status: ('A' for Active; 'I' for Inactive)
REMARK    1  A    between atoms: C_2  and  C_10
REMARK    2  A    between atoms: N_3  and  C_4
REMARK    3  A    between atoms: C_4  and  C_5
REMARK    4  A    between atoms: N_12  and  C_13
REMARK                            x       y       z     vdW  Elec       q    Type
REMARK                         _______ _______ _______ _____ _____    ______ ____
ROOT
ATOM      1  C   UNL     1       1.263  10.243  19.254  0.00  0.00    +0.000 A 
ATOM      2  N   UNL     1       1.601  11.410  18.783  0.00  0.00    +0.000 NA
ATOM      3  N   UNL     1       1.450  12.531  19.584  0.00  0.00    +0.000 N 
ATOM      4  C   UNL     1       0.890  12.489  20.869  0.00  0.00    +0.000 A 
ATOM      5  O   UNL     1       0.730  13.442  21.631  0.00  0.00    +0.000 OA
ATOM      6  C   UNL     1       0.400  11.179  21.331  0.00  0.00    +0.000 A 
ATOM      7  C   UNL     1      -0.297  11.090  22.547  0.00  0.00    +0.000 A 
ATOM      8  C   UNL     1      -0.764   9.859  22.999  0.00  0.00    +0.000 A 
ATOM      9  C   UNL     1      -0.520   8.713  22.248  0.00  0.00    +0.000 A 
ATOM     10  C   UNL     1       0.164   8.802  21.030  0.00  0.00    +0.000 A 
ATOM     11  C   UNL     1       0.615  10.044  20.562  0.00  0.00    +0.000 A 
ENDROOT
BRANCH   3  12
ATOM     12  C   UNL     1       1.968  13.739  19.006  0.00  0.00    +0.000 A 
ATOM     13  C   UNL     1       3.268  13.815  18.485  0.00  0.00    +0.000 A 
ATOM     14  C   UNL     1       3.766  15.001  17.933  0.00  0.00    +0.000 A 
ATOM     15  C   UNL     1       2.972  16.142  17.902  0.00  0.00    +0.000 A 
ATOM     16  C   UNL     1       1.675  16.091  18.408  0.00  0.00    +0.000 A 
ATOM     17  C   UNL     1       1.174  14.895  18.942  0.00  0.00    +0.000 A 
ENDBRANCH   3  12
BRANCH   1  19
ATOM     18  O   UNL     1       1.109   9.003  17.216  0.00  0.00    +0.000 OA
ATOM     19  C   UNL     1       1.549   9.041  18.355  0.00  0.00    +0.000 C 
ATOM     20  N   UNL     1       2.324   8.063  18.937  0.00  0.00    +0.000 N 
ATOM     21  H   UNL     1       2.525   8.155  19.929  0.00  0.00    +0.000 HD
BRANCH  20  22
ATOM     22  C   UNL     1       2.732   6.871  18.224  0.00  0.00    +0.000 C 
BRANCH  22  23
ATOM     23  C   UNL     1       2.554   5.579  19.025  0.00  0.00    +0.000 C 
ATOM     24  C   UNL     1       1.715   4.514  18.318  0.00  0.00    +0.000 C 
ATOM     25  C   UNL     1       1.276   3.561  19.427  0.00  0.00    +0.000 C 
ATOM     26  C   UNL     1       1.473   4.304  20.747  0.00  0.00    +0.000 C 
ATOM     27  C   UNL     1       1.843   5.733  20.368  0.00  0.00    +0.000 C 
ENDBRANCH  22  23
ENDBRANCH  20  22
ENDBRANCH   1  19
TORSDOF 4
ENDMDL
