MODEL 1
REMARK VINA RESULT:      -8.7      0.000      0.000
REMARK  Name = 
REMARK  6 active torsions:
REMARK  status: ('A' for Active; 'I' for Inactive)
REMARK    1  A    between atoms: C_1  and  N_2
REMARK    2  A    between atoms: C_6  and  C_7
REMARK    3  A    between atoms: C_7  and  C_8
REMARK    4  A    between atoms: C_8  and  C_9
REMARK    5  A    between atoms: C_13  and  N_14
REMARK    6  A    between atoms: C_17  and  C_18
REMARK                            x       y       z     vdW  Elec       q    Type
REMARK                         _______ _______ _______ _____ _____    ______ ____
ROOT
ATOM      1  C   UNL     1       5.422   6.055  18.231  0.00  0.00    +0.000 A 
ATOM      2  C   UNL     1       4.600   6.995  17.584  0.00  0.00    +0.000 A 
ATOM      3  C   UNL     1       3.218   7.006  17.757  0.00  0.00    +0.000 A 
ATOM      4  C   UNL     1       2.611   6.072  18.590  0.00  0.00    +0.000 A 
ATOM      5  C   UNL     1       3.370   5.103  19.251  0.00  0.00    +0.000 A 
ATOM      6  C   UNL     1       4.764   5.113  19.059  0.00  0.00    +0.000 A 
ENDROOT
BRANCH   1   7
ATOM      7  C   UNL     1       7.018   6.049  18.025  0.00  0.00    +0.000 C 
ATOM      8  C   UNL     1       7.707   7.369  17.578  0.00  0.00    +0.000 C 
ATOM      9  O   UNL     1       8.530   7.416  18.763  0.00  0.00    +0.000 OA
ATOM     10  C   UNL     1       7.873   6.257  19.310  0.00  0.00    +0.000 C 
BRANCH   7  11
ATOM     11  C   UNL     1       7.456   4.792  17.251  0.00  0.00    +0.000 C 
BRANCH  11  17
ATOM     12  C   UNL     1       4.928   3.360  15.956  0.00  0.00    +0.000 C 
ATOM     13  N   UNL     1       5.961   4.097  15.282  0.00  0.00    +0.000 N 
ATOM     14  C   UNL     1       6.054   4.249  13.930  0.00  0.00    +0.000 A 
ATOM     15  N   UNL     1       7.096   4.988  13.641  0.00  0.00    +0.000 NA
ATOM     16  N   UNL     1       7.713   5.314  14.824  0.00  0.00    +0.000 NA
ATOM     17  C   UNL     1       7.042   4.761  15.816  0.00  0.00    +0.000 A 
ENDBRANCH  11  17
ENDBRANCH   7  11
ENDBRANCH   1   7
BRANCH   5  18
ATOM     18  N   UNL     1       2.775   4.162  20.120  0.00  0.00    +0.000 N 
ATOM     19  C   UNL     1       2.114   4.405  21.370  0.00  0.00    +0.000 C 
ATOM     20  C   UNL     1       1.338   3.170  21.018  0.00  0.00    +0.000 C 
ATOM     21  C   UNL     1       1.972   3.155  19.810  0.00  0.00    +0.000 C 
BRANCH  21  22
ATOM     22  C   UNL     1       1.739   2.267  18.574  0.00  0.00    +0.000 C 
ATOM     23  F   UNL     1       1.895   2.903  17.388  0.00  0.00    +0.000 F 
ATOM     24  F   UNL     1       2.558   1.183  18.579  0.00  0.00    +0.000 F 
ATOM     25  F   UNL     1       0.476   1.752  18.587  0.00  0.00    +0.000 F 
ENDBRANCH  21  22
ENDBRANCH   5  18
TORSDOF 5
ENDMDL
MODEL 2
REMARK VINA RESULT:      -8.5      1.466      1.901
REMARK  Name = 
REMARK  6 active torsions:
REMARK  status: ('A' for Active; 'I' for Inactive)
REMARK    1  A    between atoms: C_1  and  N_2
REMARK    2  A    between atoms: C_6  and  C_7
REMARK    3  A    between atoms: C_7  and  C_8
REMARK    4  A    between atoms: C_8  and  C_9
REMARK    5  A    between atoms: C_13  and  N_14
REMARK    6  A    between atoms: C_17  and  C_18
REMARK                            x       y       z     vdW  Elec       q    Type
REMARK                         _______ _______ _______ _____ _____    ______ ____
ROOT
ATOM      1  C   UNL     1       5.287   5.912  17.873  0.00  0.00    +0.000 A 
ATOM      2  C   UNL     1       4.553   7.099  17.693  0.00  0.00    +0.000 A 
ATOM      3  C   UNL     1       3.162   7.117  17.736  0.00  0.00    +0.000 A 
ATOM      4  C   UNL     1       2.455   5.941  17.963  0.00  0.00    +0.000 A 
ATOM      5  C   UNL     1       3.123   4.726  18.136  0.00  0.00    +0.000 A 
ATOM      6  C   UNL     1       4.529   4.735  18.088  0.00  0.00    +0.000 A 
ENDROOT
BRANCH   1   7
ATOM      7  C   UNL     1       6.896   5.899  17.821  0.00  0.00    +0.000 C 
ATOM      8  C   UNL     1       7.632   7.236  17.521  0.00  0.00    +0.000 C 
ATOM      9  O   UNL     1       8.336   7.204  18.781  0.00  0.00    +0.000 OA
ATOM     10  C   UNL     1       7.623   6.022  19.192  0.00  0.00    +0.000 C 
BRANCH   7  11
ATOM     11  C   UNL     1       7.399   4.685  17.019  0.00  0.00    +0.000 C 
BRANCH  11  17
ATOM     12  C   UNL     1       5.301   2.994  15.328  0.00  0.00    +0.000 C 
ATOM     13  N   UNL     1       6.238   3.969  14.843  0.00  0.00    +0.000 N 
ATOM     14  C   UNL     1       6.424   4.285  13.530  0.00  0.00    +0.000 A 
ATOM     15  N   UNL     1       7.335   5.221  13.426  0.00  0.00    +0.000 NA
ATOM     16  N   UNL     1       7.773   5.512  14.694  0.00  0.00    +0.000 NA
ATOM     17  C   UNL     1       7.128   4.745  15.552  0.00  0.00    +0.000 A 
ENDBRANCH  11  17
ENDBRANCH   7  11
ENDBRANCH   1   7
BRANCH   5  18
ATOM     18  N   UNL     1       2.424   3.527  18.393  0.00  0.00    +0.000 N 
ATOM     19  C   UNL     1       2.733   2.204  17.929  0.00  0.00    +0.000 C 
ATOM     20  C   UNL     1       2.055   1.774  19.197  0.00  0.00    +0.000 C 
ATOM     21  C   UNL     1       1.952   3.087  19.551  0.00  0.00    +0.000 C 
BRANCH  21  22
ATOM     22  C   UNL     1       1.478   3.729  20.868  0.00  0.00    +0.000 C 
ATOM     23  F   UNL     1       2.447   4.379  21.556  0.00  0.00    +0.000 F 
ATOM     24  F   UNL     1       0.458   4.602  20.656  0.00  0.00    +0.000 F 
ATOM     25  F   UNL     1       0.963   2.783  21.703  0.00  0.00    +0.000 F 
ENDBRANCH  21  22
ENDBRANCH   5  18
TORSDOF 5
ENDMDL
MODEL 3
REMARK VINA RESULT:      -8.0      2.089      3.355
REMARK  Name = 
REMARK  6 active torsions:
REMARK  status: ('A' for Active; 'I' for Inactive)
REMARK    1  A    between atoms: C_1  and  N_2
REMARK    2  A    between atoms: C_6  and  C_7
REMARK    3  A    between atoms: C_7  and  C_8
REMARK    4  A    between atoms: C_8  and  C_9
REMARK    5  A    between atoms: C_13  and  N_14
REMARK    6  A    between atoms: C_17  and  C_18
REMARK                            x       y       z     vdW  Elec       q    Type
REMARK                         _______ _______ _______ _____ _____    ______ ____
ROOT
ATOM      1  C   UNL     1       4.762   5.638  16.785  0.00  0.00    +0.000 A 
ATOM      2  C   UNL     1       4.366   6.985  16.686  0.00  0.00    +0.000 A 
ATOM      3  C   UNL     1       3.419   7.538  17.544  0.00  0.00    +0.000 A 
ATOM      4  C   UNL     1       2.836   6.757  18.536  0.00  0.00    +0.000 A 
ATOM      5  C   UNL     1       3.174   5.410  18.679  0.00  0.00    +0.000 A 
ATOM      6  C   UNL     1       4.133   4.875  17.799  0.00  0.00    +0.000 A 
ENDROOT
BRANCH   1   7
ATOM      7  C   UNL     1       5.856   5.005  15.788  0.00  0.00    +0.000 C 
ATOM      8  C   UNL     1       5.799   3.476  15.510  0.00  0.00    +0.000 C 
ATOM      9  O   UNL     1       5.602   3.678  14.094  0.00  0.00    +0.000 OA
ATOM     10  C   UNL     1       5.533   5.106  14.269  0.00  0.00    +0.000 C 
BRANCH   7  11
ATOM     11  C   UNL     1       7.258   5.557  16.108  0.00  0.00    +0.000 C 
BRANCH  11  17
ATOM     12  C   UNL     1       7.819   8.196  17.793  0.00  0.00    +0.000 C 
ATOM     13  N   UNL     1       7.846   6.835  18.255  0.00  0.00    +0.000 N 
ATOM     14  C   UNL     1       8.191   6.448  19.517  0.00  0.00    +0.000 A 
ATOM     15  N   UNL     1       8.097   5.145  19.619  0.00  0.00    +0.000 NA
ATOM     16  N   UNL     1       7.702   4.663  18.395  0.00  0.00    +0.000 NA
ATOM     17  C   UNL     1       7.568   5.678  17.564  0.00  0.00    +0.000 A 
ENDBRANCH  11  17
ENDBRANCH   7  11
ENDBRANCH   1   7
BRANCH   5  18
ATOM     18  N   UNL     1       2.611   4.608  19.696  0.00  0.00    +0.000 N 
ATOM     19  C   UNL     1       1.902   5.033  20.869  0.00  0.00    +0.000 C 
ATOM     20  C   UNL     1       1.210   3.708  20.736  0.00  0.00    +0.000 C 
ATOM     21  C   UNL     1       1.878   3.513  19.562  0.00  0.00    +0.000 C 
BRANCH  21  22
ATOM     22  C   UNL     1       1.731   2.402  18.506  0.00  0.00    +0.000 C 
ATOM     23  F   UNL     1       2.641   1.404  18.611  0.00  0.00    +0.000 F 
ATOM     24  F   UNL     1       0.492   1.845  18.541  0.00  0.00    +0.000 F 
ATOM     25  F   UNL     1       1.849   2.918  17.249  0.00  0.00    +0.000 F 
ENDBRANCH  21  22
ENDBRANCH   5  18
TORSDOF 5
ENDMDL
MODEL 4
REMARK VINA RESULT:      -7.8      2.559      3.801
REMARK  Name = 
REMARK  6 active torsions:
REMARK  status: ('A' for Active; 'I' for Inactive)
REMARK    1  A    between atoms: C_1  and  N_2
REMARK    2  A    between atoms: C_6  and  C_7
REMARK    3  A    between atoms: C_7  and  C_8
REMARK    4  A    between atoms: C_8  and  C_9
REMARK    5  A    between atoms: C_13  and  N_14
REMARK    6  A    between atoms: C_17  and  C_18
REMARK                            x       y       z     vdW  Elec       q    Type
REMARK                         _______ _______ _______ _____ _____    ______ ____
ROOT
ATOM      1  C   UNL     1       4.747   5.308  16.516  0.00  0.00    +0.000 A 
ATOM      2  C   UNL     1       4.441   6.627  16.900  0.00  0.00    +0.000 A 
ATOM      3  C   UNL     1       3.363   6.920  17.731  0.00  0.00    +0.000 A 
ATOM      4  C   UNL     1       2.551   5.896  18.208  0.00  0.00    +0.000 A 
ATOM      5  C   UNL     1       2.792   4.567  17.853  0.00  0.00    +0.000 A 
ATOM      6  C   UNL     1       3.887   4.297  17.013  0.00  0.00    +0.000 A 
ENDROOT
BRANCH   1   7
ATOM      7  C   UNL     1       5.994   4.978  15.555  0.00  0.00    +0.000 C 
ATOM      8  C   UNL     1       6.287   3.488  15.216  0.00  0.00    +0.000 C 
ATOM      9  O   UNL     1       6.111   3.710  13.800  0.00  0.00    +0.000 OA
ATOM     10  C   UNL     1       5.722   5.078  14.025  0.00  0.00    +0.000 C 
BRANCH   7  11
ATOM     11  C   UNL     1       7.226   5.805  15.967  0.00  0.00    +0.000 C 
BRANCH  11  17
ATOM     12  C   UNL     1       7.878   8.277  17.860  0.00  0.00    +0.000 C 
ATOM     13  N   UNL     1       7.844   6.885  18.213  0.00  0.00    +0.000 N 
ATOM     14  C   UNL     1       8.160   6.385  19.442  0.00  0.00    +0.000 A 
ATOM     15  N   UNL     1       8.012   5.084  19.440  0.00  0.00    +0.000 NA
ATOM     16  N   UNL     1       7.610   4.716  18.180  0.00  0.00    +0.000 NA
ATOM     17  C   UNL     1       7.526   5.798  17.430  0.00  0.00    +0.000 A 
ENDBRANCH  11  17
ENDBRANCH   7  11
ENDBRANCH   1   7
BRANCH   5  18
ATOM     18  N   UNL     1       1.995   3.511  18.348  0.00  0.00    +0.000 N 
ATOM     19  C   UNL     1       2.017   2.129  17.965  0.00  0.00    +0.000 C 
ATOM     20  C   UNL     1       1.546   1.896  19.371  0.00  0.00    +0.000 C 
ATOM     21  C   UNL     1       1.700   3.231  19.609  0.00  0.00    +0.000 C 
BRANCH  21  22
ATOM     22  C   UNL     1       1.588   4.027  20.923  0.00  0.00    +0.000 C 
ATOM     23  F   UNL     1       2.750   4.582  21.344  0.00  0.00    +0.000 F 
ATOM     24  F   UNL     1       0.662   5.016  20.826  0.00  0.00    +0.000 F 
ATOM     25  F   UNL     1       1.141   3.225  21.931  0.00  0.00    +0.000 F 
ENDBRANCH  21  22
ENDBRANCH   5  18
TORSDOF 5
ENDMDL
MODEL 5
REMARK VINA RESULT:      -7.7      1.089      1.339
REMARK  Name = 
REMARK  6 active torsions:
REMARK  status: ('A' for Active; 'I' for Inactive)
REMARK    1  A    between atoms: C_1  and  N_2
REMARK    2  A    between atoms: C_6  and  C_7
REMARK    3  A    between atoms: C_7  and  C_8
REMARK    4  A    between atoms: C_8  and  C_9
REMARK    5  A    between atoms: C_13  and  N_14
REMARK    6  A    between atoms: C_17  and  C_18
REMARK                            x       y       z     vdW  Elec       q    Type
REMARK                         _______ _______ _______ _____ _____    ______ ____
ROOT
ATOM      1  C   UNL     1       5.384   6.268  18.140  0.00  0.00    +0.000 A 
ATOM      2  C   UNL     1       4.585   7.128  17.363  0.00  0.00    +0.000 A 
ATOM      3  C   UNL     1       3.203   7.189  17.521  0.00  0.00    +0.000 A 
ATOM      4  C   UNL     1       2.572   6.388  18.467  0.00  0.00    +0.000 A 
ATOM      5  C   UNL     1       3.306   5.504  19.261  0.00  0.00    +0.000 A 
ATOM      6  C   UNL     1       4.701   5.461  19.082  0.00  0.00    +0.000 A 
ENDROOT
BRANCH   1   7
ATOM      7  C   UNL     1       6.981   6.202  17.951  0.00  0.00    +0.000 C 
ATOM      8  C   UNL     1       7.712   7.471  17.427  0.00  0.00    +0.000 C 
ATOM      9  O   UNL     1       8.526   7.570  18.616  0.00  0.00    +0.000 OA
ATOM     10  C   UNL     1       7.830   6.467  19.229  0.00  0.00    +0.000 C 
BRANCH   7  11
ATOM     11  C   UNL     1       7.388   4.886  17.263  0.00  0.00    +0.000 C 
BRANCH  11  17
ATOM     12  C   UNL     1       4.774   3.451  16.154  0.00  0.00    +0.000 C 
ATOM     13  N   UNL     1       5.816   4.088  15.396  0.00  0.00    +0.000 N 
ATOM     14  C   UNL     1       5.878   4.121  14.035  0.00  0.00    +0.000 A 
ATOM     15  N   UNL     1       6.939   4.792  13.658  0.00  0.00    +0.000 NA
ATOM     16  N   UNL     1       7.599   5.192  14.794  0.00  0.00    +0.000 NA
ATOM     17  C   UNL     1       6.934   4.752  15.846  0.00  0.00    +0.000 A 
ENDBRANCH  11  17
ENDBRANCH   7  11
ENDBRANCH   1   7
BRANCH   5  18
ATOM     18  N   UNL     1       2.686   4.702  20.244  0.00  0.00    +0.000 N 
ATOM     19  C   UNL     1       1.312   4.708  20.656  0.00  0.00    +0.000 C 
ATOM     20  C   UNL     1       1.568   3.266  20.980  0.00  0.00    +0.000 C 
ATOM     21  C   UNL     1       2.811   3.397  20.433  0.00  0.00    +0.000 C 
BRANCH  21  22
ATOM     22  C   UNL     1       3.889   2.335  20.144  0.00  0.00    +0.000 C 
ATOM     23  F   UNL     1       4.986   2.808  19.506  0.00  0.00    +0.000 F 
ATOM     24  F   UNL     1       4.300   1.722  21.285  0.00  0.00    +0.000 F 
ATOM     25  F   UNL     1       3.379   1.334  19.371  0.00  0.00    +0.000 F 
ENDBRANCH  21  22
ENDBRANCH   5  18
TORSDOF 5
ENDMDL
MODEL 6
REMARK VINA RESULT:      -7.7      1.679      2.132
REMARK  Name = 
REMARK  6 active torsions:
REMARK  status: ('A' for Active; 'I' for Inactive)
REMARK    1  A    between atoms: C_1  and  N_2
REMARK    2  A    between atoms: C_6  and  C_7
REMARK    3  A    between atoms: C_7  and  C_8
REMARK    4  A    between atoms: C_8  and  C_9
REMARK    5  A    between atoms: C_13  and  N_14
REMARK    6  A    between atoms: C_17  and  C_18
REMARK                            x       y       z     vdW  Elec       q    Type
REMARK                         _______ _______ _______ _____ _____    ______ ____
ROOT
ATOM      1  C   UNL     1       4.936   5.778  17.584  0.00  0.00    +0.000 A 
ATOM      2  C   UNL     1       4.260   7.012  17.597  0.00  0.00    +0.000 A 
ATOM      3  C   UNL     1       2.892   7.099  17.842  0.00  0.00    +0.000 A 
ATOM      4  C   UNL     1       2.152   5.946  18.086  0.00  0.00    +0.000 A 
ATOM      5  C   UNL     1       2.760   4.689  18.073  0.00  0.00    +0.000 A 
ATOM      6  C   UNL     1       4.143   4.629  17.823  0.00  0.00    +0.000 A 
ENDROOT
BRANCH   1   7
ATOM      7  C   UNL     1       6.517   5.687  17.299  0.00  0.00    +0.000 C 
ATOM      8  C   UNL     1       7.287   7.004  16.997  0.00  0.00    +0.000 C 
ATOM      9  O   UNL     1       8.158   6.830  18.136  0.00  0.00    +0.000 OA
ATOM     10  C   UNL     1       7.436   5.656  18.556  0.00  0.00    +0.000 C 
BRANCH   7  11
ATOM     11  C   UNL     1       6.825   4.519  16.343  0.00  0.00    +0.000 C 
BRANCH  11  17
ATOM     12  C   UNL     1       5.623   3.544  13.564  0.00  0.00    +0.000 C 
ATOM     13  N   UNL     1       6.714   4.454  13.779  0.00  0.00    +0.000 N 
ATOM     14  C   UNL     1       7.470   5.009  12.790  0.00  0.00    +0.000 A 
ATOM     15  N   UNL     1       8.369   5.804  13.316  0.00  0.00    +0.000 NA
ATOM     16  N   UNL     1       8.216   5.756  14.680  0.00  0.00    +0.000 NA
ATOM     17  C   UNL     1       7.230   4.926  14.964  0.00  0.00    +0.000 A 
ENDBRANCH  11  17
ENDBRANCH   7  11
ENDBRANCH   1   7
BRANCH   5  18
ATOM     18  N   UNL     1       2.031   3.510  18.343  0.00  0.00    +0.000 N 
ATOM     19  C   UNL     1       2.200   2.210  17.759  0.00  0.00    +0.000 C 
ATOM     20  C   UNL     1       1.665   1.725  19.075  0.00  0.00    +0.000 C 
ATOM     21  C   UNL     1       1.685   3.014  19.522  0.00  0.00    +0.000 C 
BRANCH  21  22
ATOM     22  C   UNL     1       1.422   3.584  20.928  0.00  0.00    +0.000 C 
ATOM     23  F   UNL     1       0.930   2.687  21.815  0.00  0.00    +0.000 F 
ATOM     24  F   UNL     1       2.548   4.127  21.462  0.00  0.00    +0.000 F 
ATOM     25  F   UNL     1       0.531   4.615  20.867  0.00  0.00    +0.000 F 
ENDBRANCH  21  22
ENDBRANCH   5  18
TORSDOF 5
ENDMDL
MODEL 7
REMARK VINA RESULT:      -7.6      1.960      3.070
REMARK  Name = 
REMARK  6 active torsions:
REMARK  status: ('A' for Active; 'I' for Inactive)
REMARK    1  A    between atoms: C_1  and  N_2
REMARK    2  A    between atoms: C_6  and  C_7
REMARK    3  A    between atoms: C_7  and  C_8
REMARK    4  A    between atoms: C_8  and  C_9
REMARK    5  A    between atoms: C_13  and  N_14
REMARK    6  A    between atoms: C_17  and  C_18
REMARK                            x       y       z     vdW  Elec       q    Type
REMARK                         _______ _______ _______ _____ _____    ______ ____
ROOT
ATOM      1  C   UNL     1       4.804   5.434  16.908  0.00  0.00    +0.000 A 
ATOM      2  C   UNL     1       4.432   6.772  16.682  0.00  0.00    +0.000 A 
ATOM      3  C   UNL     1       3.442   7.397  17.435  0.00  0.00    +0.000 A 
ATOM      4  C   UNL     1       2.789   6.700  18.446  0.00  0.00    +0.000 A 
ATOM      5  C   UNL     1       3.101   5.365  18.712  0.00  0.00    +0.000 A 
ATOM      6  C   UNL     1       4.105   4.756  17.937  0.00  0.00    +0.000 A 
ENDROOT
BRANCH   1   7
ATOM      7  C   UNL     1       5.949   4.717  16.033  0.00  0.00    +0.000 C 
ATOM      8  C   UNL     1       5.613   3.357  15.356  0.00  0.00    +0.000 C 
ATOM      9  O   UNL     1       5.864   3.881  14.034  0.00  0.00    +0.000 OA
ATOM     10  C   UNL     1       6.086   5.204  14.561  0.00  0.00    +0.000 C 
BRANCH   7  11
ATOM     11  C   UNL     1       7.299   4.760  16.773  0.00  0.00    +0.000 C 
BRANCH  11  17
ATOM     12  C   UNL     1       7.916   5.591  19.781  0.00  0.00    +0.000 C 
ATOM     13  N   UNL     1       7.904   6.438  18.620  0.00  0.00    +0.000 N 
ATOM     14  C   UNL     1       8.099   7.787  18.639  0.00  0.00    +0.000 A 
ATOM     15  N   UNL     1       8.044   8.258  17.417  0.00  0.00    +0.000 NA
ATOM     16  N   UNL     1       7.786   7.201  16.579  0.00  0.00    +0.000 NA
ATOM     17  C   UNL     1       7.682   6.103  17.304  0.00  0.00    +0.000 A 
ENDBRANCH  11  17
ENDBRANCH   7  11
ENDBRANCH   1   7
BRANCH   5  18
ATOM     18  N   UNL     1       2.467   4.649  19.751  0.00  0.00    +0.000 N 
ATOM     19  C   UNL     1       1.733   5.172  20.868  0.00  0.00    +0.000 C 
ATOM     20  C   UNL     1       0.992   3.870  20.786  0.00  0.00    +0.000 C 
ATOM     21  C   UNL     1       1.693   3.578  19.653  0.00  0.00    +0.000 C 
BRANCH  21  22
ATOM     22  C   UNL     1       1.539   2.413  18.658  0.00  0.00    +0.000 C 
ATOM     23  F   UNL     1       1.956   2.689  17.399  0.00  0.00    +0.000 F 
ATOM     24  F   UNL     1       2.201   1.305  19.085  0.00  0.00    +0.000 F 
ATOM     25  F   UNL     1       0.233   2.029  18.570  0.00  0.00    +0.000 F 
ENDBRANCH  21  22
ENDBRANCH   5  18
TORSDOF 5
ENDMDL
MODEL 8
REMARK VINA RESULT:      -7.6      2.478      3.695
REMARK  Name = 
REMARK  6 active torsions:
REMARK  status: ('A' for Active; 'I' for Inactive)
REMARK    1  A    between atoms: C_1  and  N_2
REMARK    2  A    between atoms: C_6  and  C_7
REMARK    3  A    between atoms: C_7  and  C_8
REMARK    4  A    between atoms: C_8  and  C_9
REMARK    5  A    between atoms: C_13  and  N_14
REMARK    6  A    between atoms: C_17  and  C_18
REMARK                            x       y       z     vdW  Elec       q    Type
REMARK                         _______ _______ _______ _____ _____    ______ ____
ROOT
ATOM      1  C   UNL     1       4.676   5.472  16.639  0.00  0.00    +0.000 A 
ATOM      2  C   UNL     1       4.375   6.828  16.867  0.00  0.00    +0.000 A 
ATOM      3  C   UNL     1       3.357   7.220  17.732  0.00  0.00    +0.000 A 
ATOM      4  C   UNL     1       2.604   6.262  18.404  0.00  0.00    +0.000 A 
ATOM      5  C   UNL     1       2.844   4.899  18.212  0.00  0.00    +0.000 A 
ATOM      6  C   UNL     1       3.877   4.529  17.332  0.00  0.00    +0.000 A 
ENDROOT
BRANCH   1   7
ATOM      7  C   UNL     1       5.854   5.027  15.637  0.00  0.00    +0.000 C 
ATOM      8  C   UNL     1       6.004   3.515  15.305  0.00  0.00    +0.000 C 
ATOM      9  O   UNL     1       5.794   3.739  13.894  0.00  0.00    +0.000 OA
ATOM     10  C   UNL     1       5.533   5.138  14.117  0.00  0.00    +0.000 C 
BRANCH   7  11
ATOM     11  C   UNL     1       7.167   5.748  15.993  0.00  0.00    +0.000 C 
BRANCH  11  17
ATOM     12  C   UNL     1       7.888   8.259  17.809  0.00  0.00    +0.000 C 
ATOM     13  N   UNL     1       7.840   6.876  18.200  0.00  0.00    +0.000 N 
ATOM     14  C   UNL     1       8.170   6.405  19.436  0.00  0.00    +0.000 A 
ATOM     15  N   UNL     1       8.003   5.105  19.471  0.00  0.00    +0.000 NA
ATOM     16  N   UNL     1       7.574   4.711  18.227  0.00  0.00    +0.000 NA
ATOM     17  C   UNL     1       7.493   5.775  17.451  0.00  0.00    +0.000 A 
ENDBRANCH  11  17
ENDBRANCH   7  11
ENDBRANCH   1   7
BRANCH   5  18
ATOM     18  N   UNL     1       2.107   3.913  18.904  0.00  0.00    +0.000 N 
ATOM     19  C   UNL     1       0.883   3.279  18.506  0.00  0.00    +0.000 C 
ATOM     20  C   UNL     1       1.400   2.130  19.320  0.00  0.00    +0.000 C 
ATOM     21  C   UNL     1       2.562   2.821  19.500  0.00  0.00    +0.000 C 
BRANCH  21  22
ATOM     22  C   UNL     1       3.890   2.384  20.146  0.00  0.00    +0.000 C 
ATOM     23  F   UNL     1       3.800   2.070  21.460  0.00  0.00    +0.000 F 
ATOM     24  F   UNL     1       4.431   1.320  19.496  0.00  0.00    +0.000 F 
ATOM     25  F   UNL     1       4.823   3.374  20.036  0.00  0.00    +0.000 F 
ENDBRANCH  21  22
ENDBRANCH   5  18
TORSDOF 5
ENDMDL
MODEL 9
REMARK VINA RESULT:      -7.5      4.749      7.068
REMARK  Name = 
REMARK  6 active torsions:
REMARK  status: ('A' for Active; 'I' for Inactive)
REMARK    1  A    between atoms: C_1  and  N_2
REMARK    2  A    between atoms: C_6  and  C_7
REMARK    3  A    between atoms: C_7  and  C_8
REMARK    4  A    between atoms: C_8  and  C_9
REMARK    5  A    between atoms: C_13  and  N_14
REMARK    6  A    between atoms: C_17  and  C_18
REMARK                            x       y       z     vdW  Elec       q    Type
REMARK                         _______ _______ _______ _____ _____    ______ ____
ROOT
ATOM      1  C   UNL     1       1.611   7.985  20.061  0.00  0.00    +0.000 A 
ATOM      2  C   UNL     1       2.229   8.268  18.828  0.00  0.00    +0.000 A 
ATOM      3  C   UNL     1       2.894   7.287  18.097  0.00  0.00    +0.000 A 
ATOM      4  C   UNL     1       2.961   5.983  18.577  0.00  0.00    +0.000 A 
ATOM      5  C   UNL     1       2.381   5.640  19.800  0.00  0.00    +0.000 A 
ATOM      6  C   UNL     1       1.715   6.649  20.520  0.00  0.00    +0.000 A 
ENDROOT
BRANCH   1   7
ATOM      7  C   UNL     1       0.846   9.124  20.901  0.00  0.00    +0.000 C 
ATOM      8  C   UNL     1      -0.500   8.752  21.586  0.00  0.00    +0.000 C 
ATOM      9  O   UNL     1       0.010   9.064  22.900  0.00  0.00    +0.000 OA
ATOM     10  C   UNL     1       1.323   9.326  22.369  0.00  0.00    +0.000 C 
BRANCH   7  11
ATOM     11  C   UNL     1       0.833  10.452  20.121  0.00  0.00    +0.000 C 
BRANCH  11  17
ATOM     12  C   UNL     1      -1.308  10.128  17.790  0.00  0.00    +0.000 C 
ATOM     13  N   UNL     1      -1.396  10.965  18.955  0.00  0.00    +0.000 N 
ATOM     14  C   UNL     1      -2.419  11.828  19.217  0.00  0.00    +0.000 A 
ATOM     15  N   UNL     1      -2.207  12.427  20.363  0.00  0.00    +0.000 NA
ATOM     16  N   UNL     1      -1.011  11.965  20.855  0.00  0.00    +0.000 NA
ATOM     17  C   UNL     1      -0.509  11.096  19.999  0.00  0.00    +0.000 A 
ENDBRANCH  11  17
ENDBRANCH   7  11
ENDBRANCH   1   7
BRANCH   5  18
ATOM     18  N   UNL     1       2.417   4.317  20.291  0.00  0.00    +0.000 N 
ATOM     19  C   UNL     1       2.290   3.872  21.650  0.00  0.00    +0.000 C 
ATOM     20  C   UNL     1       1.730   2.629  21.023  0.00  0.00    +0.000 C 
ATOM     21  C   UNL     1       1.800   3.248  19.809  0.00  0.00    +0.000 C 
BRANCH  21  22
ATOM     22  C   UNL     1       1.280   2.798  18.431  0.00  0.00    +0.000 C 
ATOM     23  F   UNL     1       0.943   3.812  17.600  0.00  0.00    +0.000 F 
ATOM     24  F   UNL     1       2.188   2.015  17.791  0.00  0.00    +0.000 F 
ATOM     25  F   UNL     1       0.174   2.012  18.570  0.00  0.00    +0.000 F 
ENDBRANCH  21  22
ENDBRANCH   5  18
TORSDOF 5
ENDMDL
