MODEL 1
REMARK VINA RESULT:      -9.4      0.000      0.000
REMARK  Name = 
REMARK  6 active torsions:
REMARK  status: ('A' for Active; 'I' for Inactive)
REMARK    1  A    between atoms: C_1  and  O_2
REMARK    2  A    between atoms: O_2  and  C_3
REMARK    3  A    between atoms: C_6  and  C_7
REMARK    4  A    between atoms: C_9  and  C_10
REMARK    5  A    between atoms: N_12  and  C_13
REMARK    6  A    between atoms: C_17  and  C_18
REMARK                            x       y       z     vdW  Elec       q    Type
REMARK                         _______ _______ _______ _____ _____    ______ ____
ROOT
ATOM      1  C   UNL     1       1.678   7.373  20.318  0.00  0.00    +0.000 A 
ATOM      2  C   UNL     1       2.450   7.408  19.164  0.00  0.00    +0.000 A 
ATOM      3  C   UNL     1       2.847   6.194  18.588  0.00  0.00    +0.000 A 
ATOM      4  C   UNL     1       2.435   4.955  19.173  0.00  0.00    +0.000 A 
ATOM      5  C   UNL     1       2.639   3.655  18.631  0.00  0.00    +0.000 A 
ATOM      6  C   UNL     1       2.248   2.500  19.310  0.00  0.00    +0.000 A 
ATOM      7  C   UNL     1       1.660   2.612  20.559  0.00  0.00    +0.000 A 
ATOM      8  C   UNL     1       1.417   3.879  21.084  0.00  0.00    +0.000 A 
ATOM      9  C   UNL     1       1.756   5.039  20.397  0.00  0.00    +0.000 A 
ATOM     10  N   UNL     1       1.392   6.204  20.940  0.00  0.00    +0.000 NA
ENDROOT
BRANCH   1  14
ATOM     11  C   UNL     1      -0.122  10.760  22.308  0.00  0.00    +0.000 A 
ATOM     12  C   UNL     1      -0.170   9.492  22.874  0.00  0.00    +0.000 A 
ATOM     13  C   UNL     1       0.417   8.413  22.207  0.00  0.00    +0.000 A 
ATOM     14  C   UNL     1       1.058   8.556  20.957  0.00  0.00    +0.000 A 
ATOM     15  C   UNL     1       1.057   9.839  20.389  0.00  0.00    +0.000 A 
ATOM     16  C   UNL     1       0.463  10.924  21.053  0.00  0.00    +0.000 A 
BRANCH  11  18
ATOM     17  C   UNL     1      -2.041  11.848  23.132  0.00  0.00    +0.000 C 
ATOM     18  O   UNL     1      -0.637  11.889  22.885  0.00  0.00    +0.000 OA
ENDBRANCH  11  18
ENDBRANCH   1  14
BRANCH   3  19
ATOM     19  C   UNL     1       3.808   6.173  17.437  0.00  0.00    +0.000 C 
ATOM     20  O   UNL     1       4.122   7.257  16.958  0.00  0.00    +0.000 OA
ATOM     21  N   UNL     1       4.241   4.944  16.933  0.00  0.00    +0.000 N 
ATOM     22  H   UNL     1       3.772   4.098  17.223  0.00  0.00    +0.000 HD
BRANCH  21  23
ATOM     23  C   UNL     1       5.254   4.808  15.941  0.00  0.00    +0.000 A 
ATOM     24  C   UNL     1       6.549   5.309  16.132  0.00  0.00    +0.000 A 
ATOM     25  C   UNL     1       7.531   5.186  15.152  0.00  0.00    +0.000 A 
ATOM     26  C   UNL     1       7.237   4.543  13.959  0.00  0.00    +0.000 A 
ATOM     27  C   UNL     1       5.963   3.999  13.740  0.00  0.00    +0.000 A 
ATOM     28  C   UNL     1       4.976   4.121  14.743  0.00  0.00    +0.000 A 
BRANCH  27  29
ATOM     29  C   UNL     1       5.756   3.324  12.422  0.00  0.00    +0.000 C 
ATOM     30  N   UNL     1       6.757   2.563  11.895  0.00  0.00    +0.000 N 
ATOM     31  O   UNL     1       4.703   3.443  11.799  0.00  0.00    +0.000 OA
ATOM     32  H   UNL     1       7.651   2.397  12.323  0.00  0.00    +0.000 HD
ATOM     33  H   UNL     1       6.566   2.129  11.000  0.00  0.00    +0.000 HD
ENDBRANCH  27  29
ENDBRANCH  21  23
ENDBRANCH   3  19
TORSDOF 5
ENDMDL
MODEL 2
REMARK VINA RESULT:      -9.3      1.620      2.084
REMARK  Name = 
REMARK  6 active torsions:
REMARK  status: ('A' for Active; 'I' for Inactive)
REMARK    1  A    between atoms: C_1  and  O_2
REMARK    2  A    between atoms: O_2  and  C_3
REMARK    3  A    between atoms: C_6  and  C_7
REMARK    4  A    between atoms: C_9  and  C_10
REMARK    5  A    between atoms: N_12  and  C_13
REMARK    6  A    between atoms: C_17  and  C_18
REMARK                            x       y       z     vdW  Elec       q    Type
REMARK                         _______ _______ _______ _____ _____    ______ ____
ROOT
ATOM      1  C   UNL     1       2.505   7.010  19.210  0.00  0.00    +0.000 A 
ATOM      2  C   UNL     1       3.359   6.639  18.179  0.00  0.00    +0.000 A 
ATOM      3  C   UNL     1       3.804   5.312  18.123  0.00  0.00    +0.000 A 
ATOM      4  C   UNL     1       3.358   4.365  19.099  0.00  0.00    +0.000 A 
ATOM      5  C   UNL     1       3.608   2.964  19.093  0.00  0.00    +0.000 A 
ATOM      6  C   UNL     1       3.176   2.132  20.127  0.00  0.00    +0.000 A 
ATOM      7  C   UNL     1       2.498   2.679  21.203  0.00  0.00    +0.000 A 
ATOM      8  C   UNL     1       2.209   4.042  21.202  0.00  0.00    +0.000 A 
ATOM      9  C   UNL     1       2.591   4.875  20.156  0.00  0.00    +0.000 A 
ATOM     10  N   UNL     1       2.181   6.145  20.202  0.00  0.00    +0.000 NA
ENDROOT
BRANCH   1  14
ATOM     11  C   UNL     1       0.531  10.849  19.390  0.00  0.00    +0.000 A 
ATOM     12  C   UNL     1       1.193  10.441  18.239  0.00  0.00    +0.000 A 
ATOM     13  C   UNL     1       1.827   9.195  18.209  0.00  0.00    +0.000 A 
ATOM     14  C   UNL     1       1.832   8.325  19.320  0.00  0.00    +0.000 A 
ATOM     15  C   UNL     1       1.191   8.778  20.483  0.00  0.00    +0.000 A 
ATOM     16  C   UNL     1       0.559  10.030  20.518  0.00  0.00    +0.000 A 
BRANCH  11  18
ATOM     17  C   UNL     1      -1.523  11.977  19.155  0.00  0.00    +0.000 C 
ATOM     18  O   UNL     1      -0.145  12.032  19.521  0.00  0.00    +0.000 OA
ENDBRANCH  11  18
ENDBRANCH   1  14
BRANCH   3  19
ATOM     19  C   UNL     1       4.846   4.897  17.128  0.00  0.00    +0.000 C 
ATOM     20  O   UNL     1       5.729   4.147  17.531  0.00  0.00    +0.000 OA
ATOM     21  N   UNL     1       4.801   5.422  15.835  0.00  0.00    +0.000 N 
ATOM     22  H   UNL     1       4.189   6.200  15.638  0.00  0.00    +0.000 HD
BRANCH  21  23
ATOM     23  C   UNL     1       5.652   4.993  14.776  0.00  0.00    +0.000 A 
ATOM     24  C   UNL     1       6.950   5.499  14.618  0.00  0.00    +0.000 A 
ATOM     25  C   UNL     1       7.772   5.086  13.572  0.00  0.00    +0.000 A 
ATOM     26  C   UNL     1       7.312   4.143  12.665  0.00  0.00    +0.000 A 
ATOM     27  C   UNL     1       6.032   3.589  12.805  0.00  0.00    +0.000 A 
ATOM     28  C   UNL     1       5.208   4.007  13.874  0.00  0.00    +0.000 A 
BRANCH  27  29
ATOM     29  C   UNL     1       5.639   2.579  11.775  0.00  0.00    +0.000 C 
ATOM     30  N   UNL     1       6.509   1.581  11.449  0.00  0.00    +0.000 N 
ATOM     31  O   UNL     1       4.548   2.629  11.211  0.00  0.00    +0.000 OA
ATOM     32  H   UNL     1       7.419   1.446  11.852  0.00  0.00    +0.000 HD
ATOM     33  H   UNL     1       6.195   0.924  10.746  0.00  0.00    +0.000 HD
ENDBRANCH  27  29
ENDBRANCH  21  23
ENDBRANCH   3  19
TORSDOF 5
ENDMDL
MODEL 3
REMARK VINA RESULT:      -9.3      1.650      2.036
REMARK  Name = 
REMARK  6 active torsions:
REMARK  status: ('A' for Active; 'I' for Inactive)
REMARK    1  A    between atoms: C_1  and  O_2
REMARK    2  A    between atoms: O_2  and  C_3
REMARK    3  A    between atoms: C_6  and  C_7
REMARK    4  A    between atoms: C_9  and  C_10
REMARK    5  A    between atoms: N_12  and  C_13
REMARK    6  A    between atoms: C_17  and  C_18
REMARK                            x       y       z     vdW  Elec       q    Type
REMARK                         _______ _______ _______ _____ _____    ______ ____
ROOT
ATOM      1  C   UNL     1       2.477   7.050  19.140  0.00  0.00    +0.000 A 
ATOM      2  C   UNL     1       3.286   6.609  18.101  0.00  0.00    +0.000 A 
ATOM      3  C   UNL     1       3.704   5.271  18.098  0.00  0.00    +0.000 A 
ATOM      4  C   UNL     1       3.274   4.386  19.137  0.00  0.00    +0.000 A 
ATOM      5  C   UNL     1       3.497   2.981  19.195  0.00  0.00    +0.000 A 
ATOM      6  C   UNL     1       3.086   2.212  20.285  0.00  0.00    +0.000 A 
ATOM      7  C   UNL     1       2.457   2.828  21.353  0.00  0.00    +0.000 A 
ATOM      8  C   UNL     1       2.194   4.195  21.292  0.00  0.00    +0.000 A 
ATOM      9  C   UNL     1       2.555   4.965  20.192  0.00  0.00    +0.000 A 
ATOM     10  N   UNL     1       2.172   6.244  20.186  0.00  0.00    +0.000 NA
ENDROOT
BRANCH   1  14
ATOM     11  C   UNL     1       0.616  10.935  19.472  0.00  0.00    +0.000 A 
ATOM     12  C   UNL     1       0.616  10.050  20.542  0.00  0.00    +0.000 A 
ATOM     13  C   UNL     1       1.221   8.798  20.407  0.00  0.00    +0.000 A 
ATOM     14  C   UNL     1       1.835   8.383  19.205  0.00  0.00    +0.000 A 
ATOM     15  C   UNL     1       1.786   9.279  18.127  0.00  0.00    +0.000 A 
ATOM     16  C   UNL     1       1.174  10.535  18.258  0.00  0.00    +0.000 A 
BRANCH  11  18
ATOM     17  C   UNL     1       0.861  13.194  18.851  0.00  0.00    +0.000 C 
ATOM     18  O   UNL     1       0.080  12.194  19.502  0.00  0.00    +0.000 OA
ENDBRANCH  11  18
ENDBRANCH   1  14
BRANCH   3  19
ATOM     19  C   UNL     1       4.702   4.784  17.091  0.00  0.00    +0.000 C 
ATOM     20  O   UNL     1       5.414   3.844  17.427  0.00  0.00    +0.000 OA
ATOM     21  N   UNL     1       4.816   5.449  15.868  0.00  0.00    +0.000 N 
ATOM     22  H   UNL     1       4.364   6.344  15.748  0.00  0.00    +0.000 HD
BRANCH  21  23
ATOM     23  C   UNL     1       5.627   4.990  14.790  0.00  0.00    +0.000 A 
ATOM     24  C   UNL     1       6.946   5.433  14.616  0.00  0.00    +0.000 A 
ATOM     25  C   UNL     1       7.729   4.992  13.551  0.00  0.00    +0.000 A 
ATOM     26  C   UNL     1       7.207   4.083  12.642  0.00  0.00    +0.000 A 
ATOM     27  C   UNL     1       5.903   3.592  12.799  0.00  0.00    +0.000 A 
ATOM     28  C   UNL     1       5.120   4.038  13.886  0.00  0.00    +0.000 A 
BRANCH  27  29
ATOM     29  C   UNL     1       5.443   2.614  11.765  0.00  0.00    +0.000 C 
ATOM     30  N   UNL     1       6.229   1.542  11.460  0.00  0.00    +0.000 N 
ATOM     31  O   UNL     1       4.372   2.756  11.179  0.00  0.00    +0.000 OA
ATOM     32  H   UNL     1       7.116   1.331  11.882  0.00  0.00    +0.000 HD
ATOM     33  H   UNL     1       5.873   0.911  10.753  0.00  0.00    +0.000 HD
ENDBRANCH  27  29
ENDBRANCH  21  23
ENDBRANCH   3  19
TORSDOF 5
ENDMDL
MODEL 4
REMARK VINA RESULT:      -9.1      1.014      1.056
REMARK  Name = 
REMARK  6 active torsions:
REMARK  status: ('A' for Active; 'I' for Inactive)
REMARK    1  A    between atoms: C_1  and  O_2
REMARK    2  A    between atoms: O_2  and  C_3
REMARK    3  A    between atoms: C_6  and  C_7
REMARK    4  A    between atoms: C_9  and  C_10
REMARK    5  A    between atoms: N_12  and  C_13
REMARK    6  A    between atoms: C_17  and  C_18
REMARK                            x       y       z     vdW  Elec       q    Type
REMARK                         _______ _______ _______ _____ _____    ______ ____
ROOT
ATOM      1  C   UNL     1       2.110   7.048  20.000  0.00  0.00    +0.000 A 
ATOM      2  C   UNL     1       3.072   6.849  19.020  0.00  0.00    +0.000 A 
ATOM      3  C   UNL     1       3.453   5.535  18.713  0.00  0.00    +0.000 A 
ATOM      4  C   UNL     1       2.834   4.435  19.386  0.00  0.00    +0.000 A 
ATOM      5  C   UNL     1       3.011   3.055  19.088  0.00  0.00    +0.000 A 
ATOM      6  C   UNL     1       2.404   2.051  19.845  0.00  0.00    +0.000 A 
ATOM      7  C   UNL     1       1.618   2.399  20.930  0.00  0.00    +0.000 A 
ATOM      8  C   UNL     1       1.402   3.746  21.209  0.00  0.00    +0.000 A 
ATOM      9  C   UNL     1       1.961   4.757  20.434  0.00  0.00    +0.000 A 
ATOM     10  N   UNL     1       1.614   6.014  20.722  0.00  0.00    +0.000 NA
ENDROOT
BRANCH   1  14
ATOM     11  C   UNL     1       0.358  10.842  21.099  0.00  0.00    +0.000 A 
ATOM     12  C   UNL     1       0.535   9.839  22.042  0.00  0.00    +0.000 A 
ATOM     13  C   UNL     1       1.100   8.619  21.659  0.00  0.00    +0.000 A 
ATOM     14  C   UNL     1       1.496   8.355  20.330  0.00  0.00    +0.000 A 
ATOM     15  C   UNL     1       1.270   9.371  19.389  0.00  0.00    +0.000 A 
ATOM     16  C   UNL     1       0.697  10.595  19.769  0.00  0.00    +0.000 A 
BRANCH  11  18
ATOM     17  C   UNL     1      -1.501  12.279  20.931  0.00  0.00    +0.000 C 
ATOM     18  O   UNL     1      -0.157  12.081  21.368  0.00  0.00    +0.000 OA
ENDBRANCH  11  18
ENDBRANCH   1  14
BRANCH   3  19
ATOM     19  C   UNL     1       4.595   5.269  17.779  0.00  0.00    +0.000 C 
ATOM     20  O   UNL     1       5.667   4.960  18.289  0.00  0.00    +0.000 OA
ATOM     21  N   UNL     1       4.408   5.445  16.406  0.00  0.00    +0.000 N 
ATOM     22  H   UNL     1       3.578   5.915  16.076  0.00  0.00    +0.000 HD
BRANCH  21  23
ATOM     23  C   UNL     1       5.376   5.089  15.423  0.00  0.00    +0.000 A 
ATOM     24  C   UNL     1       6.704   5.533  15.497  0.00  0.00    +0.000 A 
ATOM     25  C   UNL     1       7.642   5.194  14.525  0.00  0.00    +0.000 A 
ATOM     26  C   UNL     1       7.270   4.387  13.460  0.00  0.00    +0.000 A 
ATOM     27  C   UNL     1       5.960   3.896  13.365  0.00  0.00    +0.000 A 
ATOM     28  C   UNL     1       5.018   4.238  14.360  0.00  0.00    +0.000 A 
BRANCH  27  29
ATOM     29  C   UNL     1       5.668   3.032  12.180  0.00  0.00    +0.000 C 
ATOM     30  N   UNL     1       6.585   2.103  11.786  0.00  0.00    +0.000 N 
ATOM     31  O   UNL     1       4.619   3.143  11.549  0.00  0.00    +0.000 OA
ATOM     32  H   UNL     1       7.468   1.929  12.233  0.00  0.00    +0.000 HD
ATOM     33  H   UNL     1       6.340   1.546  10.977  0.00  0.00    +0.000 HD
ENDBRANCH  27  29
ENDBRANCH  21  23
ENDBRANCH   3  19
TORSDOF 5
ENDMDL
MODEL 5
REMARK VINA RESULT:      -9.1      0.742      1.131
REMARK  Name = 
REMARK  6 active torsions:
REMARK  status: ('A' for Active; 'I' for Inactive)
REMARK    1  A    between atoms: C_1  and  O_2
REMARK    2  A    between atoms: O_2  and  C_3
REMARK    3  A    between atoms: C_6  and  C_7
REMARK    4  A    between atoms: C_9  and  C_10
REMARK    5  A    between atoms: N_12  and  C_13
REMARK    6  A    between atoms: C_17  and  C_18
REMARK                            x       y       z     vdW  Elec       q    Type
REMARK                         _______ _______ _______ _____ _____    ______ ____
ROOT
ATOM      1  C   UNL     1       1.663   7.367  20.252  0.00  0.00    +0.000 A 
ATOM      2  C   UNL     1       2.448   7.404  19.107  0.00  0.00    +0.000 A 
ATOM      3  C   UNL     1       2.854   6.192  18.533  0.00  0.00    +0.000 A 
ATOM      4  C   UNL     1       2.436   4.952  19.112  0.00  0.00    +0.000 A 
ATOM      5  C   UNL     1       2.647   3.653  18.569  0.00  0.00    +0.000 A 
ATOM      6  C   UNL     1       2.251   2.496  19.243  0.00  0.00    +0.000 A 
ATOM      7  C   UNL     1       1.648   2.606  20.484  0.00  0.00    +0.000 A 
ATOM      8  C   UNL     1       1.397   3.872  21.009  0.00  0.00    +0.000 A 
ATOM      9  C   UNL     1       1.743   5.033  20.328  0.00  0.00    +0.000 A 
ATOM     10  N   UNL     1       1.371   6.196  20.868  0.00  0.00    +0.000 NA
ENDROOT
BRANCH   1  14
ATOM     11  C   UNL     1      -0.219  10.856  21.971  0.00  0.00    +0.000 A 
ATOM     12  C   UNL     1       0.140  10.828  20.630  0.00  0.00    +0.000 A 
ATOM     13  C   UNL     1       0.752   9.688  20.100  0.00  0.00    +0.000 A 
ATOM     14  C   UNL     1       1.034   8.549  20.885  0.00  0.00    +0.000 A 
ATOM     15  C   UNL     1       0.697   8.618  22.245  0.00  0.00    +0.000 A 
ATOM     16  C   UNL     1       0.089   9.763  22.782  0.00  0.00    +0.000 A 
BRANCH  11  18
ATOM     17  C   UNL     1      -0.391  13.195  22.184  0.00  0.00    +0.000 C 
ATOM     18  O   UNL     1      -0.846  11.905  22.587  0.00  0.00    +0.000 OA
ENDBRANCH  11  18
ENDBRANCH   1  14
BRANCH   3  19
ATOM     19  C   UNL     1       3.828   6.174  17.394  0.00  0.00    +0.000 C 
ATOM     20  O   UNL     1       4.138   7.259  16.913  0.00  0.00    +0.000 OA
ATOM     21  N   UNL     1       4.277   4.947  16.901  0.00  0.00    +0.000 N 
ATOM     22  H   UNL     1       3.813   4.098  17.189  0.00  0.00    +0.000 HD
BRANCH  21  23
ATOM     23  C   UNL     1       5.303   4.814  15.921  0.00  0.00    +0.000 A 
ATOM     24  C   UNL     1       6.600   5.301  16.137  0.00  0.00    +0.000 A 
ATOM     25  C   UNL     1       7.595   5.182  15.169  0.00  0.00    +0.000 A 
ATOM     26  C   UNL     1       7.311   4.558  13.964  0.00  0.00    +0.000 A 
ATOM     27  C   UNL     1       6.036   4.030  13.720  0.00  0.00    +0.000 A 
ATOM     28  C   UNL     1       5.036   4.147  14.710  0.00  0.00    +0.000 A 
BRANCH  27  29
ATOM     29  C   UNL     1       5.841   3.375  12.389  0.00  0.00    +0.000 C 
ATOM     30  N   UNL     1       4.605   3.381  11.814  0.00  0.00    +0.000 N 
ATOM     31  O   UNL     1       6.771   2.827  11.802  0.00  0.00    +0.000 OA
ATOM     32  H   UNL     1       3.782   3.804  12.206  0.00  0.00    +0.000 HD
ATOM     33  H   UNL     1       4.526   2.924  10.915  0.00  0.00    +0.000 HD
ENDBRANCH  27  29
ENDBRANCH  21  23
ENDBRANCH   3  19
TORSDOF 5
ENDMDL
MODEL 6
REMARK VINA RESULT:      -9.0      3.850      6.132
REMARK  Name = 
REMARK  6 active torsions:
REMARK  status: ('A' for Active; 'I' for Inactive)
REMARK    1  A    between atoms: C_1  and  O_2
REMARK    2  A    between atoms: O_2  and  C_3
REMARK    3  A    between atoms: C_6  and  C_7
REMARK    4  A    between atoms: C_9  and  C_10
REMARK    5  A    between atoms: N_12  and  C_13
REMARK    6  A    between atoms: C_17  and  C_18
REMARK                            x       y       z     vdW  Elec       q    Type
REMARK                         _______ _______ _______ _____ _____    ______ ____
ROOT
ATOM      1  C   UNL     1       1.462  12.506  19.419  0.00  0.00    +0.000 A 
ATOM      2  C   UNL     1       1.738  11.402  18.623  0.00  0.00    +0.000 A 
ATOM      3  C   UNL     1       1.348  10.135  19.078  0.00  0.00    +0.000 A 
ATOM      4  C   UNL     1       0.659  10.002  20.325  0.00  0.00    +0.000 A 
ATOM      5  C   UNL     1       0.081   8.812  20.849  0.00  0.00    +0.000 A 
ATOM      6  C   UNL     1      -0.522   8.774  22.107  0.00  0.00    +0.000 A 
ATOM      7  C   UNL     1      -0.548   9.920  22.883  0.00  0.00    +0.000 A 
ATOM      8  C   UNL     1      -0.024  11.103  22.367  0.00  0.00    +0.000 A 
ATOM      9  C   UNL     1       0.536  11.167  21.096  0.00  0.00    +0.000 A 
ATOM     10  N   UNL     1       0.920  12.367  20.653  0.00  0.00    +0.000 NA
ENDROOT
BRANCH   1  14
ATOM     11  C   UNL     1       2.173  16.572  18.142  0.00  0.00    +0.000 A 
ATOM     12  C   UNL     1       3.133  15.587  17.952  0.00  0.00    +0.000 A 
ATOM     13  C   UNL     1       2.879  14.280  18.378  0.00  0.00    +0.000 A 
ATOM     14  C   UNL     1       1.672  13.915  19.014  0.00  0.00    +0.000 A 
ATOM     15  C   UNL     1       0.736  14.936  19.229  0.00  0.00    +0.000 A 
ATOM     16  C   UNL     1       0.990  16.251  18.807  0.00  0.00    +0.000 A 
BRANCH  11  18
ATOM     17  C   UNL     1       1.130  18.441  17.160  0.00  0.00    +0.000 C 
ATOM     18  O   UNL     1       2.303  17.873  17.739  0.00  0.00    +0.000 OA
ENDBRANCH  11  18
ENDBRANCH   1  14
BRANCH   3  19
ATOM     19  C   UNL     1       1.758   8.897  18.337  0.00  0.00    +0.000 C 
ATOM     20  O   UNL     1       1.568   8.889  17.125  0.00  0.00    +0.000 OA
ATOM     21  N   UNL     1       2.267   7.812  19.052  0.00  0.00    +0.000 N 
ATOM     22  H   UNL     1       2.185   7.800  20.058  0.00  0.00    +0.000 HD
BRANCH  21  23
ATOM     23  C   UNL     1       2.814   6.647  18.441  0.00  0.00    +0.000 A 
ATOM     24  C   UNL     1       4.002   6.691  17.697  0.00  0.00    +0.000 A 
ATOM     25  C   UNL     1       4.525   5.551  17.090  0.00  0.00    +0.000 A 
ATOM     26  C   UNL     1       3.871   4.336  17.227  0.00  0.00    +0.000 A 
ATOM     27  C   UNL     1       2.697   4.243  17.988  0.00  0.00    +0.000 A 
ATOM     28  C   UNL     1       2.179   5.401  18.608  0.00  0.00    +0.000 A 
BRANCH  27  29
ATOM     29  C   UNL     1       2.077   2.884  18.073  0.00  0.00    +0.000 C 
ATOM     30  N   UNL     1       2.865   1.779  17.937  0.00  0.00    +0.000 N 
ATOM     31  O   UNL     1       0.871   2.741  18.259  0.00  0.00    +0.000 OA
ATOM     32  H   UNL     1       3.858   1.785  17.788  0.00  0.00    +0.000 HD
ATOM     33  H   UNL     1       2.396   0.884  18.002  0.00  0.00    +0.000 HD
ENDBRANCH  27  29
ENDBRANCH  21  23
ENDBRANCH   3  19
TORSDOF 5
ENDMDL
MODEL 7
REMARK VINA RESULT:      -8.9      3.714      5.959
REMARK  Name = 
REMARK  6 active torsions:
REMARK  status: ('A' for Active; 'I' for Inactive)
REMARK    1  A    between atoms: C_1  and  O_2
REMARK    2  A    between atoms: O_2  and  C_3
REMARK    3  A    between atoms: C_6  and  C_7
REMARK    4  A    between atoms: C_9  and  C_10
REMARK    5  A    between atoms: N_12  and  C_13
REMARK    6  A    between atoms: C_17  and  C_18
REMARK                            x       y       z     vdW  Elec       q    Type
REMARK                         _______ _______ _______ _____ _____    ______ ____
ROOT
ATOM      1  C   UNL     1       1.447  12.451  19.374  0.00  0.00    +0.000 A 
ATOM      2  C   UNL     1       1.713  11.333  18.594  0.00  0.00    +0.000 A 
ATOM      3  C   UNL     1       1.323  10.075  19.072  0.00  0.00    +0.000 A 
ATOM      4  C   UNL     1       0.643   9.965  20.326  0.00  0.00    +0.000 A 
ATOM      5  C   UNL     1       0.066   8.785  20.874  0.00  0.00    +0.000 A 
ATOM      6  C   UNL     1      -0.527   8.770  22.138  0.00  0.00    +0.000 A 
ATOM      7  C   UNL     1      -0.544   9.928  22.895  0.00  0.00    +0.000 A 
ATOM      8  C   UNL     1      -0.020  11.101  22.356  0.00  0.00    +0.000 A 
ATOM      9  C   UNL     1       0.530  11.142  21.080  0.00  0.00    +0.000 A 
ATOM     10  N   UNL     1       0.915  12.334  20.615  0.00  0.00    +0.000 NA
ENDROOT
BRANCH   1  14
ATOM     11  C   UNL     1       2.161  16.493  18.025  0.00  0.00    +0.000 A 
ATOM     12  C   UNL     1       3.116  15.501  17.842  0.00  0.00    +0.000 A 
ATOM     13  C   UNL     1       2.861  14.202  18.292  0.00  0.00    +0.000 A 
ATOM     14  C   UNL     1       1.659  13.852  18.944  0.00  0.00    +0.000 A 
ATOM     15  C   UNL     1       0.729  14.881  19.153  0.00  0.00    +0.000 A 
ATOM     16  C   UNL     1       0.984  16.187  18.707  0.00  0.00    +0.000 A 
BRANCH  11  18
ATOM     17  C   UNL     1       1.133  18.333  16.975  0.00  0.00    +0.000 C 
ATOM     18  O   UNL     1       2.292  17.787  17.601  0.00  0.00    +0.000 OA
ENDBRANCH  11  18
ENDBRANCH   1  14
BRANCH   3  19
ATOM     19  C   UNL     1       1.723   8.824  18.348  0.00  0.00    +0.000 C 
ATOM     20  O   UNL     1       1.458   8.768  17.152  0.00  0.00    +0.000 OA
ATOM     21  N   UNL     1       2.308   7.779  19.066  0.00  0.00    +0.000 N 
ATOM     22  H   UNL     1       2.289   7.800  20.075  0.00  0.00    +0.000 HD
BRANCH  21  23
ATOM     23  C   UNL     1       2.851   6.609  18.460  0.00  0.00    +0.000 A 
ATOM     24  C   UNL     1       2.114   5.420  18.355  0.00  0.00    +0.000 A 
ATOM     25  C   UNL     1       2.655   4.275  17.775  0.00  0.00    +0.000 A 
ATOM     26  C   UNL     1       3.948   4.302  17.274  0.00  0.00    +0.000 A 
ATOM     27  C   UNL     1       4.708   5.480  17.331  0.00  0.00    +0.000 A 
ATOM     28  C   UNL     1       4.148   6.638  17.913  0.00  0.00    +0.000 A 
BRANCH  27  29
ATOM     29  C   UNL     1       6.087   5.398  16.759  0.00  0.00    +0.000 C 
ATOM     30  N   UNL     1       6.934   4.421  17.190  0.00  0.00    +0.000 N 
ATOM     31  O   UNL     1       6.477   6.196  15.909  0.00  0.00    +0.000 OA
ATOM     32  H   UNL     1       6.714   3.718  17.873  0.00  0.00    +0.000 HD
ATOM     33  H   UNL     1       7.856   4.410  16.772  0.00  0.00    +0.000 HD
ENDBRANCH  27  29
ENDBRANCH  21  23
ENDBRANCH   3  19
TORSDOF 5
ENDMDL
MODEL 8
REMARK VINA RESULT:      -8.9      3.849      6.149
REMARK  Name = 
REMARK  6 active torsions:
REMARK  status: ('A' for Active; 'I' for Inactive)
REMARK    1  A    between atoms: C_1  and  O_2
REMARK    2  A    between atoms: O_2  and  C_3
REMARK    3  A    between atoms: C_6  and  C_7
REMARK    4  A    between atoms: C_9  and  C_10
REMARK    5  A    between atoms: N_12  and  C_13
REMARK    6  A    between atoms: C_17  and  C_18
REMARK                            x       y       z     vdW  Elec       q    Type
REMARK                         _______ _______ _______ _____ _____    ______ ____
ROOT
ATOM      1  C   UNL     1       1.301  12.524  19.421  0.00  0.00    +0.000 A 
ATOM      2  C   UNL     1       1.573  11.414  18.633  0.00  0.00    +0.000 A 
ATOM      3  C   UNL     1       1.211  10.148  19.112  0.00  0.00    +0.000 A 
ATOM      4  C   UNL     1       0.552  10.022  20.376  0.00  0.00    +0.000 A 
ATOM      5  C   UNL     1       0.003   8.831  20.927  0.00  0.00    +0.000 A 
ATOM      6  C   UNL     1      -0.571   8.800  22.199  0.00  0.00    +0.000 A 
ATOM      7  C   UNL     1      -0.595   9.956  22.962  0.00  0.00    +0.000 A 
ATOM      8  C   UNL     1      -0.099  11.139  22.419  0.00  0.00    +0.000 A 
ATOM      9  C   UNL     1       0.431  11.194  21.135  0.00  0.00    +0.000 A 
ATOM     10  N   UNL     1       0.789  12.394  20.669  0.00  0.00    +0.000 NA
ENDROOT
BRANCH   1  14
ATOM     11  C   UNL     1       1.721  16.664  18.257  0.00  0.00    +0.000 A 
ATOM     12  C   UNL     1       0.508  16.174  18.723  0.00  0.00    +0.000 A 
ATOM     13  C   UNL     1       0.398  14.829  19.089  0.00  0.00    +0.000 A 
ATOM     14  C   UNL     1       1.483  13.931  18.994  0.00  0.00    +0.000 A 
ATOM     15  C   UNL     1       2.685  14.442  18.484  0.00  0.00    +0.000 A 
ATOM     16  C   UNL     1       2.797  15.790  18.110  0.00  0.00    +0.000 A 
BRANCH  11  18
ATOM     17  C   UNL     1       1.008  18.505  16.973  0.00  0.00    +0.000 C 
ATOM     18  O   UNL     1       1.948  17.965  17.900  0.00  0.00    +0.000 OA
ENDBRANCH  11  18
ENDBRANCH   1  14
BRANCH   3  19
ATOM     19  C   UNL     1       1.621   8.907  18.376  0.00  0.00    +0.000 C 
ATOM     20  O   UNL     1       1.293   8.828  17.197  0.00  0.00    +0.000 OA
ATOM     21  N   UNL     1       2.285   7.893  19.069  0.00  0.00    +0.000 N 
ATOM     22  H   UNL     1       2.322   7.924  20.077  0.00  0.00    +0.000 HD
BRANCH  21  23
ATOM     23  C   UNL     1       2.841   6.740  18.443  0.00  0.00    +0.000 A 
ATOM     24  C   UNL     1       4.019   6.805  17.685  0.00  0.00    +0.000 A 
ATOM     25  C   UNL     1       4.550   5.677  17.063  0.00  0.00    +0.000 A 
ATOM     26  C   UNL     1       3.914   4.451  17.201  0.00  0.00    +0.000 A 
ATOM     27  C   UNL     1       2.751   4.337  17.976  0.00  0.00    +0.000 A 
ATOM     28  C   UNL     1       2.225   5.485  18.609  0.00  0.00    +0.000 A 
BRANCH  27  29
ATOM     29  C   UNL     1       2.151   2.970  18.059  0.00  0.00    +0.000 C 
ATOM     30  N   UNL     1       0.946   2.804  18.677  0.00  0.00    +0.000 N 
ATOM     31  O   UNL     1       2.721   1.990  17.585  0.00  0.00    +0.000 OA
ATOM     32  H   UNL     1       0.397   3.537  19.090  0.00  0.00    +0.000 HD
ATOM     33  H   UNL     1       0.585   1.859  18.707  0.00  0.00    +0.000 HD
ENDBRANCH  27  29
ENDBRANCH  21  23
ENDBRANCH   3  19
TORSDOF 5
ENDMDL
MODEL 9
REMARK VINA RESULT:      -8.6      2.037      9.063
REMARK  Name = 
REMARK  6 active torsions:
REMARK  status: ('A' for Active; 'I' for Inactive)
REMARK    1  A    between atoms: C_1  and  O_2
REMARK    2  A    between atoms: O_2  and  C_3
REMARK    3  A    between atoms: C_6  and  C_7
REMARK    4  A    between atoms: C_9  and  C_10
REMARK    5  A    between atoms: N_12  and  C_13
REMARK    6  A    between atoms: C_17  and  C_18
REMARK                            x       y       z     vdW  Elec       q    Type
REMARK                         _______ _______ _______ _____ _____    ______ ____
ROOT
ATOM      1  C   UNL     1       4.046   5.249  17.458  0.00  0.00    +0.000 A 
ATOM      2  C   UNL     1       3.586   6.368  18.140  0.00  0.00    +0.000 A 
ATOM      3  C   UNL     1       2.622   6.192  19.141  0.00  0.00    +0.000 A 
ATOM      4  C   UNL     1       2.151   4.879  19.459  0.00  0.00    +0.000 A 
ATOM      5  C   UNL     1       1.287   4.527  20.533  0.00  0.00    +0.000 A 
ATOM      6  C   UNL     1       0.837   3.220  20.725  0.00  0.00    +0.000 A 
ATOM      7  C   UNL     1       1.226   2.231  19.837  0.00  0.00    +0.000 A 
ATOM      8  C   UNL     1       2.105   2.551  18.805  0.00  0.00    +0.000 A 
ATOM      9  C   UNL     1       2.598   3.839  18.631  0.00  0.00    +0.000 A 
ATOM     10  N   UNL     1       3.512   4.023  17.674  0.00  0.00    +0.000 NA
ENDROOT
BRANCH   1  14
ATOM     11  C   UNL     1       7.218   5.206  14.524  0.00  0.00    +0.000 A 
ATOM     12  C   UNL     1       6.096   4.401  14.373  0.00  0.00    +0.000 A 
ATOM     13  C   UNL     1       5.087   4.431  15.340  0.00  0.00    +0.000 A 
ATOM     14  C   UNL     1       5.164   5.251  16.486  0.00  0.00    +0.000 A 
ATOM     15  C   UNL     1       6.325   6.024  16.634  0.00  0.00    +0.000 A 
ATOM     16  C   UNL     1       7.343   5.992  15.669  0.00  0.00    +0.000 A 
BRANCH  11  18
ATOM     17  C   UNL     1       7.852   5.402  12.264  0.00  0.00    +0.000 C 
ATOM     18  O   UNL     1       8.250   5.277  13.628  0.00  0.00    +0.000 OA
ENDBRANCH  11  18
ENDBRANCH   1  14
BRANCH   3  19
ATOM     19  C   UNL     1       1.978   7.376  19.798  0.00  0.00    +0.000 C 
ATOM     20  O   UNL     1       1.817   7.316  21.013  0.00  0.00    +0.000 OA
ATOM     21  N   UNL     1       1.542   8.440  19.007  0.00  0.00    +0.000 N 
ATOM     22  H   UNL     1       1.499   8.327  18.005  0.00  0.00    +0.000 HD
BRANCH  21  23
ATOM     23  C   UNL     1       1.047   9.668  19.535  0.00  0.00    +0.000 A 
ATOM     24  C   UNL     1       1.228  10.887  18.866  0.00  0.00    +0.000 A 
ATOM     25  C   UNL     1       0.755  12.086  19.393  0.00  0.00    +0.000 A 
ATOM     26  C   UNL     1       0.075  12.086  20.602  0.00  0.00    +0.000 A 
ATOM     27  C   UNL     1      -0.155  10.885  21.287  0.00  0.00    +0.000 A 
ATOM     28  C   UNL     1       0.321   9.673  20.741  0.00  0.00    +0.000 A 
BRANCH  27  29
ATOM     29  C   UNL     1      -0.901  11.000  22.579  0.00  0.00    +0.000 C 
ATOM     30  N   UNL     1      -0.880   9.958  23.459  0.00  0.00    +0.000 N 
ATOM     31  O   UNL     1      -1.537  12.012  22.864  0.00  0.00    +0.000 OA
ATOM     32  H   UNL     1      -0.389   9.092  23.326  0.00  0.00    +0.000 HD
ATOM     33  H   UNL     1      -1.401  10.087  24.317  0.00  0.00    +0.000 HD
ENDBRANCH  27  29
ENDBRANCH  21  23
ENDBRANCH   3  19
TORSDOF 5
ENDMDL
