MODEL 1
REMARK VINA RESULT:      -9.8      0.000      0.000
REMARK  Name = 
REMARK  6 active torsions:
REMARK  status: ('A' for Active; 'I' for Inactive)
REMARK    1  A    between atoms: C_1  and  C_2
REMARK    2  A    between atoms: C_2  and  C_3
REMARK    3  A    between atoms: N_8  and  C_9
REMARK    4  A    between atoms: C_9  and  C_10
REMARK    5  A    between atoms: C_14  and  C_15
REMARK    6  A    between atoms: N_21  and  C_22
REMARK                            x       y       z     vdW  Elec       q    Type
REMARK                         _______ _______ _______ _____ _____    ______ ____
ROOT
ATOM      1  C   UNL     1       3.360   4.274  17.816  0.00  0.00    +0.000 A 
ATOM      2  C   UNL     1       2.997   5.620  17.680  0.00  0.00    +0.000 A 
ATOM      3  C   UNL     1       2.381   6.237  18.755  0.00  0.00    +0.000 A 
ATOM      4  C   UNL     1       2.093   5.579  19.945  0.00  0.00    +0.000 A 
ATOM      5  C   UNL     1       2.419   4.235  20.102  0.00  0.00    +0.000 A 
ATOM      6  C   UNL     1       3.061   3.595  19.022  0.00  0.00    +0.000 A 
ATOM      7  C   UNL     1       1.466   6.545  20.902  0.00  0.00    +0.000 C 
ATOM      8  N   UNL     1       1.429   7.797  20.154  0.00  0.00    +0.000 N 
ATOM      9  C   UNL     1       1.967   7.637  18.873  0.00  0.00    +0.000 C 
ATOM     10  O   UNL     1       2.097   8.428  17.957  0.00  0.00    +0.000 OA
ENDROOT
BRANCH   8  11
ATOM     11  C   UNL     1       0.913   9.002  20.705  0.00  0.00    +0.000 A 
ATOM     12  C   UNL     1       0.952  10.210  19.992  0.00  0.00    +0.000 A 
ATOM     13  C   UNL     1       0.430  11.395  20.529  0.00  0.00    +0.000 A 
ATOM     14  C   UNL     1      -0.146  11.388  21.792  0.00  0.00    +0.000 A 
ATOM     15  C   UNL     1      -0.184  10.200  22.508  0.00  0.00    +0.000 A 
ATOM     16  F   UNL     1      -0.746  10.185  23.724  0.00  0.00    +0.000 F 
ATOM     17  C   UNL     1       0.343   9.020  21.986  0.00  0.00    +0.000 A 
ENDBRANCH   8  11
BRANCH   5  18
ATOM     18  C   UNL     1       2.133   3.461  21.360  0.00  0.00    +0.000 C 
ATOM     19  F   UNL     1       2.444   4.142  22.499  0.00  0.00    +0.000 F 
ATOM     20  F   UNL     1       0.816   3.134  21.476  0.00  0.00    +0.000 F 
ATOM     21  F   UNL     1       2.821   2.289  21.430  0.00  0.00    +0.000 F 
ENDBRANCH   5  18
BRANCH   1  22
ATOM     22  C   UNL     1       4.189   3.593  16.740  0.00  0.00    +0.000 C 
BRANCH  22  30
ATOM     23  C   UNL     1       7.361   7.202  17.476  0.00  0.00    +0.000 C 
ATOM     24  C   UNL     1       6.805   5.766  17.430  0.00  0.00    +0.000 C 
ATOM     25  C   UNL     1       6.772   5.214  18.869  0.00  0.00    +0.000 C 
ATOM     26  C   UNL     1       7.754   4.888  16.575  0.00  0.00    +0.000 C 
ATOM     27  N   UNL     1       7.645   5.210  15.159  0.00  0.00    +0.000 N 
ATOM     28  C   UNL     1       6.536   4.855  14.420  0.00  0.00    +0.000 C 
ATOM     29  N   UNL     1       5.338   4.512  14.778  0.00  0.00    +0.000 NA
ATOM     30  N   UNL     1       5.110   4.540  16.117  0.00  0.00    +0.000 N 
ATOM     31  C   UNL     1       5.366   5.780  16.850  0.00  0.00    +0.000 C 
ATOM     32  H   UNL     1       8.526   5.234  14.658  0.00  0.00    +0.000 HD
ENDBRANCH  22  30
ENDBRANCH   1  22
TORSDOF 4
ENDMDL
MODEL 2
REMARK VINA RESULT:      -9.6      0.823      1.364
REMARK  Name = 
REMARK  6 active torsions:
REMARK  status: ('A' for Active; 'I' for Inactive)
REMARK    1  A    between atoms: C_1  and  C_2
REMARK    2  A    between atoms: C_2  and  C_3
REMARK    3  A    between atoms: N_8  and  C_9
REMARK    4  A    between atoms: C_9  and  C_10
REMARK    5  A    between atoms: C_14  and  C_15
REMARK    6  A    between atoms: N_21  and  C_22
REMARK                            x       y       z     vdW  Elec       q    Type
REMARK                         _______ _______ _______ _____ _____    ______ ____
ROOT
ATOM      1  C   UNL     1       3.382   4.217  17.835  0.00  0.00    +0.000 A 
ATOM      2  C   UNL     1       3.008   5.563  17.719  0.00  0.00    +0.000 A 
ATOM      3  C   UNL     1       2.394   6.160  18.805  0.00  0.00    +0.000 A 
ATOM      4  C   UNL     1       2.117   5.484  19.987  0.00  0.00    +0.000 A 
ATOM      5  C   UNL     1       2.452   4.140  20.125  0.00  0.00    +0.000 A 
ATOM      6  C   UNL     1       3.093   3.519  19.033  0.00  0.00    +0.000 A 
ATOM      7  C   UNL     1       1.487   6.432  20.961  0.00  0.00    +0.000 C 
ATOM      8  N   UNL     1       1.438   7.695  20.231  0.00  0.00    +0.000 N 
ATOM      9  C   UNL     1       1.971   7.556  18.945  0.00  0.00    +0.000 C 
ATOM     10  O   UNL     1       2.091   8.360  18.039  0.00  0.00    +0.000 OA
ENDROOT
BRANCH   8  11
ATOM     11  C   UNL     1       0.917   8.888  20.800  0.00  0.00    +0.000 A 
ATOM     12  C   UNL     1       0.442   8.925  22.120  0.00  0.00    +0.000 A 
ATOM     13  C   UNL     1      -0.057  10.105  22.687  0.00  0.00    +0.000 A 
ATOM     14  C   UNL     1      -0.087  11.274  21.939  0.00  0.00    +0.000 A 
ATOM     15  C   UNL     1       0.374  11.248  20.631  0.00  0.00    +0.000 A 
ATOM     16  F   UNL     1       0.357  12.375  19.906  0.00  0.00    +0.000 F 
ATOM     17  C   UNL     1       0.863  10.076  20.056  0.00  0.00    +0.000 A 
ENDBRANCH   8  11
BRANCH   5  18
ATOM     18  C   UNL     1       2.178   3.347  21.374  0.00  0.00    +0.000 C 
ATOM     19  F   UNL     1       2.918   2.207  21.466  0.00  0.00    +0.000 F 
ATOM     20  F   UNL     1       2.450   4.055  22.504  0.00  0.00    +0.000 F 
ATOM     21  F   UNL     1       0.879   2.953  21.477  0.00  0.00    +0.000 F 
ENDBRANCH   5  18
BRANCH   1  22
ATOM     22  C   UNL     1       4.210   3.557  16.745  0.00  0.00    +0.000 C 
BRANCH  22  30
ATOM     23  C   UNL     1       7.336   7.202  17.500  0.00  0.00    +0.000 C 
ATOM     24  C   UNL     1       6.798   5.759  17.445  0.00  0.00    +0.000 C 
ATOM     25  C   UNL     1       6.774   5.198  18.880  0.00  0.00    +0.000 C 
ATOM     26  C   UNL     1       7.757   4.899  16.583  0.00  0.00    +0.000 C 
ATOM     27  N   UNL     1       7.642   5.228  15.169  0.00  0.00    +0.000 N 
ATOM     28  C   UNL     1       6.536   4.864  14.429  0.00  0.00    +0.000 C 
ATOM     29  N   UNL     1       5.343   4.503  14.788  0.00  0.00    +0.000 NA
ATOM     30  N   UNL     1       5.117   4.519  16.128  0.00  0.00    +0.000 N 
ATOM     31  C   UNL     1       5.358   5.758  16.868  0.00  0.00    +0.000 C 
ATOM     32  H   UNL     1       8.521   5.267  14.667  0.00  0.00    +0.000 HD
ENDBRANCH  22  30
ENDBRANCH   1  22
TORSDOF 4
ENDMDL
MODEL 3
REMARK VINA RESULT:      -9.6      2.916      7.973
REMARK  Name = 
REMARK  6 active torsions:
REMARK  status: ('A' for Active; 'I' for Inactive)
REMARK    1  A    between atoms: C_1  and  C_2
REMARK    2  A    between atoms: C_2  and  C_3
REMARK    3  A    between atoms: N_8  and  C_9
REMARK    4  A    between atoms: C_9  and  C_10
REMARK    5  A    between atoms: C_14  and  C_15
REMARK    6  A    between atoms: N_21  and  C_22
REMARK                            x       y       z     vdW  Elec       q    Type
REMARK                         _______ _______ _______ _____ _____    ______ ____
ROOT
ATOM      1  C   UNL     1       0.588  11.345  19.320  0.00  0.00    +0.000 A 
ATOM      2  C   UNL     1       1.320  10.370  18.631  0.00  0.00    +0.000 A 
ATOM      3  C   UNL     1       1.537   9.157  19.260  0.00  0.00    +0.000 A 
ATOM      4  C   UNL     1       1.082   8.874  20.542  0.00  0.00    +0.000 A 
ATOM      5  C   UNL     1       0.373   9.830  21.264  0.00  0.00    +0.000 A 
ATOM      6  C   UNL     1       0.129  11.067  20.631  0.00  0.00    +0.000 A 
ATOM      7  C   UNL     1       1.456   7.468  20.898  0.00  0.00    +0.000 C 
ATOM      8  N   UNL     1       2.153   6.985  19.711  0.00  0.00    +0.000 N 
ATOM      9  C   UNL     1       2.215   7.974  18.724  0.00  0.00    +0.000 C 
ATOM     10  O   UNL     1       2.721   7.966  17.616  0.00  0.00    +0.000 OA
ENDROOT
BRANCH   8  11
ATOM     11  C   UNL     1       2.674   5.666  19.614  0.00  0.00    +0.000 A 
ATOM     12  C   UNL     1       4.043   5.430  19.415  0.00  0.00    +0.000 A 
ATOM     13  C   UNL     1       4.560   4.130  19.335  0.00  0.00    +0.000 A 
ATOM     14  C   UNL     1       3.710   3.039  19.457  0.00  0.00    +0.000 A 
ATOM     15  C   UNL     1       2.354   3.261  19.648  0.00  0.00    +0.000 A 
ATOM     16  F   UNL     1       1.530   2.212  19.776  0.00  0.00    +0.000 F 
ATOM     17  C   UNL     1       1.831   4.551  19.719  0.00  0.00    +0.000 A 
ENDBRANCH   8  11
BRANCH   5  18
ATOM     18  C   UNL     1      -0.145   9.593  22.656  0.00  0.00    +0.000 C 
ATOM     19  F   UNL     1      -0.855  10.643  23.157  0.00  0.00    +0.000 F 
ATOM     20  F   UNL     1      -0.980   8.521  22.719  0.00  0.00    +0.000 F 
ATOM     21  F   UNL     1       0.846   9.355  23.557  0.00  0.00    +0.000 F 
ENDBRANCH   5  18
BRANCH   1  22
ATOM     22  C   UNL     1       0.171  12.627  18.619  0.00  0.00    +0.000 C 
BRANCH  22  30
ATOM     23  C   UNL     1       1.668  16.458  21.210  0.00  0.00    +0.000 C 
ATOM     24  C   UNL     1       1.407  14.984  20.845  0.00  0.00    +0.000 C 
ATOM     25  C   UNL     1       0.426  14.398  21.880  0.00  0.00    +0.000 C 
ATOM     26  C   UNL     1       2.745  14.205  20.921  0.00  0.00    +0.000 C 
ATOM     27  N   UNL     1       3.625  14.550  19.813  0.00  0.00    +0.000 N 
ATOM     28  C   UNL     1       3.369  14.126  18.526  0.00  0.00    +0.000 C 
ATOM     29  N   UNL     1       2.287  13.681  17.968  0.00  0.00    +0.000 NA
ATOM     30  N   UNL     1       1.193  13.658  18.773  0.00  0.00    +0.000 N 
ATOM     31  C   UNL     1       0.777  14.897  19.431  0.00  0.00    +0.000 C 
ATOM     32  H   UNL     1       4.602  14.656  20.062  0.00  0.00    +0.000 HD
ENDBRANCH  22  30
ENDBRANCH   1  22
TORSDOF 4
ENDMDL
MODEL 4
REMARK VINA RESULT:      -9.6      0.859      1.937
REMARK  Name = 
REMARK  6 active torsions:
REMARK  status: ('A' for Active; 'I' for Inactive)
REMARK    1  A    between atoms: C_1  and  C_2
REMARK    2  A    between atoms: C_2  and  C_3
REMARK    3  A    between atoms: N_8  and  C_9
REMARK    4  A    between atoms: C_9  and  C_10
REMARK    5  A    between atoms: C_14  and  C_15
REMARK    6  A    between atoms: N_21  and  C_22
REMARK                            x       y       z     vdW  Elec       q    Type
REMARK                         _______ _______ _______ _____ _____    ______ ____
ROOT
ATOM      1  C   UNL     1       3.736   3.931  18.060  0.00  0.00    +0.000 A 
ATOM      2  C   UNL     1       3.406   5.274  17.836  0.00  0.00    +0.000 A 
ATOM      3  C   UNL     1       2.701   5.941  18.821  0.00  0.00    +0.000 A 
ATOM      4  C   UNL     1       2.293   5.338  20.004  0.00  0.00    +0.000 A 
ATOM      5  C   UNL     1       2.584   3.998  20.248  0.00  0.00    +0.000 A 
ATOM      6  C   UNL     1       3.315   3.306  19.260  0.00  0.00    +0.000 A 
ATOM      7  C   UNL     1       1.592   6.350  20.857  0.00  0.00    +0.000 C 
ATOM      8  N   UNL     1       1.643   7.569  20.058  0.00  0.00    +0.000 N 
ATOM      9  C   UNL     1       2.297   7.349  18.842  0.00  0.00    +0.000 C 
ATOM     10  O   UNL     1       2.523   8.100  17.910  0.00  0.00    +0.000 OA
ENDROOT
BRANCH   8  11
ATOM     11  C   UNL     1       1.095   8.801  20.508  0.00  0.00    +0.000 A 
ATOM     12  C   UNL     1       1.007   9.918  19.662  0.00  0.00    +0.000 A 
ATOM     13  C   UNL     1       0.453  11.128  20.100  0.00  0.00    +0.000 A 
ATOM     14  C   UNL     1      -0.029  11.240  21.397  0.00  0.00    +0.000 A 
ATOM     15  C   UNL     1       0.058  10.144  22.244  0.00  0.00    +0.000 A 
ATOM     16  F   UNL     1      -0.413  10.242  23.494  0.00  0.00    +0.000 F 
ATOM     17  C   UNL     1       0.618   8.940  21.819  0.00  0.00    +0.000 A 
ENDBRANCH   8  11
BRANCH   5  18
ATOM     18  C   UNL     1       2.171   3.281  21.504  0.00  0.00    +0.000 C 
ATOM     19  F   UNL     1       2.850   2.118  21.714  0.00  0.00    +0.000 F 
ATOM     20  F   UNL     1       2.377   4.034  22.619  0.00  0.00    +0.000 F 
ATOM     21  F   UNL     1       0.852   2.945  21.513  0.00  0.00    +0.000 F 
ENDBRANCH   5  18
BRANCH   1  22
ATOM     22  C   UNL     1       4.653   3.197  17.096  0.00  0.00    +0.000 C 
BRANCH  22  30
ATOM     23  C   UNL     1       7.580   4.947  13.632  0.00  0.00    +0.000 C 
ATOM     24  C   UNL     1       6.336   4.820  14.533  0.00  0.00    +0.000 C 
ATOM     25  C   UNL     1       5.126   4.484  13.639  0.00  0.00    +0.000 C 
ATOM     26  C   UNL     1       6.084   6.180  15.234  0.00  0.00    +0.000 C 
ATOM     27  N   UNL     1       7.076   6.437  16.268  0.00  0.00    +0.000 N 
ATOM     28  C   UNL     1       7.076   5.742  17.460  0.00  0.00    +0.000 C 
ATOM     29  N   UNL     1       6.519   4.622  17.801  0.00  0.00    +0.000 NA
ATOM     30  N   UNL     1       5.843   3.990  16.806  0.00  0.00    +0.000 N 
ATOM     31  C   UNL     1       6.548   3.680  15.562  0.00  0.00    +0.000 C 
ATOM     32  H   UNL     1       7.411   7.392  16.309  0.00  0.00    +0.000 HD
ENDBRANCH  22  30
ENDBRANCH   1  22
TORSDOF 4
ENDMDL
MODEL 5
REMARK VINA RESULT:      -9.5      3.371      8.373
REMARK  Name = 
REMARK  6 active torsions:
REMARK  status: ('A' for Active; 'I' for Inactive)
REMARK    1  A    between atoms: C_1  and  C_2
REMARK    2  A    between atoms: C_2  and  C_3
REMARK    3  A    between atoms: N_8  and  C_9
REMARK    4  A    between atoms: C_9  and  C_10
REMARK    5  A    between atoms: C_14  and  C_15
REMARK    6  A    between atoms: N_21  and  C_22
REMARK                            x       y       z     vdW  Elec       q    Type
REMARK                         _______ _______ _______ _____ _____    ______ ____
ROOT
ATOM      1  C   UNL     1       1.164  11.163  19.439  0.00  0.00    +0.000 A 
ATOM      2  C   UNL     1       1.738  10.040  18.828  0.00  0.00    +0.000 A 
ATOM      3  C   UNL     1       1.697   8.838  19.511  0.00  0.00    +0.000 A 
ATOM      4  C   UNL     1       1.132   8.701  20.773  0.00  0.00    +0.000 A 
ATOM      5  C   UNL     1       0.576   9.802  21.419  0.00  0.00    +0.000 A 
ATOM      6  C   UNL     1       0.596  11.033  20.730  0.00  0.00    +0.000 A 
ATOM      7  C   UNL     1       1.222   7.269  21.201  0.00  0.00    +0.000 C 
ATOM      8  N   UNL     1       1.878   6.613  20.075  0.00  0.00    +0.000 N 
ATOM      9  C   UNL     1       2.171   7.528  19.058  0.00  0.00    +0.000 C 
ATOM     10  O   UNL     1       2.723   7.378  17.983  0.00  0.00    +0.000 OA
ENDROOT
BRANCH   8  11
ATOM     11  C   UNL     1       2.152   5.219  20.055  0.00  0.00    +0.000 A 
ATOM     12  C   UNL     1       1.150   4.270  20.312  0.00  0.00    +0.000 A 
ATOM     13  C   UNL     1       1.416   2.895  20.278  0.00  0.00    +0.000 A 
ATOM     14  C   UNL     1       2.695   2.444  19.981  0.00  0.00    +0.000 A 
ATOM     15  C   UNL     1       3.695   3.373  19.731  0.00  0.00    +0.000 A 
ATOM     16  F   UNL     1       4.930   2.945  19.435  0.00  0.00    +0.000 F 
ATOM     17  C   UNL     1       3.441   4.743  19.774  0.00  0.00    +0.000 A 
ENDBRANCH   8  11
BRANCH   5  18
ATOM     18  C   UNL     1      -0.048   9.727  22.785  0.00  0.00    +0.000 C 
ATOM     19  F   UNL     1       0.840   9.413  23.771  0.00  0.00    +0.000 F 
ATOM     20  F   UNL     1      -0.610  10.908  23.161  0.00  0.00    +0.000 F 
ATOM     21  F   UNL     1      -1.035   8.795  22.868  0.00  0.00    +0.000 F 
ENDBRANCH   5  18
BRANCH   1  22
ATOM     22  C   UNL     1       1.027  12.466  18.669  0.00  0.00    +0.000 C 
BRANCH  22  30
ATOM     23  C   UNL     1      -3.668  11.713  17.660  0.00  0.00    +0.000 C 
ATOM     24  C   UNL     1      -2.312  11.569  18.378  0.00  0.00    +0.000 C 
ATOM     25  C   UNL     1      -1.819  10.121  18.191  0.00  0.00    +0.000 C 
ATOM     26  C   UNL     1      -2.513  11.842  19.890  0.00  0.00    +0.000 C 
ATOM     27  N   UNL     1      -2.747  13.256  20.149  0.00  0.00    +0.000 N 
ATOM     28  C   UNL     1      -1.736  14.188  20.043  0.00  0.00    +0.000 C 
ATOM     29  N   UNL     1      -0.584  14.142  19.449  0.00  0.00    +0.000 NA
ATOM     30  N   UNL     1      -0.332  12.990  18.774  0.00  0.00    +0.000 N 
ATOM     31  C   UNL     1      -1.283  12.548  17.755  0.00  0.00    +0.000 C 
ATOM     32  H   UNL     1      -3.461  13.450  20.841  0.00  0.00    +0.000 HD
ENDBRANCH  22  30
ENDBRANCH   1  22
TORSDOF 4
ENDMDL
MODEL 6
REMARK VINA RESULT:      -9.5      3.168      8.085
REMARK  Name = 
REMARK  6 active torsions:
REMARK  status: ('A' for Active; 'I' for Inactive)
REMARK    1  A    between atoms: C_1  and  C_2
REMARK    2  A    between atoms: C_2  and  C_3
REMARK    3  A    between atoms: N_8  and  C_9
REMARK    4  A    between atoms: C_9  and  C_10
REMARK    5  A    between atoms: C_14  and  C_15
REMARK    6  A    between atoms: N_21  and  C_22
REMARK                            x       y       z     vdW  Elec       q    Type
REMARK                         _______ _______ _______ _____ _____    ______ ____
ROOT
ATOM      1  C   UNL     1       0.567  11.420  19.325  0.00  0.00    +0.000 A 
ATOM      2  C   UNL     1       1.296  10.459  18.612  0.00  0.00    +0.000 A 
ATOM      3  C   UNL     1       1.519   9.236  19.216  0.00  0.00    +0.000 A 
ATOM      4  C   UNL     1       1.073   8.927  20.495  0.00  0.00    +0.000 A 
ATOM      5  C   UNL     1       0.367   9.869  21.240  0.00  0.00    +0.000 A 
ATOM      6  C   UNL     1       0.117  11.117  20.633  0.00  0.00    +0.000 A 
ATOM      7  C   UNL     1       1.450   7.516  20.823  0.00  0.00    +0.000 C 
ATOM      8  N   UNL     1       2.141   7.056  19.622  0.00  0.00    +0.000 N 
ATOM      9  C   UNL     1       2.195   8.064  18.654  0.00  0.00    +0.000 C 
ATOM     10  O   UNL     1       2.694   8.077  17.543  0.00  0.00    +0.000 OA
ENDROOT
BRANCH   8  11
ATOM     11  C   UNL     1       2.663   5.740  19.497  0.00  0.00    +0.000 A 
ATOM     12  C   UNL     1       1.827   4.613  19.515  0.00  0.00    +0.000 A 
ATOM     13  C   UNL     1       2.340   3.317  19.376  0.00  0.00    +0.000 A 
ATOM     14  C   UNL     1       3.705   3.127  19.212  0.00  0.00    +0.000 A 
ATOM     15  C   UNL     1       4.542   4.233  19.199  0.00  0.00    +0.000 A 
ATOM     16  F   UNL     1       5.860   4.057  19.033  0.00  0.00    +0.000 F 
ATOM     17  C   UNL     1       4.041   5.525  19.348  0.00  0.00    +0.000 A 
ENDBRANCH   8  11
BRANCH   5  18
ATOM     18  C   UNL     1      -0.142   9.604  22.631  0.00  0.00    +0.000 C 
ATOM     19  F   UNL     1      -0.989   8.539  22.706  0.00  0.00    +0.000 F 
ATOM     20  F   UNL     1       0.866   9.335  23.506  0.00  0.00    +0.000 F 
ATOM     21  F   UNL     1      -0.826  10.657  23.154  0.00  0.00    +0.000 F 
ENDBRANCH   5  18
BRANCH   1  22
ATOM     22  C   UNL     1       0.144  12.715  18.651  0.00  0.00    +0.000 C 
BRANCH  22  30
ATOM     23  C   UNL     1       1.750  16.531  21.198  0.00  0.00    +0.000 C 
ATOM     24  C   UNL     1       1.460  15.059  20.844  0.00  0.00    +0.000 C 
ATOM     25  C   UNL     1       0.492  14.491  21.900  0.00  0.00    +0.000 C 
ATOM     26  C   UNL     1       2.787  14.260  20.894  0.00  0.00    +0.000 C 
ATOM     27  N   UNL     1       3.650  14.590  19.768  0.00  0.00    +0.000 N 
ATOM     28  C   UNL     1       3.361  14.165  18.488  0.00  0.00    +0.000 C 
ATOM     29  N   UNL     1       2.261  13.735  17.953  0.00  0.00    +0.000 NA
ATOM     30  N   UNL     1       1.184  13.731  18.780  0.00  0.00    +0.000 N 
ATOM     31  C   UNL     1       0.800  14.978  19.442  0.00  0.00    +0.000 C 
ATOM     32  H   UNL     1       4.633  14.682  19.996  0.00  0.00    +0.000 HD
ENDBRANCH  22  30
ENDBRANCH   1  22
TORSDOF 4
ENDMDL
MODEL 7
REMARK VINA RESULT:      -9.4      3.055      8.846
REMARK  Name = 
REMARK  6 active torsions:
REMARK  status: ('A' for Active; 'I' for Inactive)
REMARK    1  A    between atoms: C_1  and  C_2
REMARK    2  A    between atoms: C_2  and  C_3
REMARK    3  A    between atoms: N_8  and  C_9
REMARK    4  A    between atoms: C_9  and  C_10
REMARK    5  A    between atoms: C_14  and  C_15
REMARK    6  A    between atoms: N_21  and  C_22
REMARK                            x       y       z     vdW  Elec       q    Type
REMARK                         _______ _______ _______ _____ _____    ______ ____
ROOT
ATOM      1  C   UNL     1       0.082  11.519  19.394  0.00  0.00    +0.000 A 
ATOM      2  C   UNL     1       0.855  10.724  18.538  0.00  0.00    +0.000 A 
ATOM      3  C   UNL     1       1.271   9.489  19.000  0.00  0.00    +0.000 A 
ATOM      4  C   UNL     1       0.974   9.014  20.271  0.00  0.00    +0.000 A 
ATOM      5  C   UNL     1       0.229   9.789  21.156  0.00  0.00    +0.000 A 
ATOM      6  C   UNL     1      -0.217  11.046  20.695  0.00  0.00    +0.000 A 
ATOM      7  C   UNL     1       1.541   7.637  20.428  0.00  0.00    +0.000 C 
ATOM      8  N   UNL     1       2.176   7.376  19.141  0.00  0.00    +0.000 N 
ATOM      9  C   UNL     1       2.029   8.465  18.275  0.00  0.00    +0.000 C 
ATOM     10  O   UNL     1       2.427   8.640  17.138  0.00  0.00    +0.000 OA
ENDROOT
BRANCH   8  11
ATOM     11  C   UNL     1       2.837   6.152  18.847  0.00  0.00    +0.000 A 
ATOM     12  C   UNL     1       4.127   5.881  19.327  0.00  0.00    +0.000 A 
ATOM     13  C   UNL     1       4.773   4.669  19.051  0.00  0.00    +0.000 A 
ATOM     14  C   UNL     1       4.132   3.701  18.290  0.00  0.00    +0.000 A 
ATOM     15  C   UNL     1       2.858   3.961  17.805  0.00  0.00    +0.000 A 
ATOM     16  F   UNL     1       2.231   3.027  17.077  0.00  0.00    +0.000 F 
ATOM     17  C   UNL     1       2.213   5.169  18.066  0.00  0.00    +0.000 A 
ENDBRANCH   8  11
BRANCH   5  18
ATOM     18  C   UNL     1      -0.126   9.340  22.547  0.00  0.00    +0.000 C 
ATOM     19  F   UNL     1      -0.930  10.217  23.212  0.00  0.00    +0.000 F 
ATOM     20  F   UNL     1      -0.793   8.153  22.551  0.00  0.00    +0.000 F 
ATOM     21  F   UNL     1       0.965   9.164  23.341  0.00  0.00    +0.000 F 
ENDBRANCH   5  18
BRANCH   1  22
ATOM     22  C   UNL     1      -0.546  12.805  18.885  0.00  0.00    +0.000 C 
BRANCH  22  30
ATOM     23  C   UNL     1      -2.486  15.665  22.303  0.00  0.00    +0.000 C 
ATOM     24  C   UNL     1      -1.879  14.403  21.661  0.00  0.00    +0.000 C 
ATOM     25  C   UNL     1      -2.945  13.290  21.685  0.00  0.00    +0.000 C 
ATOM     26  C   UNL     1      -0.659  13.950  22.503  0.00  0.00    +0.000 C 
ATOM     27  N   UNL     1       0.473  14.850  22.325  0.00  0.00    +0.000 N 
ATOM     28  C   UNL     1       1.200  14.875  21.154  0.00  0.00    +0.000 C 
ATOM     29  N   UNL     1       0.925  14.444  19.962  0.00  0.00    +0.000 NA
ATOM     30  N   UNL     1      -0.313  13.902  19.819  0.00  0.00    +0.000 N 
ATOM     31  C   UNL     1      -1.479  14.702  20.193  0.00  0.00    +0.000 C 
ATOM     32  H   UNL     1       0.985  15.062  23.173  0.00  0.00    +0.000 HD
ENDBRANCH  22  30
ENDBRANCH   1  22
TORSDOF 4
ENDMDL
MODEL 8
REMARK VINA RESULT:      -9.4      3.111      8.966
REMARK  Name = 
REMARK  6 active torsions:
REMARK  status: ('A' for Active; 'I' for Inactive)
REMARK    1  A    between atoms: C_1  and  C_2
REMARK    2  A    between atoms: C_2  and  C_3
REMARK    3  A    between atoms: N_8  and  C_9
REMARK    4  A    between atoms: C_9  and  C_10
REMARK    5  A    between atoms: C_14  and  C_15
REMARK    6  A    between atoms: N_21  and  C_22
REMARK                            x       y       z     vdW  Elec       q    Type
REMARK                         _______ _______ _______ _____ _____    ______ ____
ROOT
ATOM      1  C   UNL     1       0.082  11.797  19.531  0.00  0.00    +0.000 A 
ATOM      2  C   UNL     1       0.822  10.990  18.657  0.00  0.00    +0.000 A 
ATOM      3  C   UNL     1       1.210   9.739  19.102  0.00  0.00    +0.000 A 
ATOM      4  C   UNL     1       0.916   9.260  20.373  0.00  0.00    +0.000 A 
ATOM      5  C   UNL     1       0.204  10.047  21.275  0.00  0.00    +0.000 A 
ATOM      6  C   UNL     1      -0.212  11.320  20.832  0.00  0.00    +0.000 A 
ATOM      7  C   UNL     1       1.447   7.866  20.510  0.00  0.00    +0.000 C 
ATOM      8  N   UNL     1       2.058   7.601  19.211  0.00  0.00    +0.000 N 
ATOM      9  C   UNL     1       1.930   8.702  18.358  0.00  0.00    +0.000 C 
ATOM     10  O   UNL     1       2.317   8.878  17.218  0.00  0.00    +0.000 OA
ENDROOT
BRANCH   8  11
ATOM     11  C   UNL     1       2.681   6.363  18.898  0.00  0.00    +0.000 A 
ATOM     12  C   UNL     1       2.064   5.422  18.058  0.00  0.00    +0.000 A 
ATOM     13  C   UNL     1       2.684   4.208  17.737  0.00  0.00    +0.000 A 
ATOM     14  C   UNL     1       3.940   3.915  18.250  0.00  0.00    +0.000 A 
ATOM     15  C   UNL     1       4.557   4.834  19.086  0.00  0.00    +0.000 A 
ATOM     16  F   UNL     1       5.773   4.561  19.578  0.00  0.00    +0.000 F 
ATOM     17  C   UNL     1       3.942   6.040  19.420  0.00  0.00    +0.000 A 
ENDBRANCH   8  11
BRANCH   5  18
ATOM     18  C   UNL     1      -0.144   9.594  22.666  0.00  0.00    +0.000 C 
ATOM     19  F   UNL     1      -0.811  10.535  23.392  0.00  0.00    +0.000 F 
ATOM     20  F   UNL     1      -0.947   8.494  22.665  0.00  0.00    +0.000 F 
ATOM     21  F   UNL     1       0.949   9.263  23.405  0.00  0.00    +0.000 F 
ENDBRANCH   5  18
BRANCH   1  22
ATOM     22  C   UNL     1      -0.517  13.105  19.043  0.00  0.00    +0.000 C 
BRANCH  22  30
ATOM     23  C   UNL     1      -2.468  16.006  22.419  0.00  0.00    +0.000 C 
ATOM     24  C   UNL     1      -1.893  14.726  21.785  0.00  0.00    +0.000 C 
ATOM     25  C   UNL     1      -3.008  13.663  21.747  0.00  0.00    +0.000 C 
ATOM     26  C   UNL     1      -0.731  14.206  22.669  0.00  0.00    +0.000 C 
ATOM     27  N   UNL     1       0.447  15.055  22.553  0.00  0.00    +0.000 N 
ATOM     28  C   UNL     1       1.224  15.062  21.414  0.00  0.00    +0.000 C 
ATOM     29  N   UNL     1       0.981  14.660  20.205  0.00  0.00    +0.000 NA
ATOM     30  N   UNL     1      -0.273  14.178  20.003  0.00  0.00    +0.000 N 
ATOM     31  C   UNL     1      -1.417  15.025  20.339  0.00  0.00    +0.000 C 
ATOM     32  H   UNL     1       0.932  15.233  23.425  0.00  0.00    +0.000 HD
ENDBRANCH  22  30
ENDBRANCH   1  22
TORSDOF 4
ENDMDL
MODEL 9
REMARK VINA RESULT:      -9.4      2.915      8.458
REMARK  Name = 
REMARK  6 active torsions:
REMARK  status: ('A' for Active; 'I' for Inactive)
REMARK    1  A    between atoms: C_1  and  C_2
REMARK    2  A    between atoms: C_2  and  C_3
REMARK    3  A    between atoms: N_8  and  C_9
REMARK    4  A    between atoms: C_9  and  C_10
REMARK    5  A    between atoms: C_14  and  C_15
REMARK    6  A    between atoms: N_21  and  C_22
REMARK                            x       y       z     vdW  Elec       q    Type
REMARK                         _______ _______ _______ _____ _____    ______ ____
ROOT
ATOM      1  C   UNL     1       0.411  11.365  19.243  0.00  0.00    +0.000 A 
ATOM      2  C   UNL     1       1.170  10.412  18.553  0.00  0.00    +0.000 A 
ATOM      3  C   UNL     1       1.459   9.222  19.197  0.00  0.00    +0.000 A 
ATOM      4  C   UNL     1       1.048   8.943  20.495  0.00  0.00    +0.000 A 
ATOM      5  C   UNL     1       0.313   9.879  21.218  0.00  0.00    +0.000 A 
ATOM      6  C   UNL     1      -0.003  11.091  20.570  0.00  0.00    +0.000 A 
ATOM      7  C   UNL     1       1.494   7.562  20.866  0.00  0.00    +0.000 C 
ATOM      8  N   UNL     1       2.184   7.089  19.671  0.00  0.00    +0.000 N 
ATOM      9  C   UNL     1       2.177   8.061  18.665  0.00  0.00    +0.000 C 
ATOM     10  O   UNL     1       2.656   8.056  17.546  0.00  0.00    +0.000 OA
ENDROOT
BRANCH   8  11
ATOM     11  C   UNL     1       2.763   5.794  19.584  0.00  0.00    +0.000 A 
ATOM     12  C   UNL     1       4.139   5.618  19.371  0.00  0.00    +0.000 A 
ATOM     13  C   UNL     1       4.713   4.341  19.301  0.00  0.00    +0.000 A 
ATOM     14  C   UNL     1       3.915   3.215  19.447  0.00  0.00    +0.000 A 
ATOM     15  C   UNL     1       2.552   3.377  19.652  0.00  0.00    +0.000 A 
ATOM     16  F   UNL     1       1.778   2.294  19.803  0.00  0.00    +0.000 F 
ATOM     17  C   UNL     1       1.972   4.643  19.713  0.00  0.00    +0.000 A 
ENDBRANCH   8  11
BRANCH   5  18
ATOM     18  C   UNL     1      -0.160   9.644  22.626  0.00  0.00    +0.000 C 
ATOM     19  F   UNL     1       0.854   9.418  23.509  0.00  0.00    +0.000 F 
ATOM     20  F   UNL     1      -0.849  10.708  23.123  0.00  0.00    +0.000 F 
ATOM     21  F   UNL     1      -0.991   8.572  22.735  0.00  0.00    +0.000 F 
ENDBRANCH   5  18
BRANCH   1  22
ATOM     22  C   UNL     1      -0.081  12.614  18.531  0.00  0.00    +0.000 C 
BRANCH  22  30
ATOM     23  C   UNL     1      -0.805  16.501  21.357  0.00  0.00    +0.000 C 
ATOM     24  C   UNL     1      -0.561  15.029  20.975  0.00  0.00    +0.000 C 
ATOM     25  C   UNL     1      -1.779  14.203  21.432  0.00  0.00    +0.000 C 
ATOM     26  C   UNL     1       0.701  14.521  21.718  0.00  0.00    +0.000 C 
ATOM     27  N   UNL     1       1.916  15.096  21.158  0.00  0.00    +0.000 N 
ATOM     28  C   UNL     1       2.399  14.707  19.927  0.00  0.00    +0.000 C 
ATOM     29  N   UNL     1       1.831  14.095  18.935  0.00  0.00    +0.000 NA
ATOM     30  N   UNL     1       0.514  13.813  19.114  0.00  0.00    +0.000 N 
ATOM     31  C   UNL     1      -0.403  14.906  19.437  0.00  0.00    +0.000 C 
ATOM     32  H   UNL     1       2.610  15.374  21.842  0.00  0.00    +0.000 HD
ENDBRANCH  22  30
ENDBRANCH   1  22
TORSDOF 4
ENDMDL
