MODEL 1
REMARK VINA RESULT:      -9.0      0.000      0.000
REMARK  Name = 
REMARK  7 active torsions:
REMARK  status: ('A' for Active; 'I' for Inactive)
REMARK    1  A    between atoms: C_1  and  C_2
REMARK    2  A    between atoms: C_5  and  N_6
REMARK    3  A    between atoms: C_7  and  C_9
REMARK    4  A    between atoms: C_9  and  C_10
REMARK    5  A    between atoms: C_12  and  C_13
REMARK    6  A    between atoms: C_17  and  N_18
REMARK    7  A    between atoms: C_27  and  C_28
REMARK                            x       y       z     vdW  Elec       q    Type
REMARK                         _______ _______ _______ _____ _____    ______ ____
ROOT
ATOM      1  C   UNL     1       1.326   9.429  19.314  0.00  0.00    +0.000 A 
ATOM      2  N   UNL     1       1.936   8.321  18.948  0.00  0.00    +0.000 NA
ATOM      3  C   UNL     1       1.873   7.388  19.971  0.00  0.00    +0.000 A 
ATOM      4  C   UNL     1       1.156   7.788  21.082  0.00  0.00    +0.000 A 
ATOM      5  S   UNL     1       0.613   9.400  20.876  0.00  0.00    +0.000 S 
ENDROOT
BRANCH   3   6
ATOM      6  C   UNL     1       2.584   6.125  19.855  0.00  0.00    +0.000 A 
ATOM      7  C   UNL     1       2.191   5.032  20.630  0.00  0.00    +0.000 A 
ATOM      8  C   UNL     1       2.780   3.789  20.424  0.00  0.00    +0.000 A 
ATOM      9  C   UNL     1       3.751   3.627  19.430  0.00  0.00    +0.000 A 
ATOM     10  C   UNL     1       4.170   4.704  18.640  0.00  0.00    +0.000 A 
ATOM     11  C   UNL     1       3.590   5.957  18.890  0.00  0.00    +0.000 A 
BRANCH  10  12
ATOM     12  N   UNL     1       5.122   4.555  17.592  0.00  0.00    +0.000 N 
ATOM     13  C   UNL     1       4.740   4.438  16.203  0.00  0.00    +0.000 C 
ATOM     14  C   UNL     1       5.979   3.923  15.505  0.00  0.00    +0.000 C 
ATOM     15  C   UNL     1       7.115   4.476  16.340  0.00  0.00    +0.000 C 
ATOM     16  C   UNL     1       6.518   4.577  17.724  0.00  0.00    +0.000 C 
ATOM     17  O   UNL     1       7.203   4.703  18.728  0.00  0.00    +0.000 OA
ENDBRANCH  10  12
ENDBRANCH   3   6
BRANCH   1  18
ATOM     18  C   UNL     1       1.193  10.625  18.439  0.00  0.00    +0.000 C 
BRANCH  18  20
ATOM     19  N   UNL     1      -1.189  10.700  17.758  0.00  0.00    +0.000 N 
ATOM     20  C   UNL     1      -0.177  11.274  18.516  0.00  0.00    +0.000 C 
ATOM     21  O   UNL     1      -0.328  12.194  19.324  0.00  0.00    +0.000 OA
ATOM     22  H   UNL     1      -0.925   9.882  17.216  0.00  0.00    +0.000 HD
BRANCH  19  27
ATOM     23  C   UNL     1      -6.741  12.247  17.649  0.00  0.00    +0.000 C 
ATOM     24  C   UNL     1      -5.288  11.877  17.662  0.00  0.00    +0.000 A 
ATOM     25  C   UNL     1      -4.520  12.070  18.803  0.00  0.00    +0.000 A 
ATOM     26  C   UNL     1      -3.173  11.692  18.818  0.00  0.00    +0.000 A 
ATOM     27  C   UNL     1      -2.550  11.107  17.706  0.00  0.00    +0.000 A 
ATOM     28  C   UNL     1      -3.314  10.941  16.529  0.00  0.00    +0.000 A 
ATOM     29  C   UNL     1      -2.800  10.354  15.240  0.00  0.00    +0.000 C 
ATOM     30  C   UNL     1      -4.677  11.327  16.531  0.00  0.00    +0.000 A 
ENDBRANCH  19  27
ENDBRANCH  18  20
ENDBRANCH   1  18
TORSDOF 5
ENDMDL
MODEL 2
REMARK VINA RESULT:      -8.8      3.711      5.668
REMARK  Name = 
REMARK  7 active torsions:
REMARK  status: ('A' for Active; 'I' for Inactive)
REMARK    1  A    between atoms: C_1  and  C_2
REMARK    2  A    between atoms: C_5  and  N_6
REMARK    3  A    between atoms: C_7  and  C_9
REMARK    4  A    between atoms: C_9  and  C_10
REMARK    5  A    between atoms: C_12  and  C_13
REMARK    6  A    between atoms: C_17  and  N_18
REMARK    7  A    between atoms: C_27  and  C_28
REMARK                            x       y       z     vdW  Elec       q    Type
REMARK                         _______ _______ _______ _____ _____    ______ ____
ROOT
ATOM      1  C   UNL     1       3.285   3.748  20.201  0.00  0.00    +0.000 A 
ATOM      2  N   UNL     1       3.848   4.627  19.399  0.00  0.00    +0.000 NA
ATOM      3  C   UNL     1       4.753   3.992  18.564  0.00  0.00    +0.000 A 
ATOM      4  C   UNL     1       4.817   2.620  18.709  0.00  0.00    +0.000 A 
ATOM      5  S   UNL     1       3.776   2.118  19.973  0.00  0.00    +0.000 S 
ENDROOT
BRANCH   3   6
ATOM      6  C   UNL     1       5.596   4.770  17.671  0.00  0.00    +0.000 A 
ATOM      7  C   UNL     1       6.433   5.760  18.190  0.00  0.00    +0.000 A 
ATOM      8  C   UNL     1       7.337   6.410  17.357  0.00  0.00    +0.000 A 
ATOM      9  C   UNL     1       7.423   6.063  16.005  0.00  0.00    +0.000 A 
ATOM     10  C   UNL     1       6.594   5.079  15.453  0.00  0.00    +0.000 A 
ATOM     11  C   UNL     1       5.664   4.462  16.303  0.00  0.00    +0.000 A 
BRANCH  10  12
ATOM     12  N   UNL     1       6.695   4.675  14.091  0.00  0.00    +0.000 N 
ATOM     13  C   UNL     1       5.724   3.809  13.461  0.00  0.00    +0.000 C 
ATOM     14  C   UNL     1       6.395   3.338  12.190  0.00  0.00    +0.000 C 
ATOM     15  C   UNL     1       7.318   4.483  11.829  0.00  0.00    +0.000 C 
ATOM     16  C   UNL     1       7.661   5.095  13.166  0.00  0.00    +0.000 C 
ATOM     17  O   UNL     1       8.606   5.855  13.319  0.00  0.00    +0.000 OA
ENDBRANCH  10  12
ENDBRANCH   3   6
BRANCH   1  18
ATOM     18  C   UNL     1       2.247   4.096  21.209  0.00  0.00    +0.000 C 
BRANCH  18  20
ATOM     19  N   UNL     1       2.116   6.540  20.817  0.00  0.00    +0.000 N 
ATOM     20  C   UNL     1       1.441   5.327  20.839  0.00  0.00    +0.000 C 
ATOM     21  O   UNL     1       0.273   5.157  20.478  0.00  0.00    +0.000 OA
ATOM     22  H   UNL     1       3.105   6.498  21.047  0.00  0.00    +0.000 HD
BRANCH  19  27
ATOM     23  C   UNL     1      -0.191  11.625  19.383  0.00  0.00    +0.000 C 
ATOM     24  C   UNL     1       0.441  10.319  19.764  0.00  0.00    +0.000 A 
ATOM     25  C   UNL     1       0.260   9.791  21.036  0.00  0.00    +0.000 A 
ATOM     26  C   UNL     1       0.825   8.557  21.374  0.00  0.00    +0.000 A 
ATOM     27  C   UNL     1       1.580   7.808  20.460  0.00  0.00    +0.000 A 
ATOM     28  C   UNL     1       1.801   8.353  19.176  0.00  0.00    +0.000 A 
ATOM     29  C   UNL     1       2.605   7.698  18.084  0.00  0.00    +0.000 C 
ATOM     30  C   UNL     1       1.220   9.603  18.849  0.00  0.00    +0.000 A 
ENDBRANCH  19  27
ENDBRANCH  18  20
ENDBRANCH   1  18
TORSDOF 5
ENDMDL
MODEL 3
REMARK VINA RESULT:      -8.6      0.911      1.210
REMARK  Name = 
REMARK  7 active torsions:
REMARK  status: ('A' for Active; 'I' for Inactive)
REMARK    1  A    between atoms: C_1  and  C_2
REMARK    2  A    between atoms: C_5  and  N_6
REMARK    3  A    between atoms: C_7  and  C_9
REMARK    4  A    between atoms: C_9  and  C_10
REMARK    5  A    between atoms: C_12  and  C_13
REMARK    6  A    between atoms: C_17  and  N_18
REMARK    7  A    between atoms: C_27  and  C_28
REMARK                            x       y       z     vdW  Elec       q    Type
REMARK                         _______ _______ _______ _____ _____    ______ ____
ROOT
ATOM      1  C   UNL     1       1.176   9.810  19.513  0.00  0.00    +0.000 A 
ATOM      2  N   UNL     1       1.680   8.654  19.136  0.00  0.00    +0.000 NA
ATOM      3  C   UNL     1       1.665   7.764  20.197  0.00  0.00    +0.000 A 
ATOM      4  C   UNL     1       1.089   8.247  21.356  0.00  0.00    +0.000 A 
ATOM      5  S   UNL     1       0.624   9.881  21.139  0.00  0.00    +0.000 S 
ENDROOT
BRANCH   3   6
ATOM      6  C   UNL     1       2.285   6.455  20.064  0.00  0.00    +0.000 A 
ATOM      7  C   UNL     1       1.584   5.311  20.449  0.00  0.00    +0.000 A 
ATOM      8  C   UNL     1       2.120   4.052  20.198  0.00  0.00    +0.000 A 
ATOM      9  C   UNL     1       3.351   3.930  19.543  0.00  0.00    +0.000 A 
ATOM     10  C   UNL     1       4.080   5.058  19.150  0.00  0.00    +0.000 A 
ATOM     11  C   UNL     1       3.538   6.317  19.446  0.00  0.00    +0.000 A 
BRANCH  10  12
ATOM     12  N   UNL     1       5.311   4.959  18.441  0.00  0.00    +0.000 N 
ATOM     13  C   UNL     1       6.584   5.292  19.040  0.00  0.00    +0.000 C 
ATOM     14  C   UNL     1       7.537   5.418  17.872  0.00  0.00    +0.000 C 
ATOM     15  C   UNL     1       6.967   4.466  16.841  0.00  0.00    +0.000 C 
ATOM     16  C   UNL     1       5.486   4.470  17.139  0.00  0.00    +0.000 C 
ATOM     17  O   UNL     1       4.654   4.056  16.344  0.00  0.00    +0.000 OA
ENDBRANCH  10  12
ENDBRANCH   3   6
BRANCH   1  18
ATOM     18  C   UNL     1       1.026  10.981  18.608  0.00  0.00    +0.000 C 
BRANCH  18  20
ATOM     19  N   UNL     1      -1.354  10.937  17.916  0.00  0.00    +0.000 N 
ATOM     20  C   UNL     1      -0.364  11.589  18.639  0.00  0.00    +0.000 C 
ATOM     21  O   UNL     1      -0.548  12.553  19.388  0.00  0.00    +0.000 OA
ATOM     22  H   UNL     1      -1.061  10.096  17.428  0.00  0.00    +0.000 HD
BRANCH  19  27
ATOM     23  C   UNL     1      -6.954  12.286  17.683  0.00  0.00    +0.000 C 
ATOM     24  C   UNL     1      -5.489  11.968  17.730  0.00  0.00    +0.000 A 
ATOM     25  C   UNL     1      -4.766  12.137  18.904  0.00  0.00    +0.000 A 
ATOM     26  C   UNL     1      -3.408  11.808  18.950  0.00  0.00    +0.000 A 
ATOM     27  C   UNL     1      -2.727  11.296  17.835  0.00  0.00    +0.000 A 
ATOM     28  C   UNL     1      -3.444  11.155  16.627  0.00  0.00    +0.000 A 
ATOM     29  C   UNL     1      -2.866  10.646  15.331  0.00  0.00    +0.000 C 
ATOM     30  C   UNL     1      -4.820  11.491  16.598  0.00  0.00    +0.000 A 
ENDBRANCH  19  27
ENDBRANCH  18  20
ENDBRANCH   1  18
TORSDOF 5
ENDMDL
MODEL 4
REMARK VINA RESULT:      -8.6      2.318     10.487
REMARK  Name = 
REMARK  7 active torsions:
REMARK  status: ('A' for Active; 'I' for Inactive)
REMARK    1  A    between atoms: C_1  and  C_2
REMARK    2  A    between atoms: C_5  and  N_6
REMARK    3  A    between atoms: C_7  and  C_9
REMARK    4  A    between atoms: C_9  and  C_10
REMARK    5  A    between atoms: C_12  and  C_13
REMARK    6  A    between atoms: C_17  and  N_18
REMARK    7  A    between atoms: C_27  and  C_28
REMARK                            x       y       z     vdW  Elec       q    Type
REMARK                         _______ _______ _______ _____ _____    ______ ____
ROOT
ATOM      1  C   UNL     1       0.597  10.112  19.175  0.00  0.00    +0.000 A 
ATOM      2  N   UNL     1      -0.642  10.029  18.738  0.00  0.00    +0.000 NA
ATOM      3  C   UNL     1      -1.103  11.287  18.387  0.00  0.00    +0.000 A 
ATOM      4  C   UNL     1      -0.176  12.304  18.508  0.00  0.00    +0.000 A 
ATOM      5  S   UNL     1       1.286  11.685  19.151  0.00  0.00    +0.000 S 
ENDROOT
BRANCH   3   6
ATOM      6  C   UNL     1      -2.490  11.474  17.992  0.00  0.00    +0.000 A 
ATOM      7  C   UNL     1      -2.896  11.146  16.697  0.00  0.00    +0.000 A 
ATOM      8  C   UNL     1      -4.244  11.196  16.360  0.00  0.00    +0.000 A 
ATOM      9  C   UNL     1      -5.197  11.556  17.319  0.00  0.00    +0.000 A 
ATOM     10  C   UNL     1      -4.822  11.896  18.624  0.00  0.00    +0.000 A 
ATOM     11  C   UNL     1      -3.453  11.875  18.932  0.00  0.00    +0.000 A 
BRANCH  10  12
ATOM     12  N   UNL     1      -5.776  12.220  19.630  0.00  0.00    +0.000 N 
ATOM     13  C   UNL     1      -6.641  11.230  20.232  0.00  0.00    +0.000 C 
ATOM     14  C   UNL     1      -7.716  12.032  20.930  0.00  0.00    +0.000 C 
ATOM     15  C   UNL     1      -7.015  13.322  21.301  0.00  0.00    +0.000 C 
ATOM     16  C   UNL     1      -5.964  13.475  20.227  0.00  0.00    +0.000 C 
ATOM     17  O   UNL     1      -5.391  14.532  20.012  0.00  0.00    +0.000 OA
ENDBRANCH  10  12
ENDBRANCH   3   6
BRANCH   1  18
ATOM     18  C   UNL     1       1.398   8.938  19.613  0.00  0.00    +0.000 C 
BRANCH  18  20
ATOM     19  N   UNL     1       2.864   7.120  18.781  0.00  0.00    +0.000 N 
ATOM     20  C   UNL     1       2.192   8.299  18.488  0.00  0.00    +0.000 C 
ATOM     21  O   UNL     1       2.100   8.805  17.366  0.00  0.00    +0.000 OA
ATOM     22  H   UNL     1       2.761   6.778  19.732  0.00  0.00    +0.000 HD
BRANCH  19  27
ATOM     23  C   UNL     1       5.924   3.998  15.023  0.00  0.00    +0.000 C 
ATOM     24  C   UNL     1       5.147   4.795  16.028  0.00  0.00    +0.000 A 
ATOM     25  C   UNL     1       5.508   6.103  16.324  0.00  0.00    +0.000 A 
ATOM     26  C   UNL     1       4.759   6.852  17.238  0.00  0.00    +0.000 A 
ATOM     27  C   UNL     1       3.628   6.328  17.881  0.00  0.00    +0.000 A 
ATOM     28  C   UNL     1       3.275   4.987  17.615  0.00  0.00    +0.000 A 
ATOM     29  C   UNL     1       2.110   4.259  18.233  0.00  0.00    +0.000 C 
ATOM     30  C   UNL     1       4.043   4.243  16.685  0.00  0.00    +0.000 A 
ENDBRANCH  19  27
ENDBRANCH  18  20
ENDBRANCH   1  18
TORSDOF 5
ENDMDL
MODEL 5
REMARK VINA RESULT:      -8.6      1.301      1.468
REMARK  Name = 
REMARK  7 active torsions:
REMARK  status: ('A' for Active; 'I' for Inactive)
REMARK    1  A    between atoms: C_1  and  C_2
REMARK    2  A    between atoms: C_5  and  N_6
REMARK    3  A    between atoms: C_7  and  C_9
REMARK    4  A    between atoms: C_9  and  C_10
REMARK    5  A    between atoms: C_12  and  C_13
REMARK    6  A    between atoms: C_17  and  N_18
REMARK    7  A    between atoms: C_27  and  C_28
REMARK                            x       y       z     vdW  Elec       q    Type
REMARK                         _______ _______ _______ _____ _____    ______ ____
ROOT
ATOM      1  C   UNL     1       1.083  10.657  19.610  0.00  0.00    +0.000 A 
ATOM      2  N   UNL     1       1.507   9.492  19.167  0.00  0.00    +0.000 NA
ATOM      3  C   UNL     1       1.420   8.545  20.174  0.00  0.00    +0.000 A 
ATOM      4  C   UNL     1       0.869   8.999  21.357  0.00  0.00    +0.000 A 
ATOM      5  S   UNL     1       0.523  10.672  21.234  0.00  0.00    +0.000 S 
ENDROOT
BRANCH   3   6
ATOM      6  C   UNL     1       1.947   7.206  19.966  0.00  0.00    +0.000 A 
ATOM      7  C   UNL     1       1.460   6.141  20.727  0.00  0.00    +0.000 A 
ATOM      8  C   UNL     1       1.864   4.841  20.438  0.00  0.00    +0.000 A 
ATOM      9  C   UNL     1       2.741   4.597  19.376  0.00  0.00    +0.000 A 
ATOM     10  C   UNL     1       3.250   5.643  18.598  0.00  0.00    +0.000 A 
ATOM     11  C   UNL     1       2.859   6.949  18.930  0.00  0.00    +0.000 A 
BRANCH  10  12
ATOM     12  N   UNL     1       4.106   5.416  17.483  0.00  0.00    +0.000 N 
ATOM     13  C   UNL     1       4.828   6.482  16.825  0.00  0.00    +0.000 C 
ATOM     14  C   UNL     1       5.282   5.885  15.511  0.00  0.00    +0.000 C 
ATOM     15  C   UNL     1       5.442   4.412  15.825  0.00  0.00    +0.000 C 
ATOM     16  C   UNL     1       4.433   4.173  16.923  0.00  0.00    +0.000 C 
ATOM     17  O   UNL     1       4.057   3.054  17.239  0.00  0.00    +0.000 OA
ENDBRANCH  10  12
ENDBRANCH   3   6
BRANCH   1  18
ATOM     18  C   UNL     1       1.024  11.887  18.775  0.00  0.00    +0.000 C 
BRANCH  18  20
ATOM     19  N   UNL     1      -1.388  11.373  18.518  0.00  0.00    +0.000 N 
ATOM     20  C   UNL     1      -0.393  12.341  18.476  0.00  0.00    +0.000 C 
ATOM     21  O   UNL     1      -0.585  13.551  18.324  0.00  0.00    +0.000 OA
ATOM     22  H   UNL     1      -1.079  10.434  18.754  0.00  0.00    +0.000 HD
BRANCH  19  27
ATOM     23  C   UNL     1      -7.064  12.080  17.805  0.00  0.00    +0.000 C 
ATOM     24  C   UNL     1      -5.582  11.928  17.974  0.00  0.00    +0.000 A 
ATOM     25  C   UNL     1      -4.967  12.278  19.170  0.00  0.00    +0.000 A 
ATOM     26  C   UNL     1      -3.589  12.104  19.332  0.00  0.00    +0.000 A 
ATOM     27  C   UNL     1      -2.781  11.572  18.317  0.00  0.00    +0.000 A 
ATOM     28  C   UNL     1      -3.390  11.248  17.085  0.00  0.00    +0.000 A 
ATOM     29  C   UNL     1      -2.671  10.691  15.883  0.00  0.00    +0.000 C 
ATOM     30  C   UNL     1      -4.787  11.428  16.938  0.00  0.00    +0.000 A 
ENDBRANCH  19  27
ENDBRANCH  18  20
ENDBRANCH   1  18
TORSDOF 5
ENDMDL
MODEL 6
REMARK VINA RESULT:      -8.6      3.048      9.470
REMARK  Name = 
REMARK  7 active torsions:
REMARK  status: ('A' for Active; 'I' for Inactive)
REMARK    1  A    between atoms: C_1  and  C_2
REMARK    2  A    between atoms: C_5  and  N_6
REMARK    3  A    between atoms: C_7  and  C_9
REMARK    4  A    between atoms: C_9  and  C_10
REMARK    5  A    between atoms: C_12  and  C_13
REMARK    6  A    between atoms: C_17  and  N_18
REMARK    7  A    between atoms: C_27  and  C_28
REMARK                            x       y       z     vdW  Elec       q    Type
REMARK                         _______ _______ _______ _____ _____    ______ ____
ROOT
ATOM      1  C   UNL     1       3.247   4.331  19.985  0.00  0.00    +0.000 A 
ATOM      2  N   UNL     1       3.304   5.599  19.636  0.00  0.00    +0.000 NA
ATOM      3  C   UNL     1       2.140   6.246  20.020  0.00  0.00    +0.000 A 
ATOM      4  C   UNL     1       1.238   5.463  20.714  0.00  0.00    +0.000 A 
ATOM      5  S   UNL     1       1.823   3.857  20.823  0.00  0.00    +0.000 S 
ENDROOT
BRANCH   3   6
ATOM      6  C   UNL     1       1.910   7.629  19.633  0.00  0.00    +0.000 A 
ATOM      7  C   UNL     1       2.318   8.076  18.375  0.00  0.00    +0.000 A 
ATOM      8  C   UNL     1       1.979   9.357  17.952  0.00  0.00    +0.000 A 
ATOM      9  C   UNL     1       1.215  10.191  18.775  0.00  0.00    +0.000 A 
ATOM     10  C   UNL     1       0.795   9.774  20.044  0.00  0.00    +0.000 A 
ATOM     11  C   UNL     1       1.180   8.492  20.465  0.00  0.00    +0.000 A 
BRANCH  10  12
ATOM     12  N   UNL     1      -0.023  10.585  20.880  0.00  0.00    +0.000 N 
ATOM     13  C   UNL     1      -1.032  11.477  20.355  0.00  0.00    +0.000 C 
ATOM     14  C   UNL     1      -1.374  12.393  21.508  0.00  0.00    +0.000 C 
ATOM     15  C   UNL     1      -1.122  11.537  22.732  0.00  0.00    +0.000 C 
ATOM     16  C   UNL     1      -0.034  10.591  22.282  0.00  0.00    +0.000 C 
ATOM     17  O   UNL     1       0.641   9.943  23.068  0.00  0.00    +0.000 OA
ENDBRANCH  10  12
ENDBRANCH   3   6
BRANCH   1  18
ATOM     18  C   UNL     1       4.344   3.357  19.740  0.00  0.00    +0.000 C 
BRANCH  18  20
ATOM     19  N   UNL     1       4.769   3.809  17.340  0.00  0.00    +0.000 N 
ATOM     20  C   UNL     1       5.286   3.782  18.629  0.00  0.00    +0.000 C 
ATOM     21  O   UNL     1       6.409   4.178  18.952  0.00  0.00    +0.000 OA
ATOM     22  H   UNL     1       3.791   3.546  17.252  0.00  0.00    +0.000 HD
BRANCH  19  27
ATOM     23  C   UNL     1       7.635   5.369  12.588  0.00  0.00    +0.000 C 
ATOM     24  C   UNL     1       6.858   4.973  13.808  0.00  0.00    +0.000 A 
ATOM     25  C   UNL     1       6.496   3.648  14.016  0.00  0.00    +0.000 A 
ATOM     26  C   UNL     1       5.799   3.281  15.172  0.00  0.00    +0.000 A 
ATOM     27  C   UNL     1       5.447   4.213  16.158  0.00  0.00    +0.000 A 
ATOM     28  C   UNL     1       5.778   5.569  15.938  0.00  0.00    +0.000 A 
ATOM     29  C   UNL     1       5.456   6.702  16.877  0.00  0.00    +0.000 C 
ATOM     30  C   UNL     1       6.485   5.924  14.763  0.00  0.00    +0.000 A 
ENDBRANCH  19  27
ENDBRANCH  18  20
ENDBRANCH   1  18
TORSDOF 5
ENDMDL
MODEL 7
REMARK VINA RESULT:      -8.5      2.684      3.337
REMARK  Name = 
REMARK  7 active torsions:
REMARK  status: ('A' for Active; 'I' for Inactive)
REMARK    1  A    between atoms: C_1  and  C_2
REMARK    2  A    between atoms: C_5  and  N_6
REMARK    3  A    between atoms: C_7  and  C_9
REMARK    4  A    between atoms: C_9  and  C_10
REMARK    5  A    between atoms: C_12  and  C_13
REMARK    6  A    between atoms: C_17  and  N_18
REMARK    7  A    between atoms: C_27  and  C_28
REMARK                            x       y       z     vdW  Elec       q    Type
REMARK                         _______ _______ _______ _____ _____    ______ ____
ROOT
ATOM      1  C   UNL     1       1.759   8.264  20.379  0.00  0.00    +0.000 A 
ATOM      2  N   UNL     1       2.340   7.103  20.156  0.00  0.00    +0.000 NA
ATOM      3  C   UNL     1       2.534   6.927  18.796  0.00  0.00    +0.000 A 
ATOM      4  C   UNL     1       2.148   7.995  18.008  0.00  0.00    +0.000 A 
ATOM      5  S   UNL     1       1.454   9.219  18.984  0.00  0.00    +0.000 S 
ENDROOT
BRANCH   3   6
ATOM      6  C   UNL     1       3.046   5.665  18.286  0.00  0.00    +0.000 A 
ATOM      7  C   UNL     1       2.431   4.466  18.654  0.00  0.00    +0.000 A 
ATOM      8  C   UNL     1       2.832   3.273  18.063  0.00  0.00    +0.000 A 
ATOM      9  C   UNL     1       3.836   3.273  17.088  0.00  0.00    +0.000 A 
ATOM     10  C   UNL     1       4.475   4.457  16.702  0.00  0.00    +0.000 A 
ATOM     11  C   UNL     1       4.080   5.644  17.337  0.00  0.00    +0.000 A 
BRANCH  10  12
ATOM     12  N   UNL     1       5.465   4.489  15.680  0.00  0.00    +0.000 N 
ATOM     13  C   UNL     1       5.140   4.378  14.276  0.00  0.00    +0.000 C 
ATOM     14  C   UNL     1       6.458   4.075  13.598  0.00  0.00    +0.000 C 
ATOM     15  C   UNL     1       7.481   4.747  14.490  0.00  0.00    +0.000 C 
ATOM     16  C   UNL     1       6.839   4.703  15.857  0.00  0.00    +0.000 C 
ATOM     17  O   UNL     1       7.472   4.883  16.887  0.00  0.00    +0.000 OA
ENDBRANCH  10  12
ENDBRANCH   3   6
BRANCH   1  18
ATOM     18  C   UNL     1       1.428   8.773  21.737  0.00  0.00    +0.000 C 
BRANCH  18  20
ATOM     19  N   UNL     1      -0.094  10.716  21.975  0.00  0.00    +0.000 N 
ATOM     20  C   UNL     1       0.023   9.339  21.838  0.00  0.00    +0.000 C 
ATOM     21  O   UNL     1      -0.920   8.558  21.683  0.00  0.00    +0.000 OA
ATOM     22  H   UNL     1       0.781  11.233  21.990  0.00  0.00    +0.000 HD
BRANCH  19  27
ATOM     23  C   UNL     1      -5.052  13.639  22.291  0.00  0.00    +0.000 C 
ATOM     24  C   UNL     1      -3.744  12.910  22.212  0.00  0.00    +0.000 A 
ATOM     25  C   UNL     1      -3.187  12.332  23.345  0.00  0.00    +0.000 A 
ATOM     26  C   UNL     1      -1.983  11.626  23.258  0.00  0.00    +0.000 A 
ATOM     27  C   UNL     1      -1.299  11.467  22.044  0.00  0.00    +0.000 A 
ATOM     28  C   UNL     1      -1.838  12.082  20.893  0.00  0.00    +0.000 A 
ATOM     29  C   UNL     1      -1.224  12.033  19.517  0.00  0.00    +0.000 C 
ATOM     30  C   UNL     1      -3.059  12.791  20.998  0.00  0.00    +0.000 A 
ENDBRANCH  19  27
ENDBRANCH  18  20
ENDBRANCH   1  18
TORSDOF 5
ENDMDL
MODEL 8
REMARK VINA RESULT:      -8.5      3.133      9.546
REMARK  Name = 
REMARK  7 active torsions:
REMARK  status: ('A' for Active; 'I' for Inactive)
REMARK    1  A    between atoms: C_1  and  C_2
REMARK    2  A    between atoms: C_5  and  N_6
REMARK    3  A    between atoms: C_7  and  C_9
REMARK    4  A    between atoms: C_9  and  C_10
REMARK    5  A    between atoms: C_12  and  C_13
REMARK    6  A    between atoms: C_17  and  N_18
REMARK    7  A    between atoms: C_27  and  C_28
REMARK                            x       y       z     vdW  Elec       q    Type
REMARK                         _______ _______ _______ _____ _____    ______ ____
ROOT
ATOM      1  C   UNL     1       2.924   3.615  19.929  0.00  0.00    +0.000 A 
ATOM      2  N   UNL     1       2.995   4.797  19.355  0.00  0.00    +0.000 NA
ATOM      3  C   UNL     1       2.287   5.727  20.100  0.00  0.00    +0.000 A 
ATOM      4  C   UNL     1       1.737   5.240  21.270  0.00  0.00    +0.000 A 
ATOM      5  S   UNL     1       2.045   3.561  21.405  0.00  0.00    +0.000 S 
ENDROOT
BRANCH   3   6
ATOM      6  C   UNL     1       2.111   7.082  19.603  0.00  0.00    +0.000 A 
ATOM      7  C   UNL     1       2.574   7.422  18.331  0.00  0.00    +0.000 A 
ATOM      8  C   UNL     1       2.287   8.676  17.801  0.00  0.00    +0.000 A 
ATOM      9  C   UNL     1       1.521   9.590  18.533  0.00  0.00    +0.000 A 
ATOM     10  C   UNL     1       1.047   9.281  19.813  0.00  0.00    +0.000 A 
ATOM     11  C   UNL     1       1.379   8.025  20.342  0.00  0.00    +0.000 A 
BRANCH  10  12
ATOM     12  N   UNL     1       0.226  10.175  20.558  0.00  0.00    +0.000 N 
ATOM     13  C   UNL     1      -0.846  10.934  19.955  0.00  0.00    +0.000 C 
ATOM     14  C   UNL     1      -1.183  12.000  20.973  0.00  0.00    +0.000 C 
ATOM     15  C   UNL     1      -0.840  11.350  22.297  0.00  0.00    +0.000 C 
ATOM     16  C   UNL     1       0.272  10.392  21.942  0.00  0.00    +0.000 C 
ATOM     17  O   UNL     1       1.010   9.899  22.783  0.00  0.00    +0.000 OA
ENDBRANCH  10  12
ENDBRANCH   3   6
BRANCH   1  18
ATOM     18  C   UNL     1       3.594   2.398  19.398  0.00  0.00    +0.000 C 
BRANCH  18  20
ATOM     19  N   UNL     1       4.905   3.752  17.789  0.00  0.00    +0.000 N 
ATOM     20  C   UNL     1       4.177   2.591  18.011  0.00  0.00    +0.000 C 
ATOM     21  O   UNL     1       4.062   1.661  17.208  0.00  0.00    +0.000 OA
ATOM     22  H   UNL     1       4.992   4.377  18.586  0.00  0.00    +0.000 HD
BRANCH  19  27
ATOM     23  C   UNL     1       7.613   5.117  12.886  0.00  0.00    +0.000 C 
ATOM     24  C   UNL     1       6.901   4.797  14.167  0.00  0.00    +0.000 A 
ATOM     25  C   UNL     1       5.575   4.385  14.154  0.00  0.00    +0.000 A 
ATOM     26  C   UNL     1       4.927   4.058  15.350  0.00  0.00    +0.000 A 
ATOM     27  C   UNL     1       5.576   4.123  16.591  0.00  0.00    +0.000 A 
ATOM     28  C   UNL     1       6.913   4.576  16.618  0.00  0.00    +0.000 A 
ATOM     29  C   UNL     1       7.750   4.731  17.862  0.00  0.00    +0.000 C 
ATOM     30  C   UNL     1       7.555   4.902  15.398  0.00  0.00    +0.000 A 
ENDBRANCH  19  27
ENDBRANCH  18  20
ENDBRANCH   1  18
TORSDOF 5
ENDMDL
MODEL 9
REMARK VINA RESULT:      -8.4      1.148      1.336
REMARK  Name = 
REMARK  7 active torsions:
REMARK  status: ('A' for Active; 'I' for Inactive)
REMARK    1  A    between atoms: C_1  and  C_2
REMARK    2  A    between atoms: C_5  and  N_6
REMARK    3  A    between atoms: C_7  and  C_9
REMARK    4  A    between atoms: C_9  and  C_10
REMARK    5  A    between atoms: C_12  and  C_13
REMARK    6  A    between atoms: C_17  and  N_18
REMARK    7  A    between atoms: C_27  and  C_28
REMARK                            x       y       z     vdW  Elec       q    Type
REMARK                         _______ _______ _______ _____ _____    ______ ____
ROOT
ATOM      1  C   UNL     1       1.509   8.815  19.009  0.00  0.00    +0.000 A 
ATOM      2  N   UNL     1       1.833   7.785  18.256  0.00  0.00    +0.000 NA
ATOM      3  C   UNL     1       2.197   6.713  19.055  0.00  0.00    +0.000 A 
ATOM      4  C   UNL     1       2.083   6.933  20.414  0.00  0.00    +0.000 A 
ATOM      5  S   UNL     1       1.583   8.546  20.704  0.00  0.00    +0.000 S 
ENDROOT
BRANCH   3   6
ATOM      6  C   UNL     1       2.717   5.496  18.454  0.00  0.00    +0.000 A 
ATOM      7  C   UNL     1       2.026   4.293  18.610  0.00  0.00    +0.000 A 
ATOM      8  C   UNL     1       2.447   3.158  17.926  0.00  0.00    +0.000 A 
ATOM      9  C   UNL     1       3.550   3.223  17.067  0.00  0.00    +0.000 A 
ATOM     10  C   UNL     1       4.267   4.413  16.893  0.00  0.00    +0.000 A 
ATOM     11  C   UNL     1       3.847   5.536  17.622  0.00  0.00    +0.000 A 
BRANCH  10  12
ATOM     12  N   UNL     1       5.363   4.516  15.990  0.00  0.00    +0.000 N 
ATOM     13  C   UNL     1       5.187   4.602  14.558  0.00  0.00    +0.000 C 
ATOM     14  C   UNL     1       6.555   4.312  13.984  0.00  0.00    +0.000 C 
ATOM     15  C   UNL     1       7.504   4.805  15.056  0.00  0.00    +0.000 C 
ATOM     16  C   UNL     1       6.718   4.626  16.333  0.00  0.00    +0.000 C 
ATOM     17  O   UNL     1       7.243   4.637  17.436  0.00  0.00    +0.000 OA
ENDBRANCH  10  12
ENDBRANCH   3   6
BRANCH   1  18
ATOM     18  C   UNL     1       1.050  10.122  18.467  0.00  0.00    +0.000 C 
BRANCH  18  20
ATOM     19  N   UNL     1      -1.137  10.987  17.683  0.00  0.00    +0.000 N 
ATOM     20  C   UNL     1      -0.423  10.390  18.713  0.00  0.00    +0.000 C 
ATOM     21  O   UNL     1      -0.914   9.962  19.762  0.00  0.00    +0.000 OA
ATOM     22  H   UNL     1      -0.607  11.191  16.840  0.00  0.00    +0.000 HD
BRANCH  19  27
ATOM     23  C   UNL     1      -6.790  12.117  17.742  0.00  0.00    +0.000 C 
ATOM     24  C   UNL     1      -5.313  11.855  17.709  0.00  0.00    +0.000 A 
ATOM     25  C   UNL     1      -4.517  12.157  18.807  0.00  0.00    +0.000 A 
ATOM     26  C   UNL     1      -3.147  11.880  18.782  0.00  0.00    +0.000 A 
ATOM     27  C   UNL     1      -2.526  11.290  17.671  0.00  0.00    +0.000 A 
ATOM     28  C   UNL     1      -3.320  11.013  16.536  0.00  0.00    +0.000 A 
ATOM     29  C   UNL     1      -2.814  10.405  15.253  0.00  0.00    +0.000 C 
ATOM     30  C   UNL     1      -4.707  11.298  16.579  0.00  0.00    +0.000 A 
ENDBRANCH  19  27
ENDBRANCH  18  20
ENDBRANCH   1  18
TORSDOF 5
ENDMDL
