MODEL 1
REMARK VINA RESULT:      -8.5      0.000      0.000
REMARK  Name = 
REMARK  6 active torsions:
REMARK  status: ('A' for Active; 'I' for Inactive)
REMARK    1  A    between atoms: C_1  and  C_2
REMARK    2  A    between atoms: C_5  and  C_6
REMARK    3  A    between atoms: C_12  and  C_13
REMARK    4  A    between atoms: C_16  and  C_17
REMARK    5  A    between atoms: C_17  and  N_18
REMARK    6  A    between atoms: C_23  and  C_24
REMARK                            x       y       z     vdW  Elec       q    Type
REMARK                         _______ _______ _______ _____ _____    ______ ____
ROOT
ATOM      1  C   UNL     1       2.445   6.614  19.506  0.00  0.00    +0.000 A 
ATOM      2  N   UNL     1       1.971   7.125  20.627  0.00  0.00    +0.000 NA
ATOM      3  N   UNL     1       1.479   8.382  20.332  0.00  0.00    +0.000 NA
ATOM      4  C   UNL     1       1.703   8.567  19.051  0.00  0.00    +0.000 A 
ATOM      5  O   UNL     1       2.354   7.511  18.473  0.00  0.00    +0.000 OA
ENDROOT
BRANCH   1  11
ATOM      6  C   UNL     1       0.908   3.842  20.203  0.00  0.00    +0.000 C 
ATOM      7  C   UNL     1       2.242   4.106  19.626  0.00  0.00    +0.000 A 
ATOM      8  O   UNL     1       3.019   3.019  19.391  0.00  0.00    +0.000 OA
ATOM      9  N   UNL     1       4.260   3.427  18.955  0.00  0.00    +0.000 NA
ATOM     10  C   UNL     1       4.240   4.772  18.922  0.00  0.00    +0.000 A 
ATOM     11  C   UNL     1       2.960   5.241  19.323  0.00  0.00    +0.000 A 
BRANCH  10  12
ATOM     12  C   UNL     1       5.441   5.516  18.549  0.00  0.00    +0.000 A 
ATOM     13  C   UNL     1       5.452   6.399  17.464  0.00  0.00    +0.000 A 
ATOM     14  C   UNL     1       6.596   7.149  17.169  0.00  0.00    +0.000 A 
ATOM     15  C   UNL     1       7.748   6.997  17.938  0.00  0.00    +0.000 A 
ATOM     16  C   UNL     1       7.762   6.094  19.000  0.00  0.00    +0.000 A 
ATOM     17  C   UNL     1       6.616   5.356  19.302  0.00  0.00    +0.000 A 
ENDBRANCH  10  12
ENDBRANCH   1  11
BRANCH   4  18
ATOM     18  C   UNL     1       1.240   9.653  18.135  0.00  0.00    +0.000 C 
BRANCH  18  19
ATOM     19  N   UNL     1       0.564  10.733  18.867  0.00  0.00    +0.000 NA
ATOM     20  C   UNL     1       1.135  12.066  18.700  0.00  0.00    +0.000 C 
ATOM     21  C   UNL     1       0.511  13.112  19.622  0.00  0.00    +0.000 C 
ATOM     22  C   UNL     1      -1.008  13.041  19.662  0.00  0.00    +0.000 C 
ATOM     23  C   UNL     1      -1.463  11.619  19.966  0.00  0.00    +0.000 C 
ATOM     24  C   UNL     1      -0.899  10.604  18.967  0.00  0.00    +0.000 C 
BRANCH  24  25
ATOM     25  C   UNL     1      -1.686  10.658  17.643  0.00  0.00    +0.000 C 
ATOM     26  N   UNL     1      -1.729  11.817  16.934  0.00  0.00    +0.000 N 
ATOM     27  O   UNL     1      -2.365   9.706  17.253  0.00  0.00    +0.000 OA
ATOM     28  H   UNL     1      -0.992  12.503  16.987  0.00  0.00    +0.000 HD
ATOM     29  H   UNL     1      -2.263  11.792  16.073  0.00  0.00    +0.000 HD
ENDBRANCH  24  25
ENDBRANCH  18  19
ENDBRANCH   4  18
TORSDOF 5
ENDMDL
MODEL 2
REMARK VINA RESULT:      -8.5      1.089      1.107
REMARK  Name = 
REMARK  6 active torsions:
REMARK  status: ('A' for Active; 'I' for Inactive)
REMARK    1  A    between atoms: C_1  and  C_2
REMARK    2  A    between atoms: C_5  and  C_6
REMARK    3  A    between atoms: C_12  and  C_13
REMARK    4  A    between atoms: C_16  and  C_17
REMARK    5  A    between atoms: C_17  and  N_18
REMARK    6  A    between atoms: C_23  and  C_24
REMARK                            x       y       z     vdW  Elec       q    Type
REMARK                         _______ _______ _______ _____ _____    ______ ____
ROOT
ATOM      1  C   UNL     1       2.767   6.658  18.579  0.00  0.00    +0.000 A 
ATOM      2  N   UNL     1       2.328   6.831  19.811  0.00  0.00    +0.000 NA
ATOM      3  N   UNL     1       1.734   8.077  19.866  0.00  0.00    +0.000 NA
ATOM      4  C   UNL     1       1.868   8.596  18.666  0.00  0.00    +0.000 A 
ATOM      5  O   UNL     1       2.554   7.774  17.813  0.00  0.00    +0.000 OA
ENDROOT
BRANCH   1  11
ATOM      6  C   UNL     1       1.231   3.881  17.904  0.00  0.00    +0.000 C 
ATOM      7  C   UNL     1       2.644   4.281  17.752  0.00  0.00    +0.000 A 
ATOM      8  O   UNL     1       3.496   3.320  17.315  0.00  0.00    +0.000 OA
ATOM      9  N   UNL     1       4.784   3.809  17.324  0.00  0.00    +0.000 NA
ATOM     10  C   UNL     1       4.717   5.078  17.769  0.00  0.00    +0.000 A 
ATOM     11  C   UNL     1       3.364   5.421  18.031  0.00  0.00    +0.000 A 
BRANCH  10  12
ATOM     12  C   UNL     1       5.939   5.859  17.946  0.00  0.00    +0.000 A 
ATOM     13  C   UNL     1       6.202   6.999  17.179  0.00  0.00    +0.000 A 
ATOM     14  C   UNL     1       7.347   7.767  17.414  0.00  0.00    +0.000 A 
ATOM     15  C   UNL     1       8.256   7.382  18.397  0.00  0.00    +0.000 A 
ATOM     16  C   UNL     1       8.025   6.228  19.145  0.00  0.00    +0.000 A 
ATOM     17  C   UNL     1       6.874   5.469  18.918  0.00  0.00    +0.000 A 
ENDBRANCH  10  12
ENDBRANCH   1  11
BRANCH   4  18
ATOM     18  C   UNL     1       1.278   9.835  18.076  0.00  0.00    +0.000 C 
BRANCH  18  19
ATOM     19  N   UNL     1       0.769  10.744  19.113  0.00  0.00    +0.000 NA
ATOM     20  C   UNL     1       1.501  11.997  19.271  0.00  0.00    +0.000 C 
ATOM     21  C   UNL     1       1.046  12.815  20.479  0.00  0.00    +0.000 C 
ATOM     22  C   UNL     1      -0.467  12.911  20.598  0.00  0.00    +0.000 C 
ATOM     23  C   UNL     1      -1.091  11.523  20.540  0.00  0.00    +0.000 C 
ATOM     24  C   UNL     1      -0.694  10.762  19.271  0.00  0.00    +0.000 C 
BRANCH  24  25
ATOM     25  C   UNL     1      -1.510  11.266  18.064  0.00  0.00    +0.000 C 
ATOM     26  N   UNL     1      -1.276  12.509  17.568  0.00  0.00    +0.000 N 
ATOM     27  O   UNL     1      -2.441  10.611  17.593  0.00  0.00    +0.000 OA
ATOM     28  H   UNL     1      -0.379  12.961  17.658  0.00  0.00    +0.000 HD
ATOM     29  H   UNL     1      -1.844  12.786  16.775  0.00  0.00    +0.000 HD
ENDBRANCH  24  25
ENDBRANCH  18  19
ENDBRANCH   4  18
TORSDOF 5
ENDMDL
MODEL 3
REMARK VINA RESULT:      -8.4      0.771      1.318
REMARK  Name = 
REMARK  6 active torsions:
REMARK  status: ('A' for Active; 'I' for Inactive)
REMARK    1  A    between atoms: C_1  and  C_2
REMARK    2  A    between atoms: C_5  and  C_6
REMARK    3  A    between atoms: C_12  and  C_13
REMARK    4  A    between atoms: C_16  and  C_17
REMARK    5  A    between atoms: C_17  and  N_18
REMARK    6  A    between atoms: C_23  and  C_24
REMARK                            x       y       z     vdW  Elec       q    Type
REMARK                         _______ _______ _______ _____ _____    ______ ____
ROOT
ATOM      1  C   UNL     1       2.423   6.632  19.550  0.00  0.00    +0.000 A 
ATOM      2  N   UNL     1       1.912   7.129  20.660  0.00  0.00    +0.000 NA
ATOM      3  N   UNL     1       1.428   8.389  20.364  0.00  0.00    +0.000 NA
ATOM      4  C   UNL     1       1.694   8.589  19.092  0.00  0.00    +0.000 A 
ATOM      5  O   UNL     1       2.365   7.539  18.525  0.00  0.00    +0.000 OA
ENDROOT
BRANCH   1  11
ATOM      6  C   UNL     1       0.895   3.851  20.230  0.00  0.00    +0.000 C 
ATOM      7  C   UNL     1       2.232   4.122  19.665  0.00  0.00    +0.000 A 
ATOM      8  O   UNL     1       3.017   3.039  19.434  0.00  0.00    +0.000 OA
ATOM      9  N   UNL     1       4.259   3.454  19.009  0.00  0.00    +0.000 NA
ATOM     10  C   UNL     1       4.232   4.800  18.978  0.00  0.00    +0.000 A 
ATOM     11  C   UNL     1       2.947   5.261  19.369  0.00  0.00    +0.000 A 
BRANCH  10  12
ATOM     12  C   UNL     1       5.433   5.550  18.616  0.00  0.00    +0.000 A 
ATOM     13  C   UNL     1       6.619   5.438  19.348  0.00  0.00    +0.000 A 
ATOM     14  C   UNL     1       7.774   6.115  18.941  0.00  0.00    +0.000 A 
ATOM     15  C   UNL     1       7.742   6.936  17.816  0.00  0.00    +0.000 A 
ATOM     16  C   UNL     1       6.556   7.085  17.097  0.00  0.00    +0.000 A 
ATOM     17  C   UNL     1       5.408   6.398  17.496  0.00  0.00    +0.000 A 
ENDBRANCH  10  12
ENDBRANCH   1  11
BRANCH   4  18
ATOM     18  C   UNL     1       1.259   9.684  18.173  0.00  0.00    +0.000 C 
BRANCH  18  19
ATOM     19  N   UNL     1       1.310  10.998  18.829  0.00  0.00    +0.000 NA
ATOM     20  C   UNL     1       2.227  11.967  18.236  0.00  0.00    +0.000 C 
ATOM     21  C   UNL     1       2.376  13.243  19.062  0.00  0.00    +0.000 C 
ATOM     22  C   UNL     1       1.045  13.799  19.546  0.00  0.00    +0.000 C 
ATOM     23  C   UNL     1       0.244  12.713  20.252  0.00  0.00    +0.000 C 
ATOM     24  C   UNL     1       0.028  11.483  19.365  0.00  0.00    +0.000 C 
BRANCH  24  25
ATOM     25  C   UNL     1      -1.090  11.751  18.337  0.00  0.00    +0.000 C 
ATOM     26  N   UNL     1      -1.017  12.846  17.535  0.00  0.00    +0.000 N 
ATOM     27  O   UNL     1      -2.104  11.052  18.287  0.00  0.00    +0.000 OA
ATOM     28  H   UNL     1      -0.135  13.264  17.282  0.00  0.00    +0.000 HD
ATOM     29  H   UNL     1      -1.781  12.970  16.881  0.00  0.00    +0.000 HD
ENDBRANCH  24  25
ENDBRANCH  18  19
ENDBRANCH   4  18
TORSDOF 5
ENDMDL
MODEL 4
REMARK VINA RESULT:      -8.3      1.377      1.688
REMARK  Name = 
REMARK  6 active torsions:
REMARK  status: ('A' for Active; 'I' for Inactive)
REMARK    1  A    between atoms: C_1  and  C_2
REMARK    2  A    between atoms: C_5  and  C_6
REMARK    3  A    between atoms: C_12  and  C_13
REMARK    4  A    between atoms: C_16  and  C_17
REMARK    5  A    between atoms: C_17  and  N_18
REMARK    6  A    between atoms: C_23  and  C_24
REMARK                            x       y       z     vdW  Elec       q    Type
REMARK                         _______ _______ _______ _____ _____    ______ ____
ROOT
ATOM      1  C   UNL     1       2.487   5.854  18.866  0.00  0.00    +0.000 A 
ATOM      2  N   UNL     1       2.444   6.407  20.063  0.00  0.00    +0.000 NA
ATOM      3  N   UNL     1       2.127   7.741  19.890  0.00  0.00    +0.000 NA
ATOM      4  C   UNL     1       2.017   7.921  18.593  0.00  0.00    +0.000 A 
ATOM      5  O   UNL     1       2.278   6.783  17.881  0.00  0.00    +0.000 OA
ENDROOT
BRANCH   1  11
ATOM      6  C   UNL     1       0.698   3.389  19.988  0.00  0.00    +0.000 C 
ATOM      7  C   UNL     1       1.860   3.422  19.076  0.00  0.00    +0.000 A 
ATOM      8  O   UNL     1       2.333   2.219  18.663  0.00  0.00    +0.000 OA
ATOM      9  N   UNL     1       3.471   2.407  17.910  0.00  0.00    +0.000 NA
ATOM     10  C   UNL     1       3.693   3.734  17.861  0.00  0.00    +0.000 A 
ATOM     11  C   UNL     1       2.672   4.416  18.577  0.00  0.00    +0.000 A 
BRANCH  10  12
ATOM     12  C   UNL     1       4.871   4.257  17.173  0.00  0.00    +0.000 A 
ATOM     13  C   UNL     1       6.035   4.603  17.868  0.00  0.00    +0.000 A 
ATOM     14  C   UNL     1       7.172   5.037  17.179  0.00  0.00    +0.000 A 
ATOM     15  C   UNL     1       7.144   5.160  15.791  0.00  0.00    +0.000 A 
ATOM     16  C   UNL     1       5.978   4.853  15.089  0.00  0.00    +0.000 A 
ATOM     17  C   UNL     1       4.848   4.407  15.777  0.00  0.00    +0.000 A 
ENDBRANCH  10  12
ENDBRANCH   1  11
BRANCH   4  18
ATOM     18  C   UNL     1       1.524   9.100  17.819  0.00  0.00    +0.000 C 
BRANCH  18  19
ATOM     19  N   UNL     1       1.029  10.165  18.703  0.00  0.00    +0.000 NA
ATOM     20  C   UNL     1       1.758  11.428  18.643  0.00  0.00    +0.000 C 
ATOM     21  C   UNL     1       1.320  12.431  19.709  0.00  0.00    +0.000 C 
ATOM     22  C   UNL     1      -0.191  12.543  19.836  0.00  0.00    +0.000 C 
ATOM     23  C   UNL     1      -0.811  11.163  20.016  0.00  0.00    +0.000 C 
ATOM     24  C   UNL     1      -0.431  10.206  18.881  0.00  0.00    +0.000 C 
BRANCH  24  25
ATOM     25  C   UNL     1      -1.270  10.506  17.622  0.00  0.00    +0.000 C 
ATOM     26  N   UNL     1      -1.476  11.795  17.244  0.00  0.00    +0.000 N 
ATOM     27  O   UNL     1      -1.844   9.612  16.999  0.00  0.00    +0.000 OA
ATOM     28  H   UNL     1      -0.824  12.529  17.472  0.00  0.00    +0.000 HD
ATOM     29  H   UNL     1      -2.036  11.930  16.410  0.00  0.00    +0.000 HD
ENDBRANCH  24  25
ENDBRANCH  18  19
ENDBRANCH   4  18
TORSDOF 5
ENDMDL
MODEL 5
REMARK VINA RESULT:      -8.2      1.673      3.557
REMARK  Name = 
REMARK  6 active torsions:
REMARK  status: ('A' for Active; 'I' for Inactive)
REMARK    1  A    between atoms: C_1  and  C_2
REMARK    2  A    between atoms: C_5  and  C_6
REMARK    3  A    between atoms: C_12  and  C_13
REMARK    4  A    between atoms: C_16  and  C_17
REMARK    5  A    between atoms: C_17  and  N_18
REMARK    6  A    between atoms: C_23  and  C_24
REMARK                            x       y       z     vdW  Elec       q    Type
REMARK                         _______ _______ _______ _____ _____    ______ ____
ROOT
ATOM      1  C   UNL     1       3.081   6.820  18.387  0.00  0.00    +0.000 A 
ATOM      2  N   UNL     1       2.624   6.995  19.612  0.00  0.00    +0.000 NA
ATOM      3  N   UNL     1       1.945   8.199  19.632  0.00  0.00    +0.000 NA
ATOM      4  C   UNL     1       2.050   8.693  18.419  0.00  0.00    +0.000 A 
ATOM      5  O   UNL     1       2.796   7.898  17.591  0.00  0.00    +0.000 OA
ENDROOT
BRANCH   1  11
ATOM      6  C   UNL     1       5.051   6.631  15.815  0.00  0.00    +0.000 C 
ATOM      7  C   UNL     1       4.604   5.610  16.785  0.00  0.00    +0.000 A 
ATOM      8  O   UNL     1       5.020   4.340  16.553  0.00  0.00    +0.000 OA
ATOM      9  N   UNL     1       4.442   3.492  17.473  0.00  0.00    +0.000 NA
ATOM     10  C   UNL     1       3.669   4.252  18.272  0.00  0.00    +0.000 A 
ATOM     11  C   UNL     1       3.764   5.613  17.876  0.00  0.00    +0.000 A 
BRANCH  10  12
ATOM     12  C   UNL     1       2.871   3.631  19.326  0.00  0.00    +0.000 A 
ATOM     13  C   UNL     1       3.462   3.067  20.462  0.00  0.00    +0.000 A 
ATOM     14  C   UNL     1       2.672   2.539  21.488  0.00  0.00    +0.000 A 
ATOM     15  C   UNL     1       1.283   2.540  21.372  0.00  0.00    +0.000 A 
ATOM     16  C   UNL     1       0.682   3.066  20.229  0.00  0.00    +0.000 A 
ATOM     17  C   UNL     1       1.471   3.606  19.211  0.00  0.00    +0.000 A 
ENDBRANCH  10  12
ENDBRANCH   1  11
BRANCH   4  18
ATOM     18  C   UNL     1       1.380   9.872  17.793  0.00  0.00    +0.000 C 
BRANCH  18  19
ATOM     19  N   UNL     1       0.801  10.770  18.803  0.00  0.00    +0.000 NA
ATOM     20  C   UNL     1       1.368  12.114  18.854  0.00  0.00    +0.000 C 
ATOM     21  C   UNL     1       0.862  12.940  20.036  0.00  0.00    +0.000 C 
ATOM     22  C   UNL     1      -0.644  12.847  20.227  0.00  0.00    +0.000 C 
ATOM     23  C   UNL     1      -1.081  11.388  20.278  0.00  0.00    +0.000 C 
ATOM     24  C   UNL     1      -0.643  10.609  19.034  0.00  0.00    +0.000 C 
BRANCH  24  25
ATOM     25  C   UNL     1      -1.570  10.928  17.845  0.00  0.00    +0.000 C 
ATOM     26  N   UNL     1      -1.599  12.187  17.335  0.00  0.00    +0.000 N 
ATOM     27  O   UNL     1      -2.365  10.096  17.402  0.00  0.00    +0.000 OA
ATOM     28  H   UNL     1      -0.807  12.808  17.400  0.00  0.00    +0.000 HD
ATOM     29  H   UNL     1      -2.229  12.337  16.555  0.00  0.00    +0.000 HD
ENDBRANCH  24  25
ENDBRANCH  18  19
ENDBRANCH   4  18
TORSDOF 5
ENDMDL
MODEL 6
REMARK VINA RESULT:      -8.1      1.206      1.520
REMARK  Name = 
REMARK  6 active torsions:
REMARK  status: ('A' for Active; 'I' for Inactive)
REMARK    1  A    between atoms: C_1  and  C_2
REMARK    2  A    between atoms: C_5  and  C_6
REMARK    3  A    between atoms: C_12  and  C_13
REMARK    4  A    between atoms: C_16  and  C_17
REMARK    5  A    between atoms: C_17  and  N_18
REMARK    6  A    between atoms: C_23  and  C_24
REMARK                            x       y       z     vdW  Elec       q    Type
REMARK                         _______ _______ _______ _____ _____    ______ ____
ROOT
ATOM      1  C   UNL     1       2.726   6.622  18.653  0.00  0.00    +0.000 A 
ATOM      2  N   UNL     1       2.285   6.796  19.885  0.00  0.00    +0.000 NA
ATOM      3  N   UNL     1       1.681   8.037  19.935  0.00  0.00    +0.000 NA
ATOM      4  C   UNL     1       1.809   8.552  18.733  0.00  0.00    +0.000 A 
ATOM      5  O   UNL     1       2.502   7.733  17.883  0.00  0.00    +0.000 OA
ENDROOT
BRANCH   1  11
ATOM      6  C   UNL     1       1.204   3.845  17.941  0.00  0.00    +0.000 C 
ATOM      7  C   UNL     1       2.620   4.248  17.815  0.00  0.00    +0.000 A 
ATOM      8  O   UNL     1       3.480   3.289  17.389  0.00  0.00    +0.000 OA
ATOM      9  N   UNL     1       4.767   3.780  17.422  0.00  0.00    +0.000 NA
ATOM     10  C   UNL     1       4.691   5.047  17.870  0.00  0.00    +0.000 A 
ATOM     11  C   UNL     1       3.333   5.388  18.111  0.00  0.00    +0.000 A 
BRANCH  10  12
ATOM     12  C   UNL     1       5.909   5.828  18.071  0.00  0.00    +0.000 A 
ATOM     13  C   UNL     1       6.828   5.514  19.079  0.00  0.00    +0.000 A 
ATOM     14  C   UNL     1       8.018   6.236  19.208  0.00  0.00    +0.000 A 
ATOM     15  C   UNL     1       8.285   7.301  18.350  0.00  0.00    +0.000 A 
ATOM     16  C   UNL     1       7.362   7.649  17.364  0.00  0.00    +0.000 A 
ATOM     17  C   UNL     1       6.180   6.918  17.228  0.00  0.00    +0.000 A 
ENDBRANCH  10  12
ENDBRANCH   1  11
BRANCH   4  18
ATOM     18  C   UNL     1       1.208   9.783  18.137  0.00  0.00    +0.000 C 
BRANCH  18  19
ATOM     19  N   UNL     1       0.751  10.721  19.172  0.00  0.00    +0.000 NA
ATOM     20  C   UNL     1       1.391  12.033  19.165  0.00  0.00    +0.000 C 
ATOM     21  C   UNL     1       1.014  12.897  20.367  0.00  0.00    +0.000 C 
ATOM     22  C   UNL     1      -0.478  12.889  20.663  0.00  0.00    +0.000 C 
ATOM     23  C   UNL     1      -0.988  11.457  20.765  0.00  0.00    +0.000 C 
ATOM     24  C   UNL     1      -0.680  10.641  19.505  0.00  0.00    +0.000 C 
BRANCH  24  25
ATOM     25  C   UNL     1      -1.670  10.998  18.378  0.00  0.00    +0.000 C 
ATOM     26  N   UNL     1      -2.530  10.053  17.916  0.00  0.00    +0.000 N 
ATOM     27  O   UNL     1      -1.639  12.092  17.811  0.00  0.00    +0.000 OA
ATOM     28  H   UNL     1      -2.843   9.288  18.493  0.00  0.00    +0.000 HD
ATOM     29  H   UNL     1      -3.156  10.345  17.174  0.00  0.00    +0.000 HD
ENDBRANCH  24  25
ENDBRANCH  18  19
ENDBRANCH   4  18
TORSDOF 5
ENDMDL
MODEL 7
REMARK VINA RESULT:      -8.1      2.026      4.205
REMARK  Name = 
REMARK  6 active torsions:
REMARK  status: ('A' for Active; 'I' for Inactive)
REMARK    1  A    between atoms: C_1  and  C_2
REMARK    2  A    between atoms: C_5  and  C_6
REMARK    3  A    between atoms: C_12  and  C_13
REMARK    4  A    between atoms: C_16  and  C_17
REMARK    5  A    between atoms: C_17  and  N_18
REMARK    6  A    between atoms: C_23  and  C_24
REMARK                            x       y       z     vdW  Elec       q    Type
REMARK                         _______ _______ _______ _____ _____    ______ ____
ROOT
ATOM      1  C   UNL     1       3.288   7.174  18.107  0.00  0.00    +0.000 A 
ATOM      2  N   UNL     1       3.178   7.988  17.073  0.00  0.00    +0.000 NA
ATOM      3  N   UNL     1       2.270   8.971  17.417  0.00  0.00    +0.000 NA
ATOM      4  C   UNL     1       1.867   8.683  18.635  0.00  0.00    +0.000 A 
ATOM      5  O   UNL     1       2.433   7.533  19.116  0.00  0.00    +0.000 OA
ENDROOT
BRANCH   1  11
ATOM      6  C   UNL     1       6.402   7.133  17.197  0.00  0.00    +0.000 C 
ATOM      7  C   UNL     1       5.554   6.107  17.838  0.00  0.00    +0.000 A 
ATOM      8  O   UNL     1       6.129   4.895  18.040  0.00  0.00    +0.000 OA
ATOM      9  N   UNL     1       5.191   4.021  18.546  0.00  0.00    +0.000 NA
ATOM     10  C   UNL     1       4.037   4.706  18.654  0.00  0.00    +0.000 A 
ATOM     11  C   UNL     1       4.236   6.048  18.231  0.00  0.00    +0.000 A 
BRANCH  10  12
ATOM     12  C   UNL     1       2.825   4.033  19.113  0.00  0.00    +0.000 A 
ATOM     13  C   UNL     1       2.025   3.282  18.244  0.00  0.00    +0.000 A 
ATOM     14  C   UNL     1       0.906   2.592  18.723  0.00  0.00    +0.000 A 
ATOM     15  C   UNL     1       0.559   2.674  20.071  0.00  0.00    +0.000 A 
ATOM     16  C   UNL     1       1.327   3.448  20.941  0.00  0.00    +0.000 A 
ATOM     17  C   UNL     1       2.451   4.125  20.464  0.00  0.00    +0.000 A 
ENDBRANCH  10  12
ENDBRANCH   1  11
BRANCH   4  18
ATOM     18  C   UNL     1       1.031   9.471  19.590  0.00  0.00    +0.000 C 
BRANCH  18  19
ATOM     19  N   UNL     1       0.509  10.698  18.972  0.00  0.00    +0.000 NA
ATOM     20  C   UNL     1      -0.942  10.766  18.826  0.00  0.00    +0.000 C 
ATOM     21  C   UNL     1      -1.413  11.973  18.016  0.00  0.00    +0.000 C 
ATOM     22  C   UNL     1      -0.726  13.268  18.423  0.00  0.00    +0.000 C 
ATOM     23  C   UNL     1       0.787  13.089  18.415  0.00  0.00    +0.000 C 
ATOM     24  C   UNL     1       1.237  11.931  19.312  0.00  0.00    +0.000 C 
BRANCH  24  25
ATOM     25  C   UNL     1       1.216  12.358  20.793  0.00  0.00    +0.000 C 
ATOM     26  N   UNL     1       0.101  12.140  21.538  0.00  0.00    +0.000 N 
ATOM     27  O   UNL     1       2.148  12.984  21.300  0.00  0.00    +0.000 OA
ATOM     28  H   UNL     1      -0.543  11.392  21.330  0.00  0.00    +0.000 HD
ATOM     29  H   UNL     1       0.144  12.443  22.504  0.00  0.00    +0.000 HD
ENDBRANCH  24  25
ENDBRANCH  18  19
ENDBRANCH   4  18
TORSDOF 5
ENDMDL
MODEL 8
REMARK VINA RESULT:      -8.0      1.918      2.523
REMARK  Name = 
REMARK  6 active torsions:
REMARK  status: ('A' for Active; 'I' for Inactive)
REMARK    1  A    between atoms: C_1  and  C_2
REMARK    2  A    between atoms: C_5  and  C_6
REMARK    3  A    between atoms: C_12  and  C_13
REMARK    4  A    between atoms: C_16  and  C_17
REMARK    5  A    between atoms: C_17  and  N_18
REMARK    6  A    between atoms: C_23  and  C_24
REMARK                            x       y       z     vdW  Elec       q    Type
REMARK                         _______ _______ _______ _____ _____    ______ ____
ROOT
ATOM      1  C   UNL     1       2.467   6.434  19.521  0.00  0.00    +0.000 A 
ATOM      2  N   UNL     1       2.504   7.306  18.531  0.00  0.00    +0.000 NA
ATOM      3  N   UNL     1       1.930   8.476  18.989  0.00  0.00    +0.000 NA
ATOM      4  C   UNL     1       1.558   8.237  20.227  0.00  0.00    +0.000 A 
ATOM      5  O   UNL     1       1.823   6.951  20.615  0.00  0.00    +0.000 OA
ENDROOT
BRANCH   1  11
ATOM      6  C   UNL     1       1.140   3.686  20.624  0.00  0.00    +0.000 C 
ATOM      7  C   UNL     1       2.446   3.959  19.991  0.00  0.00    +0.000 A 
ATOM      8  O   UNL     1       3.298   2.907  19.895  0.00  0.00    +0.000 OA
ATOM      9  N   UNL     1       4.503   3.336  19.384  0.00  0.00    +0.000 NA
ATOM     10  C   UNL     1       4.385   4.660  19.165  0.00  0.00    +0.000 A 
ATOM     11  C   UNL     1       3.078   5.088  19.521  0.00  0.00    +0.000 A 
BRANCH  10  12
ATOM     12  C   UNL     1       5.526   5.426  18.671  0.00  0.00    +0.000 A 
ATOM     13  C   UNL     1       5.453   6.178  17.493  0.00  0.00    +0.000 A 
ATOM     14  C   UNL     1       6.538   6.957  17.077  0.00  0.00    +0.000 A 
ATOM     15  C   UNL     1       7.718   6.964  17.819  0.00  0.00    +0.000 A 
ATOM     16  C   UNL     1       7.817   6.190  18.975  0.00  0.00    +0.000 A 
ATOM     17  C   UNL     1       6.728   5.424  19.397  0.00  0.00    +0.000 A 
ENDBRANCH  10  12
ENDBRANCH   1  11
BRANCH   4  18
ATOM     18  C   UNL     1       1.046   9.165  21.280  0.00  0.00    +0.000 C 
BRANCH  18  19
ATOM     19  N   UNL     1       0.298  10.288  20.698  0.00  0.00    +0.000 NA
ATOM     20  C   UNL     1      -0.704   9.933  19.698  0.00  0.00    +0.000 C 
ATOM     21  C   UNL     1      -1.317  11.144  18.998  0.00  0.00    +0.000 C 
ATOM     22  C   UNL     1      -1.707  12.255  19.961  0.00  0.00    +0.000 C 
ATOM     23  C   UNL     1      -0.531  12.610  20.863  0.00  0.00    +0.000 C 
ATOM     24  C   UNL     1       0.001  11.393  21.625  0.00  0.00    +0.000 C 
BRANCH  24  25
ATOM     25  C   UNL     1      -0.916  11.062  22.819  0.00  0.00    +0.000 C 
ATOM     26  N   UNL     1      -0.879   9.821  23.371  0.00  0.00    +0.000 N 
ATOM     27  O   UNL     1      -1.760  11.862  23.228  0.00  0.00    +0.000 OA
ATOM     28  H   UNL     1      -0.052   9.244  23.332  0.00  0.00    +0.000 HD
ATOM     29  H   UNL     1      -1.505   9.661  24.151  0.00  0.00    +0.000 HD
ENDBRANCH  24  25
ENDBRANCH  18  19
ENDBRANCH   4  18
TORSDOF 5
ENDMDL
MODEL 9
REMARK VINA RESULT:      -8.0      2.102      7.726
REMARK  Name = 
REMARK  6 active torsions:
REMARK  status: ('A' for Active; 'I' for Inactive)
REMARK    1  A    between atoms: C_1  and  C_2
REMARK    2  A    between atoms: C_5  and  C_6
REMARK    3  A    between atoms: C_12  and  C_13
REMARK    4  A    between atoms: C_16  and  C_17
REMARK    5  A    between atoms: C_17  and  N_18
REMARK    6  A    between atoms: C_23  and  C_24
REMARK                            x       y       z     vdW  Elec       q    Type
REMARK                         _______ _______ _______ _____ _____    ______ ____
ROOT
ATOM      1  C   UNL     1       1.148   9.944  18.488  0.00  0.00    +0.000 A 
ATOM      2  N   UNL     1       1.885   9.644  17.435  0.00  0.00    +0.000 NA
ATOM      3  N   UNL     1       2.522   8.448  17.704  0.00  0.00    +0.000 NA
ATOM      4  C   UNL     1       2.147   8.102  18.915  0.00  0.00    +0.000 A 
ATOM      5  O   UNL     1       1.316   9.025  19.491  0.00  0.00    +0.000 OA
ENDROOT
BRANCH   1  11
ATOM      6  C   UNL     1      -2.032   9.904  17.837  0.00  0.00    +0.000 C 
ATOM      7  C   UNL     1      -1.143  10.980  18.319  0.00  0.00    +0.000 A 
ATOM      8  O   UNL     1      -1.709  12.204  18.467  0.00  0.00    +0.000 OA
ATOM      9  N   UNL     1      -0.741  13.119  18.819  0.00  0.00    +0.000 NA
ATOM     10  C   UNL     1       0.424  12.448  18.888  0.00  0.00    +0.000 A 
ATOM     11  C   UNL     1       0.203  11.075  18.596  0.00  0.00    +0.000 A 
BRANCH  10  12
ATOM     12  C   UNL     1       1.664  13.159  19.188  0.00  0.00    +0.000 A 
ATOM     13  C   UNL     1       2.514  13.617  18.175  0.00  0.00    +0.000 A 
ATOM     14  C   UNL     1       3.661  14.354  18.488  0.00  0.00    +0.000 A 
ATOM     15  C   UNL     1       3.985  14.611  19.819  0.00  0.00    +0.000 A 
ATOM     16  C   UNL     1       3.167  14.130  20.840  0.00  0.00    +0.000 A 
ATOM     17  C   UNL     1       2.014  13.406  20.526  0.00  0.00    +0.000 A 
ENDBRANCH  10  12
ENDBRANCH   1  11
BRANCH   4  18
ATOM     18  C   UNL     1       2.365   6.832  19.671  0.00  0.00    +0.000 C 
BRANCH  18  19
ATOM     19  N   UNL     1       2.769   5.733  18.783  0.00  0.00    +0.000 NA
ATOM     20  C   UNL     1       4.203   5.469  18.713  0.00  0.00    +0.000 C 
ATOM     21  C   UNL     1       4.579   4.446  17.642  0.00  0.00    +0.000 C 
ATOM     22  C   UNL     1       3.679   3.220  17.647  0.00  0.00    +0.000 C 
ATOM     23  C   UNL     1       2.215   3.639  17.595  0.00  0.00    +0.000 C 
ATOM     24  C   UNL     1       1.843   4.589  18.738  0.00  0.00    +0.000 C 
BRANCH  24  25
ATOM     25  C   UNL     1       1.654   3.804  20.051  0.00  0.00    +0.000 C 
ATOM     26  N   UNL     1       0.472   3.181  20.296  0.00  0.00    +0.000 N 
ATOM     27  O   UNL     1       2.512   3.805  20.935  0.00  0.00    +0.000 OA
ATOM     28  H   UNL     1      -0.128   2.861  19.551  0.00  0.00    +0.000 HD
ATOM     29  H   UNL     1       0.406   2.682  21.175  0.00  0.00    +0.000 HD
ENDBRANCH  24  25
ENDBRANCH  18  19
ENDBRANCH   4  18
TORSDOF 5
ENDMDL
