MODEL 1
REMARK VINA RESULT:      -8.6      0.000      0.000
REMARK  Name = 
REMARK  3 active torsions:
REMARK  status: ('A' for Active; 'I' for Inactive)
REMARK    1  A    between atoms: N_3  and  C_4
REMARK    2  A    between atoms: N_13  and  C_14
REMARK    3  A    between atoms: C_16  and  C_17
REMARK                            x       y       z     vdW  Elec       q    Type
REMARK                         _______ _______ _______ _____ _____    ______ ____
ROOT
ATOM      1  O   UNL     1       8.596   7.491  18.497  0.00  0.00    +0.000 OA
ATOM      2  C   UNL     1       7.830   8.230  17.885  0.00  0.00    +0.000 C 
ATOM      3  N   UNL     1       7.898   9.607  17.834  0.00  0.00    +0.000 N 
ATOM      4  N   UNL     1       6.753   7.706  17.194  0.00  0.00    +0.000 N 
ATOM      5  H   UNL     1       7.046  10.090  17.590  0.00  0.00    +0.000 HD
ATOM      6  H   UNL     1       6.326   8.278  16.479  0.00  0.00    +0.000 HD
ENDROOT
BRANCH   3   7
ATOM      7  C   UNL     1       8.915  10.376  18.465  0.00  0.00    +0.000 A 
ATOM      8  C   UNL     1       9.065  10.418  19.858  0.00  0.00    +0.000 A 
ATOM      9  C   UNL     1       9.997  11.247  20.489  0.00  0.00    +0.000 A 
ATOM     10  C   UNL     1      10.798  12.029  19.661  0.00  0.00    +0.000 A 
ATOM     11  N   UNL     1      11.760  12.960  19.951  0.00  0.00    +0.000 N 
ATOM     12  N   UNL     1      12.333  13.510  18.865  0.00  0.00    +0.000 NA
ATOM     13  C   UNL     1      11.699  12.917  17.848  0.00  0.00    +0.000 A 
ATOM     14  C   UNL     1      10.725  11.985  18.275  0.00  0.00    +0.000 A 
ATOM     15  C   UNL     1       9.782  11.132  17.658  0.00  0.00    +0.000 A 
ATOM     16  H   UNL     1      12.067  13.267  20.868  0.00  0.00    +0.000 HD
ENDBRANCH   3   7
BRANCH   4  17
ATOM     17  C   UNL     1       6.541   6.234  17.236  0.00  0.00    +0.000 C 
ATOM     18  C   UNL     1       5.793   5.674  18.457  0.00  0.00    +0.000 C 
ATOM     19  C   UNL     1       4.482   5.686  17.625  0.00  0.00    +0.000 C 
ATOM     20  C   UNL     1       5.376   5.733  16.358  0.00  0.00    +0.000 C 
BRANCH  19  21
ATOM     21  C   UNL     1       3.439   4.499  17.813  0.00  0.00    +0.000 A 
ATOM     22  C   UNL     1       3.866   3.156  17.863  0.00  0.00    +0.000 A 
ATOM     23  C   UNL     1       2.979   2.100  18.098  0.00  0.00    +0.000 A 
ATOM     24  C   UNL     1       1.625   2.355  18.283  0.00  0.00    +0.000 A 
ATOM     25  C   UNL     1       1.161   3.664  18.220  0.00  0.00    +0.000 A 
ATOM     26  C   UNL     1       2.057   4.714  17.988  0.00  0.00    +0.000 A 
ENDBRANCH  19  21
ENDBRANCH   4  17
TORSDOF 3
ENDMDL
MODEL 2
REMARK VINA RESULT:      -8.5      0.475      1.103
REMARK  Name = 
REMARK  3 active torsions:
REMARK  status: ('A' for Active; 'I' for Inactive)
REMARK    1  A    between atoms: N_3  and  C_4
REMARK    2  A    between atoms: N_13  and  C_14
REMARK    3  A    between atoms: C_16  and  C_17
REMARK                            x       y       z     vdW  Elec       q    Type
REMARK                         _______ _______ _______ _____ _____    ______ ____
ROOT
ATOM      1  O   UNL     1       8.630   7.698  18.762  0.00  0.00    +0.000 OA
ATOM      2  C   UNL     1       8.066   8.343  17.881  0.00  0.00    +0.000 C 
ATOM      3  N   UNL     1       8.184   9.701  17.668  0.00  0.00    +0.000 N 
ATOM      4  N   UNL     1       7.187   7.724  17.013  0.00  0.00    +0.000 N 
ATOM      5  H   UNL     1       7.438  10.141  17.152  0.00  0.00    +0.000 HD
ATOM      6  H   UNL     1       6.973   8.191  16.144  0.00  0.00    +0.000 HD
ENDROOT
BRANCH   3   7
ATOM      7  C   UNL     1       9.028  10.554  18.432  0.00  0.00    +0.000 A 
ATOM      8  C   UNL     1       9.138  10.446  19.824  0.00  0.00    +0.000 A 
ATOM      9  C   UNL     1       9.887  11.343  20.592  0.00  0.00    +0.000 A 
ATOM     10  C   UNL     1      10.548  12.355  19.901  0.00  0.00    +0.000 A 
ATOM     11  N   UNL     1      11.315  13.400  20.342  0.00  0.00    +0.000 N 
ATOM     12  N   UNL     1      11.800  14.178  19.358  0.00  0.00    +0.000 NA
ATOM     13  C   UNL     1      11.308  13.614  18.249  0.00  0.00    +0.000 A 
ATOM     14  C   UNL     1      10.514  12.475  18.517  0.00  0.00    +0.000 A 
ATOM     15  C   UNL     1       9.758  11.550  17.761  0.00  0.00    +0.000 A 
ATOM     16  H   UNL     1      11.541  13.639  21.302  0.00  0.00    +0.000 HD
ENDBRANCH   3   7
BRANCH   4  17
ATOM     17  C   UNL     1       6.930   6.269  17.193  0.00  0.00    +0.000 C 
ATOM     18  C   UNL     1       6.094   5.858  18.417  0.00  0.00    +0.000 C 
ATOM     19  C   UNL     1       4.836   5.813  17.508  0.00  0.00    +0.000 C 
ATOM     20  C   UNL     1       5.804   5.706  16.301  0.00  0.00    +0.000 C 
BRANCH  19  21
ATOM     21  C   UNL     1       3.749   4.677  17.753  0.00  0.00    +0.000 A 
ATOM     22  C   UNL     1       2.397   4.999  17.984  0.00  0.00    +0.000 A 
ATOM     23  C   UNL     1       1.410   4.019  18.132  0.00  0.00    +0.000 A 
ATOM     24  C   UNL     1       1.750   2.673  18.060  0.00  0.00    +0.000 A 
ATOM     25  C   UNL     1       3.077   2.312  17.855  0.00  0.00    +0.000 A 
ATOM     26  C   UNL     1       4.055   3.301  17.704  0.00  0.00    +0.000 A 
ENDBRANCH  19  21
ENDBRANCH   4  17
TORSDOF 3
ENDMDL
MODEL 3
REMARK VINA RESULT:      -8.4      1.420      1.557
REMARK  Name = 
REMARK  3 active torsions:
REMARK  status: ('A' for Active; 'I' for Inactive)
REMARK    1  A    between atoms: N_3  and  C_4
REMARK    2  A    between atoms: N_13  and  C_14
REMARK    3  A    between atoms: C_16  and  C_17
REMARK                            x       y       z     vdW  Elec       q    Type
REMARK                         _______ _______ _______ _____ _____    ______ ____
ROOT
ATOM      1  O   UNL     1       7.701   9.062  17.350  0.00  0.00    +0.000 OA
ATOM      2  C   UNL     1       8.267   8.490  18.279  0.00  0.00    +0.000 C 
ATOM      3  N   UNL     1       9.133   9.070  19.182  0.00  0.00    +0.000 N 
ATOM      4  N   UNL     1       8.097   7.132  18.472  0.00  0.00    +0.000 N 
ATOM      5  H   UNL     1       9.764   8.447  19.662  0.00  0.00    +0.000 HD
ATOM      6  H   UNL     1       8.320   6.753  19.381  0.00  0.00    +0.000 HD
ENDROOT
BRANCH   3   7
ATOM      7  C   UNL     1       9.467  10.453  19.187  0.00  0.00    +0.000 A 
ATOM      8  C   UNL     1       9.196  11.284  20.282  0.00  0.00    +0.000 A 
ATOM      9  C   UNL     1       9.430  12.662  20.257  0.00  0.00    +0.000 A 
ATOM     10  C   UNL     1       9.973  13.182  19.085  0.00  0.00    +0.000 A 
ATOM     11  N   UNL     1      10.278  14.466  18.721  0.00  0.00    +0.000 N 
ATOM     12  N   UNL     1      10.804  14.576  17.488  0.00  0.00    +0.000 NA
ATOM     13  C   UNL     1      10.818  13.314  17.046  0.00  0.00    +0.000 A 
ATOM     14  C   UNL     1      10.308  12.393  17.991  0.00  0.00    +0.000 A 
ATOM     15  C   UNL     1      10.071  11.001  18.043  0.00  0.00    +0.000 A 
ATOM     16  H   UNL     1      10.147  15.311  19.267  0.00  0.00    +0.000 HD
ENDBRANCH   3   7
BRANCH   4  17
ATOM     17  C   UNL     1       7.234   6.389  17.514  0.00  0.00    +0.000 C 
ATOM     18  C   UNL     1       7.142   4.865  17.702  0.00  0.00    +0.000 C 
ATOM     19  C   UNL     1       5.823   5.070  18.495  0.00  0.00    +0.000 C 
ATOM     20  C   UNL     1       5.725   6.465  17.824  0.00  0.00    +0.000 C 
BRANCH  19  21
ATOM     21  C   UNL     1       4.642   4.020  18.310  0.00  0.00    +0.000 A 
ATOM     22  C   UNL     1       4.405   3.014  19.270  0.00  0.00    +0.000 A 
ATOM     23  C   UNL     1       3.331   2.123  19.167  0.00  0.00    +0.000 A 
ATOM     24  C   UNL     1       2.459   2.206  18.088  0.00  0.00    +0.000 A 
ATOM     25  C   UNL     1       2.671   3.170  17.109  0.00  0.00    +0.000 A 
ATOM     26  C   UNL     1       3.746   4.058  17.223  0.00  0.00    +0.000 A 
ENDBRANCH  19  21
ENDBRANCH   4  17
TORSDOF 3
ENDMDL
MODEL 4
REMARK VINA RESULT:      -8.3      1.425      1.712
REMARK  Name = 
REMARK  3 active torsions:
REMARK  status: ('A' for Active; 'I' for Inactive)
REMARK    1  A    between atoms: N_3  and  C_4
REMARK    2  A    between atoms: N_13  and  C_14
REMARK    3  A    between atoms: C_16  and  C_17
REMARK                            x       y       z     vdW  Elec       q    Type
REMARK                         _______ _______ _______ _____ _____    ______ ____
ROOT
ATOM      1  O   UNL     1       7.707   9.037  17.354  0.00  0.00    +0.000 OA
ATOM      2  C   UNL     1       8.279   8.479  18.287  0.00  0.00    +0.000 C 
ATOM      3  N   UNL     1       9.145   9.075  19.181  0.00  0.00    +0.000 N 
ATOM      4  N   UNL     1       8.118   7.123  18.497  0.00  0.00    +0.000 N 
ATOM      5  H   UNL     1       9.782   8.461  19.666  0.00  0.00    +0.000 HD
ATOM      6  H   UNL     1       8.347   6.755  19.409  0.00  0.00    +0.000 HD
ENDROOT
BRANCH   3   7
ATOM      7  C   UNL     1       9.470  10.460  19.169  0.00  0.00    +0.000 A 
ATOM      8  C   UNL     1       9.156  11.311  20.236  0.00  0.00    +0.000 A 
ATOM      9  C   UNL     1       9.383  12.690  20.190  0.00  0.00    +0.000 A 
ATOM     10  C   UNL     1       9.964  13.189  19.027  0.00  0.00    +0.000 A 
ATOM     11  N   UNL     1      10.275  14.467  18.648  0.00  0.00    +0.000 N 
ATOM     12  N   UNL     1      10.844  14.555  17.432  0.00  0.00    +0.000 NA
ATOM     13  C   UNL     1      10.880  13.284  17.017  0.00  0.00    +0.000 A 
ATOM     14  C   UNL     1      10.342  12.380  17.962  0.00  0.00    +0.000 A 
ATOM     15  C   UNL     1      10.112  10.988  18.035  0.00  0.00    +0.000 A 
ATOM     16  H   UNL     1      10.119  15.323  19.171  0.00  0.00    +0.000 HD
ENDBRANCH   3   7
BRANCH   4  17
ATOM     17  C   UNL     1       7.256   6.363  17.551  0.00  0.00    +0.000 C 
ATOM     18  C   UNL     1       7.131   4.849  17.790  0.00  0.00    +0.000 C 
ATOM     19  C   UNL     1       5.804   5.107  18.553  0.00  0.00    +0.000 C 
ATOM     20  C   UNL     1       5.744   6.479  17.832  0.00  0.00    +0.000 C 
BRANCH  19  21
ATOM     21  C   UNL     1       4.605   4.074  18.385  0.00  0.00    +0.000 A 
ATOM     22  C   UNL     1       3.691   4.186  17.318  0.00  0.00    +0.000 A 
ATOM     23  C   UNL     1       2.672   3.251  17.106  0.00  0.00    +0.000 A 
ATOM     24  C   UNL     1       2.529   2.170  17.969  0.00  0.00    +0.000 A 
ATOM     25  C   UNL     1       3.397   2.035  19.046  0.00  0.00    +0.000 A 
ATOM     26  C   UNL     1       4.415   2.974  19.246  0.00  0.00    +0.000 A 
ENDBRANCH  19  21
ENDBRANCH   4  17
TORSDOF 3
ENDMDL
MODEL 5
REMARK VINA RESULT:      -8.1      1.382      2.103
REMARK  Name = 
REMARK  3 active torsions:
REMARK  status: ('A' for Active; 'I' for Inactive)
REMARK    1  A    between atoms: N_3  and  C_4
REMARK    2  A    between atoms: N_13  and  C_14
REMARK    3  A    between atoms: C_16  and  C_17
REMARK                            x       y       z     vdW  Elec       q    Type
REMARK                         _______ _______ _______ _____ _____    ______ ____
ROOT
ATOM      1  O   UNL     1       7.639   8.960  17.362  0.00  0.00    +0.000 OA
ATOM      2  C   UNL     1       8.228   8.402  18.284  0.00  0.00    +0.000 C 
ATOM      3  N   UNL     1       9.096   9.001  19.174  0.00  0.00    +0.000 N 
ATOM      4  N   UNL     1       8.087   7.042  18.484  0.00  0.00    +0.000 N 
ATOM      5  H   UNL     1       9.746   8.391  19.646  0.00  0.00    +0.000 HD
ATOM      6  H   UNL     1       8.330   6.669  19.391  0.00  0.00    +0.000 HD
ENDROOT
BRANCH   3   7
ATOM      7  C   UNL     1       9.404  10.390  19.170  0.00  0.00    +0.000 A 
ATOM      8  C   UNL     1       9.763  11.073  18.000  0.00  0.00    +0.000 A 
ATOM      9  C   UNL     1      10.163  12.413  18.005  0.00  0.00    +0.000 A 
ATOM     10  C   UNL     1      10.170  13.058  19.239  0.00  0.00    +0.000 A 
ATOM     11  N   UNL     1      10.540  14.328  19.593  0.00  0.00    +0.000 N 
ATOM     12  N   UNL     1      10.397  14.594  20.904  0.00  0.00    +0.000 NA
ATOM     13  C   UNL     1       9.934  13.444  21.403  0.00  0.00    +0.000 A 
ATOM     14  C   UNL     1       9.774  12.441  20.419  0.00  0.00    +0.000 A 
ATOM     15  C   UNL     1       9.364  11.089  20.388  0.00  0.00    +0.000 A 
ATOM     16  H   UNL     1      10.903  15.058  18.988  0.00  0.00    +0.000 HD
ENDBRANCH   3   7
BRANCH   4  17
ATOM     17  C   UNL     1       7.224   6.279  17.541  0.00  0.00    +0.000 C 
ATOM     18  C   UNL     1       7.086   4.768  17.795  0.00  0.00    +0.000 C 
ATOM     19  C   UNL     1       5.756   5.045  18.548  0.00  0.00    +0.000 C 
ATOM     20  C   UNL     1       5.712   6.410  17.812  0.00  0.00    +0.000 C 
BRANCH  19  21
ATOM     21  C   UNL     1       4.551   4.019  18.383  0.00  0.00    +0.000 A 
ATOM     22  C   UNL     1       3.658   4.113  17.296  0.00  0.00    +0.000 A 
ATOM     23  C   UNL     1       2.633   3.183  17.090  0.00  0.00    +0.000 A 
ATOM     24  C   UNL     1       2.463   2.126  17.976  0.00  0.00    +0.000 A 
ATOM     25  C   UNL     1       3.310   2.010  19.073  0.00  0.00    +0.000 A 
ATOM     26  C   UNL     1       4.334   2.943  19.268  0.00  0.00    +0.000 A 
ENDBRANCH  19  21
ENDBRANCH   4  17
TORSDOF 3
ENDMDL
MODEL 6
REMARK VINA RESULT:      -8.1      1.270      1.844
REMARK  Name = 
REMARK  3 active torsions:
REMARK  status: ('A' for Active; 'I' for Inactive)
REMARK    1  A    between atoms: N_3  and  C_4
REMARK    2  A    between atoms: N_13  and  C_14
REMARK    3  A    between atoms: C_16  and  C_17
REMARK                            x       y       z     vdW  Elec       q    Type
REMARK                         _______ _______ _______ _____ _____    ______ ____
ROOT
ATOM      1  O   UNL     1       7.563   8.933  17.287  0.00  0.00    +0.000 OA
ATOM      2  C   UNL     1       8.140   8.339  18.195  0.00  0.00    +0.000 C 
ATOM      3  N   UNL     1       9.036   8.893  19.086  0.00  0.00    +0.000 N 
ATOM      4  N   UNL     1       7.955   6.981  18.373  0.00  0.00    +0.000 N 
ATOM      5  H   UNL     1       9.669   8.254  19.543  0.00  0.00    +0.000 HD
ATOM      6  H   UNL     1       8.193   6.585  19.271  0.00  0.00    +0.000 HD
ENDROOT
BRANCH   3   7
ATOM      7  C   UNL     1       9.390  10.271  19.103  0.00  0.00    +0.000 A 
ATOM      8  C   UNL     1       9.794  10.953  17.947  0.00  0.00    +0.000 A 
ATOM      9  C   UNL     1      10.239  12.279  17.973  0.00  0.00    +0.000 A 
ATOM     10  C   UNL     1      10.244  12.911  19.214  0.00  0.00    +0.000 A 
ATOM     11  N   UNL     1      10.650  14.164  19.589  0.00  0.00    +0.000 N 
ATOM     12  N   UNL     1      10.491  14.422  20.899  0.00  0.00    +0.000 NA
ATOM     13  C   UNL     1       9.979  13.283  21.377  0.00  0.00    +0.000 A 
ATOM     14  C   UNL     1       9.804  12.296  20.380  0.00  0.00    +0.000 A 
ATOM     15  C   UNL     1       9.350  10.959  20.327  0.00  0.00    +0.000 A 
ATOM     16  H   UNL     1      11.049  14.887  18.999  0.00  0.00    +0.000 HD
ENDBRANCH   3   7
BRANCH   4  17
ATOM     17  C   UNL     1       7.060   6.264  17.425  0.00  0.00    +0.000 C 
ATOM     18  C   UNL     1       6.873   4.755  17.654  0.00  0.00    +0.000 C 
ATOM     19  C   UNL     1       5.560   5.061  18.424  0.00  0.00    +0.000 C 
ATOM     20  C   UNL     1       5.555   6.440  17.713  0.00  0.00    +0.000 C 
BRANCH  19  21
ATOM     21  C   UNL     1       4.320   4.079  18.254  0.00  0.00    +0.000 A 
ATOM     22  C   UNL     1       4.330   2.788  18.820  0.00  0.00    +0.000 A 
ATOM     23  C   UNL     1       3.226   1.932  18.745  0.00  0.00    +0.000 A 
ATOM     24  C   UNL     1       2.071   2.340  18.088  0.00  0.00    +0.000 A 
ATOM     25  C   UNL     1       2.029   3.598  17.497  0.00  0.00    +0.000 A 
ATOM     26  C   UNL     1       3.137   4.448  17.581  0.00  0.00    +0.000 A 
ENDBRANCH  19  21
ENDBRANCH   4  17
TORSDOF 3
ENDMDL
MODEL 7
REMARK VINA RESULT:      -8.0      1.395      1.917
REMARK  Name = 
REMARK  3 active torsions:
REMARK  status: ('A' for Active; 'I' for Inactive)
REMARK    1  A    between atoms: N_3  and  C_4
REMARK    2  A    between atoms: N_13  and  C_14
REMARK    3  A    between atoms: C_16  and  C_17
REMARK                            x       y       z     vdW  Elec       q    Type
REMARK                         _______ _______ _______ _____ _____    ______ ____
ROOT
ATOM      1  O   UNL     1       7.848   8.523  16.997  0.00  0.00    +0.000 OA
ATOM      2  C   UNL     1       8.263   8.338  18.138  0.00  0.00    +0.000 C 
ATOM      3  N   UNL     1       8.961   9.246  18.906  0.00  0.00    +0.000 N 
ATOM      4  N   UNL     1       8.084   7.115  18.758  0.00  0.00    +0.000 N 
ATOM      5  H   UNL     1       9.515   8.866  19.659  0.00  0.00    +0.000 HD
ATOM      6  H   UNL     1       8.161   7.079  19.765  0.00  0.00    +0.000 HD
ENDROOT
BRANCH   3   7
ATOM      7  C   UNL     1       9.269  10.570  18.487  0.00  0.00    +0.000 A 
ATOM      8  C   UNL     1       8.280  11.475  18.082  0.00  0.00    +0.000 A 
ATOM      9  C   UNL     1       8.582  12.743  17.575  0.00  0.00    +0.000 A 
ATOM     10  C   UNL     1       9.931  13.082  17.506  0.00  0.00    +0.000 A 
ATOM     11  N   UNL     1      10.558  14.203  17.031  0.00  0.00    +0.000 N 
ATOM     12  N   UNL     1      11.899  14.169  17.142  0.00  0.00    +0.000 NA
ATOM     13  C   UNL     1      12.131  12.973  17.694  0.00  0.00    +0.000 A 
ATOM     14  C   UNL     1      10.947  12.241  17.942  0.00  0.00    +0.000 A 
ATOM     15  C   UNL     1      10.617  10.969  18.460  0.00  0.00    +0.000 A 
ATOM     16  H   UNL     1      10.129  15.023  16.614  0.00  0.00    +0.000 HD
ENDBRANCH   3   7
BRANCH   4  17
ATOM     17  C   UNL     1       7.400   6.035  17.997  0.00  0.00    +0.000 C 
ATOM     18  C   UNL     1       6.754   4.908  18.820  0.00  0.00    +0.000 C 
ATOM     19  C   UNL     1       5.391   5.643  18.705  0.00  0.00    +0.000 C 
ATOM     20  C   UNL     1       5.990   6.404  17.493  0.00  0.00    +0.000 C 
BRANCH  19  21
ATOM     21  C   UNL     1       4.065   4.782  18.520  0.00  0.00    +0.000 A 
ATOM     22  C   UNL     1       2.879   5.116  19.204  0.00  0.00    +0.000 A 
ATOM     23  C   UNL     1       1.682   4.420  19.006  0.00  0.00    +0.000 A 
ATOM     24  C   UNL     1       1.636   3.352  18.116  0.00  0.00    +0.000 A 
ATOM     25  C   UNL     1       2.791   2.978  17.438  0.00  0.00    +0.000 A 
ATOM     26  C   UNL     1       3.982   3.683  17.641  0.00  0.00    +0.000 A 
ENDBRANCH  19  21
ENDBRANCH   4  17
TORSDOF 3
ENDMDL
MODEL 8
REMARK VINA RESULT:      -8.0      1.302      1.721
REMARK  Name = 
REMARK  3 active torsions:
REMARK  status: ('A' for Active; 'I' for Inactive)
REMARK    1  A    between atoms: N_3  and  C_4
REMARK    2  A    between atoms: N_13  and  C_14
REMARK    3  A    between atoms: C_16  and  C_17
REMARK                            x       y       z     vdW  Elec       q    Type
REMARK                         _______ _______ _______ _____ _____    ______ ____
ROOT
ATOM      1  O   UNL     1       7.907   8.802  17.068  0.00  0.00    +0.000 OA
ATOM      2  C   UNL     1       8.296   8.423  18.170  0.00  0.00    +0.000 C 
ATOM      3  N   UNL     1       9.002   9.176  19.085  0.00  0.00    +0.000 N 
ATOM      4  N   UNL     1       8.074   7.122  18.582  0.00  0.00    +0.000 N 
ATOM      5  H   UNL     1       9.532   8.664  19.774  0.00  0.00    +0.000 HD
ATOM      6  H   UNL     1       8.132   6.922  19.570  0.00  0.00    +0.000 HD
ENDROOT
BRANCH   3   7
ATOM      7  C   UNL     1       9.351  10.541  18.889  0.00  0.00    +0.000 A 
ATOM      8  C   UNL     1       8.668  11.365  17.986  0.00  0.00    +0.000 A 
ATOM      9  C   UNL     1       9.067  12.678  17.715  0.00  0.00    +0.000 A 
ATOM     10  C   UNL     1      10.179  13.148  18.409  0.00  0.00    +0.000 A 
ATOM     11  N   UNL     1      10.843  14.344  18.350  0.00  0.00    +0.000 N 
ATOM     12  N   UNL     1      11.888  14.433  19.193  0.00  0.00    +0.000 NA
ATOM     13  C   UNL     1      11.896  13.241  19.799  0.00  0.00    +0.000 A 
ATOM     14  C   UNL     1      10.860  12.388  19.353  0.00  0.00    +0.000 A 
ATOM     15  C   UNL     1      10.432  11.067  19.617  0.00  0.00    +0.000 A 
ATOM     16  H   UNL     1      10.636  15.137  17.752  0.00  0.00    +0.000 HD
ENDBRANCH   3   7
BRANCH   4  17
ATOM     17  C   UNL     1       7.378   6.198  17.645  0.00  0.00    +0.000 C 
ATOM     18  C   UNL     1       7.183   4.748  18.119  0.00  0.00    +0.000 C 
ATOM     19  C   UNL     1       5.747   5.120  18.578  0.00  0.00    +0.000 C 
ATOM     20  C   UNL     1       5.843   6.345  17.630  0.00  0.00    +0.000 C 
BRANCH  19  21
ATOM     21  C   UNL     1       4.577   4.060  18.384  0.00  0.00    +0.000 A 
ATOM     22  C   UNL     1       4.362   3.031  19.323  0.00  0.00    +0.000 A 
ATOM     23  C   UNL     1       3.298   2.130  19.213  0.00  0.00    +0.000 A 
ATOM     24  C   UNL     1       2.413   2.224  18.146  0.00  0.00    +0.000 A 
ATOM     25  C   UNL     1       2.603   3.212  17.186  0.00  0.00    +0.000 A 
ATOM     26  C   UNL     1       3.668   4.111  17.308  0.00  0.00    +0.000 A 
ENDBRANCH  19  21
ENDBRANCH   4  17
TORSDOF 3
ENDMDL
MODEL 9
REMARK VINA RESULT:      -7.7      2.214     10.209
REMARK  Name = 
REMARK  3 active torsions:
REMARK  status: ('A' for Active; 'I' for Inactive)
REMARK    1  A    between atoms: N_3  and  C_4
REMARK    2  A    between atoms: N_13  and  C_14
REMARK    3  A    between atoms: C_16  and  C_17
REMARK                            x       y       z     vdW  Elec       q    Type
REMARK                         _______ _______ _______ _____ _____    ______ ____
ROOT
ATOM      1  O   UNL     1       8.646   8.002  18.810  0.00  0.00    +0.000 OA
ATOM      2  C   UNL     1       8.062   8.644  17.941  0.00  0.00    +0.000 C 
ATOM      3  N   UNL     1       7.094   8.159  17.086  0.00  0.00    +0.000 N 
ATOM      4  N   UNL     1       8.381   9.970  17.715  0.00  0.00    +0.000 N 
ATOM      5  H   UNL     1       6.948   8.676  16.232  0.00  0.00    +0.000 HD
ATOM      6  H   UNL     1       7.710  10.541  17.222  0.00  0.00    +0.000 HD
ENDROOT
BRANCH   3   7
ATOM      7  C   UNL     1       6.598   6.826  17.123  0.00  0.00    +0.000 A 
ATOM      8  C   UNL     1       7.404   5.720  16.825  0.00  0.00    +0.000 A 
ATOM      9  C   UNL     1       6.900   4.416  16.762  0.00  0.00    +0.000 A 
ATOM     10  C   UNL     1       5.543   4.258  17.032  0.00  0.00    +0.000 A 
ATOM     11  N   UNL     1       4.741   3.149  17.015  0.00  0.00    +0.000 N 
ATOM     12  N   UNL     1       3.461   3.393  17.347  0.00  0.00    +0.000 NA
ATOM     13  C   UNL     1       3.447   4.712  17.567  0.00  0.00    +0.000 A 
ATOM     14  C   UNL     1       4.713   5.315  17.383  0.00  0.00    +0.000 A 
ATOM     15  C   UNL     1       5.246   6.622  17.450  0.00  0.00    +0.000 A 
ATOM     16  H   UNL     1       5.006   2.197  16.781  0.00  0.00    +0.000 HD
ENDBRANCH   3   7
BRANCH   4  17
ATOM     17  C   UNL     1       9.462  10.581  18.536  0.00  0.00    +0.000 C 
ATOM     18  C   UNL     1      10.632  11.224  17.773  0.00  0.00    +0.000 C 
ATOM     19  C   UNL     1       9.940  12.605  17.930  0.00  0.00    +0.000 C 
ATOM     20  C   UNL     1       9.125  11.980  19.092  0.00  0.00    +0.000 C 
BRANCH  19  21
ATOM     21  C   UNL     1      10.839  13.891  18.197  0.00  0.00    +0.000 A 
ATOM     22  C   UNL     1      11.241  14.731  17.139  0.00  0.00    +0.000 A 
ATOM     23  C   UNL     1      11.972  15.905  17.354  0.00  0.00    +0.000 A 
ATOM     24  C   UNL     1      12.332  16.273  18.645  0.00  0.00    +0.000 A 
ATOM     25  C   UNL     1      11.973  15.460  19.714  0.00  0.00    +0.000 A 
ATOM     26  C   UNL     1      11.239  14.291  19.488  0.00  0.00    +0.000 A 
ENDBRANCH  19  21
ENDBRANCH   4  17
TORSDOF 3
ENDMDL
