MODEL 1
REMARK VINA RESULT:      -8.5      0.000      0.000
REMARK  Name = 
REMARK  4 active torsions:
REMARK  status: ('A' for Active; 'I' for Inactive)
REMARK    1  A    between atoms: C_2  and  C_3
REMARK    2  A    between atoms: C_3  and  C_4
REMARK    3  A    between atoms: N_13  and  C_14
REMARK    4  A    between atoms: C_17  and  N_18
REMARK                            x       y       z     vdW  Elec       q    Type
REMARK                         _______ _______ _______ _____ _____    ______ ____
ROOT
ATOM      1  C   UNL     1       0.817   9.372  19.511  0.00  0.00    +0.000 A 
ATOM      2  C   UNL     1       0.370  10.104  18.413  0.00  0.00    +0.000 A 
ATOM      3  C   UNL     1      -0.472  11.203  18.573  0.00  0.00    +0.000 A 
ATOM      4  C   UNL     1      -0.964  11.581  19.824  0.00  0.00    +0.000 A 
ATOM      5  C   UNL     1      -0.559  10.782  20.963  0.00  0.00    +0.000 A 
ATOM      6  C   UNL     1      -0.969  11.044  22.287  0.00  0.00    +0.000 A 
ATOM      7  C   UNL     1      -0.593  10.280  23.366  0.00  0.00    +0.000 A 
ATOM      8  N   UNL     1       0.237   9.246  23.244  0.00  0.00    +0.000 NA
ATOM      9  C   UNL     1       0.675   9.004  21.992  0.00  0.00    +0.000 A 
ATOM     10  C   UNL     1       0.328   9.693  20.800  0.00  0.00    +0.000 A 
ENDROOT
BRANCH   4  11
ATOM     11  N   UNL     1      -1.815  12.683  19.926  0.00  0.00    +0.000 N 
ATOM     12  C   UNL     1      -1.317  14.064  19.951  0.00  0.00    +0.000 C 
ATOM     13  C   UNL     1      -1.981  14.812  21.115  0.00  0.00    +0.000 C 
ATOM     14  C   UNL     1      -3.503  14.624  21.153  0.00  0.00    +0.000 C 
ATOM     15  C   UNL     1      -3.918  13.167  20.971  0.00  0.00    +0.000 C 
ATOM     16  C   UNL     1      -3.248  12.569  19.732  0.00  0.00    +0.000 C 
ENDBRANCH   4  11
BRANCH   1  19
ATOM     17  O   UNL     1       2.496   8.699  17.194  0.00  0.00    +0.000 OA
ATOM     18  C   UNL     1       2.482   8.017  18.220  0.00  0.00    +0.000 C 
ATOM     19  N   UNL     1       1.759   8.318  19.357  0.00  0.00    +0.000 N 
ATOM     20  H   UNL     1       2.045   7.828  20.197  0.00  0.00    +0.000 HD
BRANCH  18  21
ATOM     21  C   UNL     1       3.264   6.713  18.233  0.00  0.00    +0.000 C 
BRANCH  21  22
ATOM     22  C   UNL     1       2.443   5.485  18.383  0.00  0.00    +0.000 A 
ATOM     23  N   UNL     1       1.815   4.977  17.311  0.00  0.00    +0.000 NA
ATOM     24  O   UNL     1       1.157   3.848  17.758  0.00  0.00    +0.000 OA
ATOM     25  C   UNL     1       1.402   3.673  19.082  0.00  0.00    +0.000 A 
ATOM     26  C   UNL     1       0.923   2.634  19.871  0.00  0.00    +0.000 A 
ATOM     27  C   UNL     1       1.326   2.639  21.210  0.00  0.00    +0.000 A 
ATOM     28  C   UNL     1       2.143   3.654  21.715  0.00  0.00    +0.000 A 
ATOM     29  C   UNL     1       2.592   4.702  20.895  0.00  0.00    +0.000 A 
ATOM     30  C   UNL     1       2.216   4.696  19.540  0.00  0.00    +0.000 A 
ENDBRANCH  21  22
ENDBRANCH  18  21
ENDBRANCH   1  19
TORSDOF 4
ENDMDL
MODEL 2
REMARK VINA RESULT:      -8.4      2.835      8.923
REMARK  Name = 
REMARK  4 active torsions:
REMARK  status: ('A' for Active; 'I' for Inactive)
REMARK    1  A    between atoms: C_2  and  C_3
REMARK    2  A    between atoms: C_3  and  C_4
REMARK    3  A    between atoms: N_13  and  C_14
REMARK    4  A    between atoms: C_17  and  N_18
REMARK                            x       y       z     vdW  Elec       q    Type
REMARK                         _______ _______ _______ _____ _____    ______ ____
ROOT
ATOM      1  C   UNL     1       2.018   6.769  19.667  0.00  0.00    +0.000 A 
ATOM      2  C   UNL     1       2.713   7.407  18.641  0.00  0.00    +0.000 A 
ATOM      3  C   UNL     1       3.686   6.735  17.904  0.00  0.00    +0.000 A 
ATOM      4  C   UNL     1       4.061   5.423  18.198  0.00  0.00    +0.000 A 
ATOM      5  C   UNL     1       3.390   4.776  19.308  0.00  0.00    +0.000 A 
ATOM      6  C   UNL     1       3.658   3.454  19.719  0.00  0.00    +0.000 A 
ATOM      7  C   UNL     1       3.031   2.844  20.779  0.00  0.00    +0.000 A 
ATOM      8  N   UNL     1       2.075   3.452  21.478  0.00  0.00    +0.000 NA
ATOM      9  C   UNL     1       1.773   4.703  21.074  0.00  0.00    +0.000 A 
ATOM     10  C   UNL     1       2.376   5.448  20.027  0.00  0.00    +0.000 A 
ENDROOT
BRANCH   4  11
ATOM     11  N   UNL     1       5.051   4.801  17.434  0.00  0.00    +0.000 N 
ATOM     12  C   UNL     1       6.449   4.714  17.876  0.00  0.00    +0.000 C 
ATOM     13  C   UNL     1       7.363   5.155  16.726  0.00  0.00    +0.000 C 
ATOM     14  C   UNL     1       7.014   4.479  15.394  0.00  0.00    +0.000 C 
ATOM     15  C   UNL     1       5.517   4.496  15.102  0.00  0.00    +0.000 C 
ATOM     16  C   UNL     1       4.731   3.956  16.300  0.00  0.00    +0.000 C 
ENDBRANCH   4  11
BRANCH   1  19
ATOM     17  O   UNL     1       2.131   8.788  21.802  0.00  0.00    +0.000 OA
ATOM     18  C   UNL     1       1.068   8.326  21.386  0.00  0.00    +0.000 C 
ATOM     19  N   UNL     1       0.953   7.421  20.348  0.00  0.00    +0.000 N 
ATOM     20  H   UNL     1       0.027   7.337  19.946  0.00  0.00    +0.000 HD
BRANCH  18  21
ATOM     21  C   UNL     1      -0.218   8.721  22.093  0.00  0.00    +0.000 C 
BRANCH  21  22
ATOM     22  C   UNL     1      -0.473  10.182  22.173  0.00  0.00    +0.000 A 
ATOM     23  N   UNL     1      -0.501  10.781  23.374  0.00  0.00    +0.000 NA
ATOM     24  O   UNL     1      -0.740  12.118  23.124  0.00  0.00    +0.000 OA
ATOM     25  C   UNL     1      -0.840  12.319  21.785  0.00  0.00    +0.000 A 
ATOM     26  C   UNL     1      -1.061  13.540  21.157  0.00  0.00    +0.000 A 
ATOM     27  C   UNL     1      -1.101  13.516  19.760  0.00  0.00    +0.000 A 
ATOM     28  C   UNL     1      -0.952  12.320  19.052  0.00  0.00    +0.000 A 
ATOM     29  C   UNL     1      -0.753  11.101  19.719  0.00  0.00    +0.000 A 
ATOM     30  C   UNL     1      -0.684  11.112  21.124  0.00  0.00    +0.000 A 
ENDBRANCH  21  22
ENDBRANCH  18  21
ENDBRANCH   1  19
TORSDOF 4
ENDMDL
MODEL 3
REMARK VINA RESULT:      -8.4      8.076      9.423
REMARK  Name = 
REMARK  4 active torsions:
REMARK  status: ('A' for Active; 'I' for Inactive)
REMARK    1  A    between atoms: C_2  and  C_3
REMARK    2  A    between atoms: C_3  and  C_4
REMARK    3  A    between atoms: N_13  and  C_14
REMARK    4  A    between atoms: C_17  and  N_18
REMARK                            x       y       z     vdW  Elec       q    Type
REMARK                         _______ _______ _______ _____ _____    ______ ____
ROOT
ATOM      1  C   UNL     1       9.590  10.877  18.948  0.00  0.00    +0.000 A 
ATOM      2  C   UNL     1      10.026  11.492  17.775  0.00  0.00    +0.000 A 
ATOM      3  C   UNL     1      10.370  12.842  17.754  0.00  0.00    +0.000 A 
ATOM      4  C   UNL     1      10.228  13.659  18.878  0.00  0.00    +0.000 A 
ATOM      5  C   UNL     1       9.710  13.042  20.082  0.00  0.00    +0.000 A 
ATOM      6  C   UNL     1       9.517  13.736  21.295  0.00  0.00    +0.000 A 
ATOM      7  C   UNL     1       9.014  13.154  22.434  0.00  0.00    +0.000 A 
ATOM      8  N   UNL     1       8.711  11.860  22.490  0.00  0.00    +0.000 NA
ATOM      9  C   UNL     1       8.927  11.167  21.354  0.00  0.00    +0.000 A 
ATOM     10  C   UNL     1       9.401  11.663  20.110  0.00  0.00    +0.000 A 
ENDROOT
BRANCH   4  11
ATOM     11  N   UNL     1      10.576  15.008  18.798  0.00  0.00    +0.000 N 
ATOM     12  C   UNL     1       9.572  16.081  18.768  0.00  0.00    +0.000 C 
ATOM     13  C   UNL     1       9.906  17.044  17.622  0.00  0.00    +0.000 C 
ATOM     14  C   UNL     1      11.378  17.473  17.615  0.00  0.00    +0.000 C 
ATOM     15  C   UNL     1      12.333  16.298  17.799  0.00  0.00    +0.000 C 
ATOM     16  C   UNL     1      11.932  15.468  19.021  0.00  0.00    +0.000 C 
ENDBRANCH   4  11
BRANCH   1  19
ATOM     17  O   UNL     1       7.586   9.292  17.493  0.00  0.00    +0.000 OA
ATOM     18  C   UNL     1       8.345   8.794  18.326  0.00  0.00    +0.000 C 
ATOM     19  N   UNL     1       9.340   9.478  18.995  0.00  0.00    +0.000 N 
ATOM     20  H   UNL     1      10.043   8.899  19.438  0.00  0.00    +0.000 HD
BRANCH  18  21
ATOM     21  C   UNL     1       8.146   7.335  18.704  0.00  0.00    +0.000 C 
BRANCH  21  22
ATOM     22  C   UNL     1       7.328   6.541  17.752  0.00  0.00    +0.000 A 
ATOM     23  N   UNL     1       7.598   6.605  16.439  0.00  0.00    +0.000 NA
ATOM     24  O   UNL     1       6.694   5.761  15.825  0.00  0.00    +0.000 OA
ATOM     25  C   UNL     1       5.900   5.185  16.764  0.00  0.00    +0.000 A 
ATOM     26  C   UNL     1       4.886   4.265  16.523  0.00  0.00    +0.000 A 
ATOM     27  C   UNL     1       4.211   3.782  17.648  0.00  0.00    +0.000 A 
ATOM     28  C   UNL     1       4.535   4.229  18.932  0.00  0.00    +0.000 A 
ATOM     29  C   UNL     1       5.551   5.176  19.138  0.00  0.00    +0.000 A 
ATOM     30  C   UNL     1       6.256   5.652  18.019  0.00  0.00    +0.000 A 
ENDBRANCH  21  22
ENDBRANCH  18  21
ENDBRANCH   1  19
TORSDOF 4
ENDMDL
MODEL 4
REMARK VINA RESULT:      -8.4      8.067      9.337
REMARK  Name = 
REMARK  4 active torsions:
REMARK  status: ('A' for Active; 'I' for Inactive)
REMARK    1  A    between atoms: C_2  and  C_3
REMARK    2  A    between atoms: C_3  and  C_4
REMARK    3  A    between atoms: N_13  and  C_14
REMARK    4  A    between atoms: C_17  and  N_18
REMARK                            x       y       z     vdW  Elec       q    Type
REMARK                         _______ _______ _______ _____ _____    ______ ____
ROOT
ATOM      1  C   UNL     1       9.666  10.822  18.996  0.00  0.00    +0.000 A 
ATOM      2  C   UNL     1      10.181  11.455  17.865  0.00  0.00    +0.000 A 
ATOM      3  C   UNL     1      10.543  12.800  17.895  0.00  0.00    +0.000 A 
ATOM      4  C   UNL     1      10.345  13.594  19.026  0.00  0.00    +0.000 A 
ATOM      5  C   UNL     1       9.746  12.960  20.183  0.00  0.00    +0.000 A 
ATOM      6  C   UNL     1       9.491  13.631  21.397  0.00  0.00    +0.000 A 
ATOM      7  C   UNL     1       8.913  13.032  22.491  0.00  0.00    +0.000 A 
ATOM      8  N   UNL     1       8.589  11.741  22.500  0.00  0.00    +0.000 NA
ATOM      9  C   UNL     1       8.864  11.070  21.364  0.00  0.00    +0.000 A 
ATOM     10  C   UNL     1       9.418  11.585  20.161  0.00  0.00    +0.000 A 
ENDROOT
BRANCH   4  11
ATOM     11  N   UNL     1      10.714  14.940  18.997  0.00  0.00    +0.000 N 
ATOM     12  C   UNL     1      12.102  15.382  19.190  0.00  0.00    +0.000 C 
ATOM     13  C   UNL     1      12.124  16.518  20.220  0.00  0.00    +0.000 C 
ATOM     14  C   UNL     1      11.085  17.608  19.927  0.00  0.00    +0.000 C 
ATOM     15  C   UNL     1       9.711  17.034  19.594  0.00  0.00    +0.000 C 
ATOM     16  C   UNL     1       9.825  15.972  18.499  0.00  0.00    +0.000 C 
ENDBRANCH   4  11
BRANCH   1  19
ATOM     17  O   UNL     1       7.577   9.328  17.566  0.00  0.00    +0.000 OA
ATOM     18  C   UNL     1       8.361   8.784  18.345  0.00  0.00    +0.000 C 
ATOM     19  N   UNL     1       9.396   9.425  18.997  0.00  0.00    +0.000 N 
ATOM     20  H   UNL     1      10.107   8.818  19.386  0.00  0.00    +0.000 HD
BRANCH  18  21
ATOM     21  C   UNL     1       8.154   7.314  18.671  0.00  0.00    +0.000 C 
BRANCH  21  22
ATOM     22  C   UNL     1       7.315   6.563  17.704  0.00  0.00    +0.000 A 
ATOM     23  N   UNL     1       7.601   6.629  16.394  0.00  0.00    +0.000 NA
ATOM     24  O   UNL     1       6.670   5.828  15.763  0.00  0.00    +0.000 OA
ATOM     25  C   UNL     1       5.843   5.276  16.688  0.00  0.00    +0.000 A 
ATOM     26  C   UNL     1       4.795   4.402  16.428  0.00  0.00    +0.000 A 
ATOM     27  C   UNL     1       4.089   3.936  17.542  0.00  0.00    +0.000 A 
ATOM     28  C   UNL     1       4.417   4.357  18.833  0.00  0.00    +0.000 A 
ATOM     29  C   UNL     1       5.469   5.259  19.059  0.00  0.00    +0.000 A 
ATOM     30  C   UNL     1       6.204   5.717  17.951  0.00  0.00    +0.000 A 
ENDBRANCH  21  22
ENDBRANCH  18  21
ENDBRANCH   1  19
TORSDOF 4
ENDMDL
MODEL 5
REMARK VINA RESULT:      -8.4      2.850      8.651
REMARK  Name = 
REMARK  4 active torsions:
REMARK  status: ('A' for Active; 'I' for Inactive)
REMARK    1  A    between atoms: C_2  and  C_3
REMARK    2  A    between atoms: C_3  and  C_4
REMARK    3  A    between atoms: N_13  and  C_14
REMARK    4  A    between atoms: C_17  and  N_18
REMARK                            x       y       z     vdW  Elec       q    Type
REMARK                         _______ _______ _______ _____ _____    ______ ____
ROOT
ATOM      1  C   UNL     1       2.217   7.608  18.993  0.00  0.00    +0.000 A 
ATOM      2  C   UNL     1       2.970   8.063  17.911  0.00  0.00    +0.000 A 
ATOM      3  C   UNL     1       3.859   7.221  17.248  0.00  0.00    +0.000 A 
ATOM      4  C   UNL     1       4.093   5.911  17.671  0.00  0.00    +0.000 A 
ATOM      5  C   UNL     1       3.364   5.452  18.837  0.00  0.00    +0.000 A 
ATOM      6  C   UNL     1       3.490   4.156  19.377  0.00  0.00    +0.000 A 
ATOM      7  C   UNL     1       2.807   3.725  20.490  0.00  0.00    +0.000 A 
ATOM      8  N   UNL     1       1.927   4.498  21.121  0.00  0.00    +0.000 NA
ATOM      9  C   UNL     1       1.760   5.729  20.596  0.00  0.00    +0.000 A 
ATOM     10  C   UNL     1       2.433   6.298  19.482  0.00  0.00    +0.000 A 
ENDROOT
BRANCH   4  11
ATOM     11  N   UNL     1       5.004   5.113  16.976  0.00  0.00    +0.000 N 
ATOM     12  C   UNL     1       6.353   4.832  17.485  0.00  0.00    +0.000 C 
ATOM     13  C   UNL     1       7.370   5.080  16.363  0.00  0.00    +0.000 C 
ATOM     14  C   UNL     1       6.975   4.410  15.042  0.00  0.00    +0.000 C 
ATOM     15  C   UNL     1       5.511   4.644  14.681  0.00  0.00    +0.000 C 
ATOM     16  C   UNL     1       4.603   4.281  15.859  0.00  0.00    +0.000 C 
ENDBRANCH   4  11
BRANCH   1  19
ATOM     17  O   UNL     1       1.647  10.459  18.553  0.00  0.00    +0.000 OA
ATOM     18  C   UNL     1       1.048   9.788  19.394  0.00  0.00    +0.000 C 
ATOM     19  N   UNL     1       1.233   8.435  19.602  0.00  0.00    +0.000 N 
ATOM     20  H   UNL     1       0.501   7.972  20.126  0.00  0.00    +0.000 HD
BRANCH  18  21
ATOM     21  C   UNL     1       0.073  10.495  20.322  0.00  0.00    +0.000 C 
BRANCH  21  22
ATOM     22  C   UNL     1      -1.140  11.044  19.665  0.00  0.00    +0.000 A 
ATOM     23  N   UNL     1      -1.792  12.069  20.237  0.00  0.00    +0.000 NA
ATOM     24  O   UNL     1      -2.849  12.361  19.398  0.00  0.00    +0.000 OA
ATOM     25  C   UNL     1      -2.821  11.528  18.325  0.00  0.00    +0.000 A 
ATOM     26  C   UNL     1      -3.717  11.536  17.262  0.00  0.00    +0.000 A 
ATOM     27  C   UNL     1      -3.480  10.601  16.249  0.00  0.00    +0.000 A 
ATOM     28  C   UNL     1      -2.414   9.701  16.331  0.00  0.00    +0.000 A 
ATOM     29  C   UNL     1      -1.541   9.706  17.431  0.00  0.00    +0.000 A 
ATOM     30  C   UNL     1      -1.751  10.657  18.445  0.00  0.00    +0.000 A 
ENDBRANCH  21  22
ENDBRANCH  18  21
ENDBRANCH   1  19
TORSDOF 4
ENDMDL
MODEL 6
REMARK VINA RESULT:      -8.4      2.008      3.055
REMARK  Name = 
REMARK  4 active torsions:
REMARK  status: ('A' for Active; 'I' for Inactive)
REMARK    1  A    between atoms: C_2  and  C_3
REMARK    2  A    between atoms: C_3  and  C_4
REMARK    3  A    between atoms: N_13  and  C_14
REMARK    4  A    between atoms: C_17  and  N_18
REMARK                            x       y       z     vdW  Elec       q    Type
REMARK                         _______ _______ _______ _____ _____    ______ ____
ROOT
ATOM      1  C   UNL     1       0.600  10.052  19.059  0.00  0.00    +0.000 A 
ATOM      2  C   UNL     1       1.064  10.640  20.235  0.00  0.00    +0.000 A 
ATOM      3  C   UNL     1       0.251  11.485  20.987  0.00  0.00    +0.000 A 
ATOM      4  C   UNL     1      -1.033  11.840  20.570  0.00  0.00    +0.000 A 
ATOM      5  C   UNL     1      -1.497  11.288  19.313  0.00  0.00    +0.000 A 
ATOM      6  C   UNL     1      -2.770  11.551  18.766  0.00  0.00    +0.000 A 
ATOM      7  C   UNL     1      -3.206  11.037  17.568  0.00  0.00    +0.000 A 
ATOM      8  N   UNL     1      -2.462  10.200  16.848  0.00  0.00    +0.000 NA
ATOM      9  C   UNL     1      -1.257   9.901  17.373  0.00  0.00    +0.000 A 
ATOM     10  C   UNL     1      -0.684  10.399  18.574  0.00  0.00    +0.000 A 
ENDROOT
BRANCH   4  11
ATOM     11  N   UNL     1      -1.800  12.702  21.357  0.00  0.00    +0.000 N 
ATOM     12  C   UNL     1      -2.465  12.261  22.591  0.00  0.00    +0.000 C 
ATOM     13  C   UNL     1      -3.924  12.734  22.567  0.00  0.00    +0.000 C 
ATOM     14  C   UNL     1      -4.064  14.216  22.196  0.00  0.00    +0.000 C 
ATOM     15  C   UNL     1      -3.217  14.600  20.987  0.00  0.00    +0.000 C 
ATOM     16  C   UNL     1      -1.769  14.140  21.178  0.00  0.00    +0.000 C 
ENDBRANCH   4  11
BRANCH   1  19
ATOM     17  O   UNL     1       1.961   7.642  20.048  0.00  0.00    +0.000 OA
ATOM     18  C   UNL     1       2.053   8.019  18.879  0.00  0.00    +0.000 C 
ATOM     19  N   UNL     1       1.390   9.108  18.348  0.00  0.00    +0.000 N 
ATOM     20  H   UNL     1       1.349   9.140  17.336  0.00  0.00    +0.000 HD
BRANCH  18  21
ATOM     21  C   UNL     1       3.008   7.282  17.954  0.00  0.00    +0.000 C 
BRANCH  21  22
ATOM     22  C   UNL     1       3.468   5.958  18.444  0.00  0.00    +0.000 A 
ATOM     23  N   UNL     1       4.709   5.834  18.940  0.00  0.00    +0.000 NA
ATOM     24  O   UNL     1       4.834   4.512  19.320  0.00  0.00    +0.000 OA
ATOM     25  C   UNL     1       3.673   3.855  19.066  0.00  0.00    +0.000 A 
ATOM     26  C   UNL     1       3.420   2.514  19.332  0.00  0.00    +0.000 A 
ATOM     27  C   UNL     1       2.139   2.053  19.011  0.00  0.00    +0.000 A 
ATOM     28  C   UNL     1       1.190   2.900  18.432  0.00  0.00    +0.000 A 
ATOM     29  C   UNL     1       1.487   4.245  18.157  0.00  0.00    +0.000 A 
ATOM     30  C   UNL     1       2.762   4.730  18.498  0.00  0.00    +0.000 A 
ENDBRANCH  21  22
ENDBRANCH  18  21
ENDBRANCH   1  19
TORSDOF 4
ENDMDL
MODEL 7
REMARK VINA RESULT:      -8.3      1.090      1.476
REMARK  Name = 
REMARK  4 active torsions:
REMARK  status: ('A' for Active; 'I' for Inactive)
REMARK    1  A    between atoms: C_2  and  C_3
REMARK    2  A    between atoms: C_3  and  C_4
REMARK    3  A    between atoms: N_13  and  C_14
REMARK    4  A    between atoms: C_17  and  N_18
REMARK                            x       y       z     vdW  Elec       q    Type
REMARK                         _______ _______ _______ _____ _____    ______ ____
ROOT
ATOM      1  C   UNL     1       0.620   9.636  19.557  0.00  0.00    +0.000 A 
ATOM      2  C   UNL     1       0.090  10.332  18.472  0.00  0.00    +0.000 A 
ATOM      3  C   UNL     1      -0.802  11.386  18.658  0.00  0.00    +0.000 A 
ATOM      4  C   UNL     1      -1.262  11.750  19.925  0.00  0.00    +0.000 A 
ATOM      5  C   UNL     1      -0.769  10.985  21.053  0.00  0.00    +0.000 A 
ATOM      6  C   UNL     1      -1.139  11.238  22.390  0.00  0.00    +0.000 A 
ATOM      7  C   UNL     1      -0.680  10.505  23.459  0.00  0.00    +0.000 A 
ATOM      8  N   UNL     1       0.199   9.516  23.311  0.00  0.00    +0.000 NA
ATOM      9  C   UNL     1       0.598   9.285  22.044  0.00  0.00    +0.000 A 
ATOM     10  C   UNL     1       0.167   9.943  20.862  0.00  0.00    +0.000 A 
ENDROOT
BRANCH   4  11
ATOM     11  N   UNL     1      -2.166  12.806  20.054  0.00  0.00    +0.000 N 
ATOM     12  C   UNL     1      -1.733  14.194  20.258  0.00  0.00    +0.000 C 
ATOM     13  C   UNL     1      -2.529  14.799  21.421  0.00  0.00    +0.000 C 
ATOM     14  C   UNL     1      -4.038  14.556  21.300  0.00  0.00    +0.000 C 
ATOM     15  C   UNL     1      -4.372  13.111  20.941  0.00  0.00    +0.000 C 
ATOM     16  C   UNL     1      -3.569  12.663  19.717  0.00  0.00    +0.000 C 
ENDBRANCH   4  11
BRANCH   1  19
ATOM     17  O   UNL     1       2.162   8.961  17.147  0.00  0.00    +0.000 OA
ATOM     18  C   UNL     1       2.265   8.324  18.196  0.00  0.00    +0.000 C 
ATOM     19  N   UNL     1       1.610   8.631  19.372  0.00  0.00    +0.000 N 
ATOM     20  H   UNL     1       1.985   8.195  20.206  0.00  0.00    +0.000 HD
BRANCH  18  21
ATOM     21  C   UNL     1       3.122   7.068  18.199  0.00  0.00    +0.000 C 
BRANCH  21  22
ATOM     22  C   UNL     1       2.609   5.954  19.036  0.00  0.00    +0.000 A 
ATOM     23  N   UNL     1       2.202   6.205  20.290  0.00  0.00    +0.000 NA
ATOM     24  O   UNL     1       1.774   4.995  20.798  0.00  0.00    +0.000 OA
ATOM     25  C   UNL     1       1.910   4.031  19.852  0.00  0.00    +0.000 A 
ATOM     26  C   UNL     1       1.567   2.691  19.996  0.00  0.00    +0.000 A 
ATOM     27  C   UNL     1       1.770   1.879  18.875  0.00  0.00    +0.000 A 
ATOM     28  C   UNL     1       2.313   2.396  17.696  0.00  0.00    +0.000 A 
ATOM     29  C   UNL     1       2.670   3.750  17.593  0.00  0.00    +0.000 A 
ATOM     30  C   UNL     1       2.448   4.585  18.702  0.00  0.00    +0.000 A 
ENDBRANCH  21  22
ENDBRANCH  18  21
ENDBRANCH   1  19
TORSDOF 4
ENDMDL
MODEL 8
REMARK VINA RESULT:      -8.3      1.018      1.156
REMARK  Name = 
REMARK  4 active torsions:
REMARK  status: ('A' for Active; 'I' for Inactive)
REMARK    1  A    between atoms: C_2  and  C_3
REMARK    2  A    between atoms: C_3  and  C_4
REMARK    3  A    between atoms: N_13  and  C_14
REMARK    4  A    between atoms: C_17  and  N_18
REMARK                            x       y       z     vdW  Elec       q    Type
REMARK                         _______ _______ _______ _____ _____    ______ ____
ROOT
ATOM      1  C   UNL     1       1.024   9.185  19.362  0.00  0.00    +0.000 A 
ATOM      2  C   UNL     1       0.423   9.681  18.206  0.00  0.00    +0.000 A 
ATOM      3  C   UNL     1      -0.602  10.623  18.274  0.00  0.00    +0.000 A 
ATOM      4  C   UNL     1      -1.123  11.061  19.493  0.00  0.00    +0.000 A 
ATOM      5  C   UNL     1      -0.550  10.498  20.699  0.00  0.00    +0.000 A 
ATOM      6  C   UNL     1      -0.968  10.847  21.999  0.00  0.00    +0.000 A 
ATOM      7  C   UNL     1      -0.432  10.305  23.143  0.00  0.00    +0.000 A 
ATOM      8  N   UNL     1       0.570   9.429  23.106  0.00  0.00    +0.000 NA
ATOM      9  C   UNL     1       1.014   9.113  21.873  0.00  0.00    +0.000 A 
ATOM     10  C   UNL     1       0.516   9.574  20.625  0.00  0.00    +0.000 A 
ENDROOT
BRANCH   4  11
ATOM     11  N   UNL     1      -2.159  11.998  19.503  0.00  0.00    +0.000 N 
ATOM     12  C   UNL     1      -2.023  13.317  20.133  0.00  0.00    +0.000 C 
ATOM     13  C   UNL     1      -3.242  13.569  21.029  0.00  0.00    +0.000 C 
ATOM     14  C   UNL     1      -4.571  13.272  20.324  0.00  0.00    +0.000 C 
ATOM     15  C   UNL     1      -4.555  11.943  19.577  0.00  0.00    +0.000 C 
ATOM     16  C   UNL     1      -3.331  11.857  18.661  0.00  0.00    +0.000 C 
ENDBRANCH   4  11
BRANCH   1  19
ATOM     17  O   UNL     1       2.647   8.421  17.033  0.00  0.00    +0.000 OA
ATOM     18  C   UNL     1       2.831   7.941  18.153  0.00  0.00    +0.000 C 
ATOM     19  N   UNL     1       2.139   8.305  19.291  0.00  0.00    +0.000 N 
ATOM     20  H   UNL     1       2.567   8.031  20.167  0.00  0.00    +0.000 HD
BRANCH  18  21
ATOM     21  C   UNL     1       3.848   6.820  18.301  0.00  0.00    +0.000 C 
BRANCH  21  22
ATOM     22  C   UNL     1       3.327   5.455  18.040  0.00  0.00    +0.000 A 
ATOM     23  N   UNL     1       3.760   4.779  16.965  0.00  0.00    +0.000 NA
ATOM     24  O   UNL     1       3.117   3.557  17.002  0.00  0.00    +0.000 OA
ATOM     25  C   UNL     1       2.318   3.497  18.097  0.00  0.00    +0.000 A 
ATOM     26  C   UNL     1       1.529   2.416  18.475  0.00  0.00    +0.000 A 
ATOM     27  C   UNL     1       0.804   2.566  19.661  0.00  0.00    +0.000 A 
ATOM     28  C   UNL     1       0.860   3.753  20.398  0.00  0.00    +0.000 A 
ATOM     29  C   UNL     1       1.650   4.834  19.976  0.00  0.00    +0.000 A 
ATOM     30  C   UNL     1       2.406   4.689  18.799  0.00  0.00    +0.000 A 
ENDBRANCH  21  22
ENDBRANCH  18  21
ENDBRANCH   1  19
TORSDOF 4
ENDMDL
MODEL 9
REMARK VINA RESULT:      -8.3      2.691      3.892
REMARK  Name = 
REMARK  4 active torsions:
REMARK  status: ('A' for Active; 'I' for Inactive)
REMARK    1  A    between atoms: C_2  and  C_3
REMARK    2  A    between atoms: C_3  and  C_4
REMARK    3  A    between atoms: N_13  and  C_14
REMARK    4  A    between atoms: C_17  and  N_18
REMARK                            x       y       z     vdW  Elec       q    Type
REMARK                         _______ _______ _______ _____ _____    ______ ____
ROOT
ATOM      1  C   UNL     1       2.180   8.121  18.924  0.00  0.00    +0.000 A 
ATOM      2  C   UNL     1       2.270   8.912  17.779  0.00  0.00    +0.000 A 
ATOM      3  C   UNL     1       1.702  10.183  17.736  0.00  0.00    +0.000 A 
ATOM      4  C   UNL     1       0.962  10.699  18.800  0.00  0.00    +0.000 A 
ATOM      5  C   UNL     1       0.806   9.855  19.968  0.00  0.00    +0.000 A 
ATOM      6  C   UNL     1       0.091  10.241  21.121  0.00  0.00    +0.000 A 
ATOM      7  C   UNL     1      -0.066   9.436  22.224  0.00  0.00    +0.000 A 
ATOM      8  N   UNL     1       0.494   8.231  22.304  0.00  0.00    +0.000 NA
ATOM      9  C   UNL     1       1.217   7.860  21.229  0.00  0.00    +0.000 A 
ATOM     10  C   UNL     1       1.417   8.582  20.023  0.00  0.00    +0.000 A 
ENDROOT
BRANCH   4  11
ATOM     11  N   UNL     1       0.404  11.975  18.699  0.00  0.00    +0.000 N 
ATOM     12  C   UNL     1       1.225  13.188  18.584  0.00  0.00    +0.000 C 
ATOM     13  C   UNL     1       0.719  14.229  19.591  0.00  0.00    +0.000 C 
ATOM     14  C   UNL     1      -0.802  14.416  19.541  0.00  0.00    +0.000 C 
ATOM     15  C   UNL     1      -1.555  13.089  19.516  0.00  0.00    +0.000 C 
ATOM     16  C   UNL     1      -1.003  12.180  18.416  0.00  0.00    +0.000 C 
ENDBRANCH   4  11
BRANCH   1  19
ATOM     17  O   UNL     1       1.385   5.511  17.829  0.00  0.00    +0.000 OA
ATOM     18  C   UNL     1       2.397   5.659  18.515  0.00  0.00    +0.000 C 
ATOM     19  N   UNL     1       2.849   6.869  19.005  0.00  0.00    +0.000 N 
ATOM     20  H   UNL     1       3.813   6.879  19.317  0.00  0.00    +0.000 HD
BRANCH  18  21
ATOM     21  C   UNL     1       3.188   4.423  18.914  0.00  0.00    +0.000 C 
BRANCH  21  22
ATOM     22  C   UNL     1       4.617   4.429  18.511  0.00  0.00    +0.000 A 
ATOM     23  N   UNL     1       5.565   4.256  19.446  0.00  0.00    +0.000 NA
ATOM     24  O   UNL     1       6.770   4.295  18.774  0.00  0.00    +0.000 OA
ATOM     25  C   UNL     1       6.545   4.475  17.447  0.00  0.00    +0.000 A 
ATOM     26  C   UNL     1       7.518   4.547  16.456  0.00  0.00    +0.000 A 
ATOM     27  C   UNL     1       7.053   4.710  15.147  0.00  0.00    +0.000 A 
ATOM     28  C   UNL     1       5.687   4.819  14.872  0.00  0.00    +0.000 A 
ATOM     29  C   UNL     1       4.733   4.764  15.900  0.00  0.00    +0.000 A 
ATOM     30  C   UNL     1       5.182   4.574  17.219  0.00  0.00    +0.000 A 
ENDBRANCH  21  22
ENDBRANCH  18  21
ENDBRANCH   1  19
TORSDOF 4
ENDMDL
