MODEL 1
REMARK VINA RESULT:      -8.9      0.000      0.000
REMARK  Name = 
REMARK  5 active torsions:
REMARK  status: ('A' for Active; 'I' for Inactive)
REMARK    1  A    between atoms: C_1  and  C_2
REMARK    2  A    between atoms: C_5  and  C_6
REMARK    3  A    between atoms: C_11  and  C_12
REMARK    4  A    between atoms: N_14  and  C_15
REMARK    5  A    between atoms: N_18  and  C_19
REMARK                            x       y       z     vdW  Elec       q    Type
REMARK                         _______ _______ _______ _____ _____    ______ ____
ROOT
ATOM      1  C   UNL     1       4.673   4.133  18.655  0.00  0.00    +0.000 C 
ATOM      2  O   UNL     1       4.529   3.673  17.528  0.00  0.00    +0.000 OA
ATOM      3  N   UNL     1       5.743   4.909  19.054  0.00  0.00    +0.000 N 
ATOM      4  H   UNL     1       5.740   5.295  19.987  0.00  0.00    +0.000 HD
ENDROOT
BRANCH   1  10
ATOM      5  C   UNL     1       2.704   4.882  20.055  0.00  0.00    +0.000 A 
ATOM      6  C   UNL     1       1.867   4.625  21.160  0.00  0.00    +0.000 A 
ATOM      7  C   UNL     1       1.905   3.402  21.831  0.00  0.00    +0.000 A 
ATOM      8  C   UNL     1       2.780   2.406  21.414  0.00  0.00    +0.000 A 
ATOM      9  C   UNL     1       3.639   2.644  20.342  0.00  0.00    +0.000 A 
ATOM     10  C   UNL     1       3.615   3.878  19.665  0.00  0.00    +0.000 A 
BRANCH   5  15
ATOM     11  C   UNL     1       1.162   9.404  19.481  0.00  0.00    +0.000 C 
ATOM     12  C   UNL     1       1.937   8.194  19.162  0.00  0.00    +0.000 A 
ATOM     13  N   UNL     1       2.671   7.914  18.106  0.00  0.00    +0.000 NA
ATOM     14  N   UNL     1       3.097   6.612  18.271  0.00  0.00    +0.000 NA
ATOM     15  C   UNL     1       2.571   6.182  19.403  0.00  0.00    +0.000 A 
ATOM     16  O   UNL     1       1.894   7.171  20.068  0.00  0.00    +0.000 OA
ENDBRANCH   5  15
ENDBRANCH   1  10
BRANCH   3  17
ATOM     17  C   UNL     1       6.886   5.264  18.209  0.00  0.00    +0.000 C 
ATOM     18  C   UNL     1       6.834   6.697  17.681  0.00  0.00    +0.000 C 
ATOM     19  C   UNL     1       6.167   6.573  16.313  0.00  0.00    +0.000 C 
ATOM     20  N   UNL     1       6.627   5.282  15.841  0.00  0.00    +0.000 N 
ATOM     21  C   UNL     1       7.090   4.424  16.930  0.00  0.00    +0.000 C 
BRANCH  20  22
ATOM     22  C   UNL     1       6.883   4.941  14.541  0.00  0.00    +0.000 A 
ATOM     23  N   UNL     1       7.913   5.589  13.937  0.00  0.00    +0.000 NA
ATOM     24  C   UNL     1       8.170   5.340  12.636  0.00  0.00    +0.000 A 
ATOM     25  C   UNL     1       7.452   4.446  11.869  0.00  0.00    +0.000 A 
ATOM     26  C   UNL     1       6.414   3.757  12.479  0.00  0.00    +0.000 A 
ATOM     27  C   UNL     1       6.133   4.005  13.818  0.00  0.00    +0.000 A 
ATOM     28  F   UNL     1       5.119   3.323  14.383  0.00  0.00    +0.000 F 
ENDBRANCH  20  22
ENDBRANCH   3  17
TORSDOF 4
ENDMDL
MODEL 2
REMARK VINA RESULT:      -8.6      3.044      7.735
REMARK  Name = 
REMARK  5 active torsions:
REMARK  status: ('A' for Active; 'I' for Inactive)
REMARK    1  A    between atoms: C_1  and  C_2
REMARK    2  A    between atoms: C_5  and  C_6
REMARK    3  A    between atoms: C_11  and  C_12
REMARK    4  A    between atoms: N_14  and  C_15
REMARK    5  A    between atoms: N_18  and  C_19
REMARK                            x       y       z     vdW  Elec       q    Type
REMARK                         _______ _______ _______ _____ _____    ______ ____
ROOT
ATOM      1  C   UNL     1       2.562   6.018  19.447  0.00  0.00    +0.000 C 
ATOM      2  O   UNL     1       3.265   6.528  18.582  0.00  0.00    +0.000 OA
ATOM      3  N   UNL     1       1.886   6.722  20.423  0.00  0.00    +0.000 N 
ATOM      4  H   UNL     1       1.280   6.217  21.054  0.00  0.00    +0.000 HD
ENDROOT
BRANCH   1  10
ATOM      5  C   UNL     1       3.389   3.679  18.953  0.00  0.00    +0.000 A 
ATOM      6  C   UNL     1       3.068   2.317  18.789  0.00  0.00    +0.000 A 
ATOM      7  C   UNL     1       1.808   1.821  19.128  0.00  0.00    +0.000 A 
ATOM      8  C   UNL     1       0.839   2.675  19.641  0.00  0.00    +0.000 A 
ATOM      9  C   UNL     1       1.120   4.033  19.787  0.00  0.00    +0.000 A 
ATOM     10  C   UNL     1       2.385   4.544  19.438  0.00  0.00    +0.000 A 
BRANCH   5  15
ATOM     11  C   UNL     1       7.059   4.746  16.030  0.00  0.00    +0.000 C 
ATOM     12  C   UNL     1       6.355   4.615  17.316  0.00  0.00    +0.000 A 
ATOM     13  N   UNL     1       6.806   4.752  18.544  0.00  0.00    +0.000 NA
ATOM     14  N   UNL     1       5.753   4.430  19.377  0.00  0.00    +0.000 NA
ATOM     15  C   UNL     1       4.742   4.096  18.595  0.00  0.00    +0.000 A 
ATOM     16  O   UNL     1       5.030   4.280  17.268  0.00  0.00    +0.000 OA
ENDBRANCH   5  15
ENDBRANCH   1  10
BRANCH   3  17
ATOM     17  C   UNL     1       1.939   8.176  20.602  0.00  0.00    +0.000 C 
ATOM     18  C   UNL     1       1.327   8.653  21.918  0.00  0.00    +0.000 C 
ATOM     19  C   UNL     1      -0.120   8.989  21.563  0.00  0.00    +0.000 C 
ATOM     20  N   UNL     1      -0.018   9.473  20.200  0.00  0.00    +0.000 N 
ATOM     21  C   UNL     1       1.209   9.030  19.543  0.00  0.00    +0.000 C 
BRANCH  20  22
ATOM     22  C   UNL     1      -0.793  10.444  19.628  0.00  0.00    +0.000 A 
ATOM     23  N   UNL     1      -1.188  11.460  20.439  0.00  0.00    +0.000 NA
ATOM     24  C   UNL     1      -2.006  12.412  19.945  0.00  0.00    +0.000 A 
ATOM     25  C   UNL     1      -2.467  12.430  18.645  0.00  0.00    +0.000 A 
ATOM     26  C   UNL     1      -2.050  11.414  17.797  0.00  0.00    +0.000 A 
ATOM     27  C   UNL     1      -1.211  10.422  18.291  0.00  0.00    +0.000 A 
ATOM     28  F   UNL     1      -0.825   9.448  17.445  0.00  0.00    +0.000 F 
ENDBRANCH  20  22
ENDBRANCH   3  17
TORSDOF 4
ENDMDL
MODEL 3
REMARK VINA RESULT:      -8.5      3.550      7.754
REMARK  Name = 
REMARK  5 active torsions:
REMARK  status: ('A' for Active; 'I' for Inactive)
REMARK    1  A    between atoms: C_1  and  C_2
REMARK    2  A    between atoms: C_5  and  C_6
REMARK    3  A    between atoms: C_11  and  C_12
REMARK    4  A    between atoms: N_14  and  C_15
REMARK    5  A    between atoms: N_18  and  C_19
REMARK                            x       y       z     vdW  Elec       q    Type
REMARK                         _______ _______ _______ _____ _____    ______ ____
ROOT
ATOM      1  C   UNL     1       2.576   6.441  18.882  0.00  0.00    +0.000 C 
ATOM      2  O   UNL     1       2.884   7.161  17.939  0.00  0.00    +0.000 OA
ATOM      3  N   UNL     1       2.133   6.900  20.106  0.00  0.00    +0.000 N 
ATOM      4  H   UNL     1       1.842   6.226  20.800  0.00  0.00    +0.000 HD
ENDROOT
BRANCH   1  10
ATOM      5  C   UNL     1       3.877   4.297  18.550  0.00  0.00    +0.000 A 
ATOM      6  C   UNL     1       3.850   2.937  18.181  0.00  0.00    +0.000 A 
ATOM      7  C   UNL     1       2.645   2.256  18.005  0.00  0.00    +0.000 A 
ATOM      8  C   UNL     1       1.437   2.918  18.195  0.00  0.00    +0.000 A 
ATOM      9  C   UNL     1       1.434   4.271  18.531  0.00  0.00    +0.000 A 
ATOM     10  C   UNL     1       2.645   4.969  18.702  0.00  0.00    +0.000 A 
BRANCH   5  15
ATOM     11  C   UNL     1       7.668   7.046  17.443  0.00  0.00    +0.000 C 
ATOM     12  C   UNL     1       6.845   6.160  18.282  0.00  0.00    +0.000 A 
ATOM     13  N   UNL     1       7.126   5.585  19.432  0.00  0.00    +0.000 NA
ATOM     14  N   UNL     1       6.041   4.788  19.736  0.00  0.00    +0.000 NA
ATOM     15  C   UNL     1       5.187   4.914  18.736  0.00  0.00    +0.000 A 
ATOM     16  O   UNL     1       5.598   5.846  17.819  0.00  0.00    +0.000 OA
ENDBRANCH   5  15
ENDBRANCH   1  10
BRANCH   3  17
ATOM     17  C   UNL     1       2.003   8.311  20.479  0.00  0.00    +0.000 C 
ATOM     18  C   UNL     1       1.249   8.530  21.790  0.00  0.00    +0.000 C 
ATOM     19  C   UNL     1      -0.199   8.758  21.361  0.00  0.00    +0.000 C 
ATOM     20  N   UNL     1      -0.059   9.437  20.087  0.00  0.00    +0.000 N 
ATOM     21  C   UNL     1       1.254   9.224  19.484  0.00  0.00    +0.000 C 
BRANCH  20  22
ATOM     22  C   UNL     1      -0.900  10.392  19.585  0.00  0.00    +0.000 A 
ATOM     23  N   UNL     1      -1.304  11.359  20.450  0.00  0.00    +0.000 NA
ATOM     24  C   UNL     1      -2.185  12.289  20.027  0.00  0.00    +0.000 A 
ATOM     25  C   UNL     1      -2.701  12.333  18.748  0.00  0.00    +0.000 A 
ATOM     26  C   UNL     1      -2.276  11.369  17.845  0.00  0.00    +0.000 A 
ATOM     27  C   UNL     1      -1.373  10.400  18.267  0.00  0.00    +0.000 A 
ATOM     28  F   UNL     1      -0.981   9.476  17.369  0.00  0.00    +0.000 F 
ENDBRANCH  20  22
ENDBRANCH   3  17
TORSDOF 4
ENDMDL
MODEL 4
REMARK VINA RESULT:      -8.5      3.396      8.008
REMARK  Name = 
REMARK  5 active torsions:
REMARK  status: ('A' for Active; 'I' for Inactive)
REMARK    1  A    between atoms: C_1  and  C_2
REMARK    2  A    between atoms: C_5  and  C_6
REMARK    3  A    between atoms: C_11  and  C_12
REMARK    4  A    between atoms: N_14  and  C_15
REMARK    5  A    between atoms: N_18  and  C_19
REMARK                            x       y       z     vdW  Elec       q    Type
REMARK                         _______ _______ _______ _____ _____    ______ ____
ROOT
ATOM      1  C   UNL     1       2.558   6.792  18.752  0.00  0.00    +0.000 C 
ATOM      2  O   UNL     1       2.926   7.601  17.908  0.00  0.00    +0.000 OA
ATOM      3  N   UNL     1       2.047   7.129  19.989  0.00  0.00    +0.000 N 
ATOM      4  H   UNL     1       1.711   6.392  20.593  0.00  0.00    +0.000 HD
ENDROOT
BRANCH   1  10
ATOM      5  C   UNL     1       3.662   4.814  17.626  0.00  0.00    +0.000 A 
ATOM      6  C   UNL     1       3.545   3.478  17.194  0.00  0.00    +0.000 A 
ATOM      7  C   UNL     1       2.461   2.684  17.570  0.00  0.00    +0.000 A 
ATOM      8  C   UNL     1       1.467   3.207  18.389  0.00  0.00    +0.000 A 
ATOM      9  C   UNL     1       1.542   4.535  18.808  0.00  0.00    +0.000 A 
ATOM     10  C   UNL     1       2.627   5.346  18.425  0.00  0.00    +0.000 A 
BRANCH   5  15
ATOM     11  C   UNL     1       7.851   7.124  18.138  0.00  0.00    +0.000 C 
ATOM     12  C   UNL     1       6.719   6.534  17.406  0.00  0.00    +0.000 A 
ATOM     13  N   UNL     1       6.409   6.604  16.129  0.00  0.00    +0.000 NA
ATOM     14  N   UNL     1       5.200   5.952  15.993  0.00  0.00    +0.000 NA
ATOM     15  C   UNL     1       4.846   5.554  17.201  0.00  0.00    +0.000 A 
ATOM     16  O   UNL     1       5.815   5.812  18.136  0.00  0.00    +0.000 OA
ENDBRANCH   5  15
ENDBRANCH   1  10
BRANCH   3  17
ATOM     17  C   UNL     1       1.906   8.496  20.498  0.00  0.00    +0.000 C 
ATOM     18  C   UNL     1       1.207   8.574  21.854  0.00  0.00    +0.000 C 
ATOM     19  C   UNL     1      -0.262   8.807  21.510  0.00  0.00    +0.000 C 
ATOM     20  N   UNL     1      -0.193   9.605  20.301  0.00  0.00    +0.000 N 
ATOM     21  C   UNL     1       1.097   9.480  19.626  0.00  0.00    +0.000 C 
BRANCH  20  22
ATOM     22  C   UNL     1      -1.073  10.582  19.926  0.00  0.00    +0.000 A 
ATOM     23  N   UNL     1      -1.350  11.536  20.854  0.00  0.00    +0.000 NA
ATOM     24  C   UNL     1      -2.261  12.487  20.562  0.00  0.00    +0.000 A 
ATOM     25  C   UNL     1      -2.931  12.566  19.359  0.00  0.00    +0.000 A 
ATOM     26  C   UNL     1      -2.639  11.615  18.392  0.00  0.00    +0.000 A 
ATOM     27  C   UNL     1      -1.707  10.624  18.678  0.00  0.00    +0.000 A 
ATOM     28  F   UNL     1      -1.445   9.714  17.721  0.00  0.00    +0.000 F 
ENDBRANCH  20  22
ENDBRANCH   3  17
TORSDOF 4
ENDMDL
MODEL 5
REMARK VINA RESULT:      -8.5      3.465      7.761
REMARK  Name = 
REMARK  5 active torsions:
REMARK  status: ('A' for Active; 'I' for Inactive)
REMARK    1  A    between atoms: C_1  and  C_2
REMARK    2  A    between atoms: C_5  and  C_6
REMARK    3  A    between atoms: C_11  and  C_12
REMARK    4  A    between atoms: N_14  and  C_15
REMARK    5  A    between atoms: N_18  and  C_19
REMARK                            x       y       z     vdW  Elec       q    Type
REMARK                         _______ _______ _______ _____ _____    ______ ____
ROOT
ATOM      1  C   UNL     1       2.440   6.237  19.525  0.00  0.00    +0.000 C 
ATOM      2  O   UNL     1       2.956   6.770  18.549  0.00  0.00    +0.000 OA
ATOM      3  N   UNL     1       1.888   6.921  20.590  0.00  0.00    +0.000 N 
ATOM      4  H   UNL     1       1.429   6.394  21.319  0.00  0.00    +0.000 HD
ENDROOT
BRANCH   1  10
ATOM      5  C   UNL     1       3.369   3.944  19.001  0.00  0.00    +0.000 A 
ATOM      6  C   UNL     1       3.126   2.560  18.898  0.00  0.00    +0.000 A 
ATOM      7  C   UNL     1       1.942   1.993  19.373  0.00  0.00    +0.000 A 
ATOM      8  C   UNL     1       0.973   2.797  19.963  0.00  0.00    +0.000 A 
ATOM      9  C   UNL     1       1.175   4.174  20.051  0.00  0.00    +0.000 A 
ATOM     10  C   UNL     1       2.362   4.755  19.566  0.00  0.00    +0.000 A 
BRANCH   5  15
ATOM     11  C   UNL     1       7.828   5.733  19.265  0.00  0.00    +0.000 C 
ATOM     12  C   UNL     1       6.635   5.181  18.603  0.00  0.00    +0.000 A 
ATOM     13  N   UNL     1       6.354   5.072  17.323  0.00  0.00    +0.000 NA
ATOM     14  N   UNL     1       5.069   4.572  17.255  0.00  0.00    +0.000 NA
ATOM     15  C   UNL     1       4.649   4.437  18.500  0.00  0.00    +0.000 A 
ATOM     16  O   UNL     1       5.632   4.721  19.411  0.00  0.00    +0.000 OA
ENDBRANCH   5  15
ENDBRANCH   1  10
BRANCH   3  17
ATOM     17  C   UNL     1       1.872   8.379  20.737  0.00  0.00    +0.000 C 
ATOM     18  C   UNL     1       1.231   8.854  22.040  0.00  0.00    +0.000 C 
ATOM     19  C   UNL     1      -0.228   9.116  21.670  0.00  0.00    +0.000 C 
ATOM     20  N   UNL     1      -0.140   9.575  20.298  0.00  0.00    +0.000 N 
ATOM     21  C   UNL     1       1.111   9.176  19.657  0.00  0.00    +0.000 C 
BRANCH  20  22
ATOM     22  C   UNL     1      -0.955  10.497  19.700  0.00  0.00    +0.000 A 
ATOM     23  N   UNL     1      -1.409  11.505  20.490  0.00  0.00    +0.000 NA
ATOM     24  C   UNL     1      -2.268  12.406  19.971  0.00  0.00    +0.000 A 
ATOM     25  C   UNL     1      -2.713  12.381  18.666  0.00  0.00    +0.000 A 
ATOM     26  C   UNL     1      -2.237  11.373  17.839  0.00  0.00    +0.000 A 
ATOM     27  C   UNL     1      -1.355  10.433  18.360  0.00  0.00    +0.000 A 
ATOM     28  F   UNL     1      -0.911   9.465  17.535  0.00  0.00    +0.000 F 
ENDBRANCH  20  22
ENDBRANCH   3  17
TORSDOF 4
ENDMDL
MODEL 6
REMARK VINA RESULT:      -8.4      3.397      7.904
REMARK  Name = 
REMARK  5 active torsions:
REMARK  status: ('A' for Active; 'I' for Inactive)
REMARK    1  A    between atoms: C_1  and  C_2
REMARK    2  A    between atoms: C_5  and  C_6
REMARK    3  A    between atoms: C_11  and  C_12
REMARK    4  A    between atoms: N_14  and  C_15
REMARK    5  A    between atoms: N_18  and  C_19
REMARK                            x       y       z     vdW  Elec       q    Type
REMARK                         _______ _______ _______ _____ _____    ______ ____
ROOT
ATOM      1  C   UNL     1       2.559   6.015  19.449  0.00  0.00    +0.000 C 
ATOM      2  O   UNL     1       3.239   6.527  18.567  0.00  0.00    +0.000 OA
ATOM      3  N   UNL     1       1.906   6.717  20.442  0.00  0.00    +0.000 N 
ATOM      4  H   UNL     1       1.317   6.210  21.087  0.00  0.00    +0.000 HD
ENDROOT
BRANCH   1  10
ATOM      5  C   UNL     1       3.396   3.677  18.971  0.00  0.00    +0.000 A 
ATOM      6  C   UNL     1       3.081   2.313  18.809  0.00  0.00    +0.000 A 
ATOM      7  C   UNL     1       1.820   1.815  19.140  0.00  0.00    +0.000 A 
ATOM      8  C   UNL     1       0.844   2.668  19.642  0.00  0.00    +0.000 A 
ATOM      9  C   UNL     1       1.120   4.028  19.785  0.00  0.00    +0.000 A 
ATOM     10  C   UNL     1       2.386   4.541  19.445  0.00  0.00    +0.000 A 
BRANCH   5  15
ATOM     11  C   UNL     1       7.086   4.743  16.072  0.00  0.00    +0.000 C 
ATOM     12  C   UNL     1       6.372   4.615  17.353  0.00  0.00    +0.000 A 
ATOM     13  N   UNL     1       6.814   4.757  18.584  0.00  0.00    +0.000 NA
ATOM     14  N   UNL     1       5.755   4.436  19.409  0.00  0.00    +0.000 NA
ATOM     15  C   UNL     1       4.751   4.096  18.622  0.00  0.00    +0.000 A 
ATOM     16  O   UNL     1       5.049   4.276  17.296  0.00  0.00    +0.000 OA
ENDBRANCH   5  15
ENDBRANCH   1  10
BRANCH   3  17
ATOM     17  C   UNL     1       1.959   8.171  20.619  0.00  0.00    +0.000 C 
ATOM     18  C   UNL     1       1.381   8.646  21.951  0.00  0.00    +0.000 C 
ATOM     19  C   UNL     1      -0.076   8.978  21.635  0.00  0.00    +0.000 C 
ATOM     20  N   UNL     1      -0.013   9.462  20.270  0.00  0.00    +0.000 N 
ATOM     21  C   UNL     1       1.198   9.023  19.580  0.00  0.00    +0.000 C 
BRANCH  20  22
ATOM     22  C   UNL     1      -0.805  10.431  19.718  0.00  0.00    +0.000 A 
ATOM     23  N   UNL     1      -1.539  10.068  18.634  0.00  0.00    +0.000 NA
ATOM     24  C   UNL     1      -2.289  11.000  18.010  0.00  0.00    +0.000 A 
ATOM     25  C   UNL     1      -2.372  12.317  18.414  0.00  0.00    +0.000 A 
ATOM     26  C   UNL     1      -1.649  12.696  19.536  0.00  0.00    +0.000 A 
ATOM     27  C   UNL     1      -0.867  11.749  20.188  0.00  0.00    +0.000 A 
ATOM     28  F   UNL     1      -0.176  12.147  21.273  0.00  0.00    +0.000 F 
ENDBRANCH  20  22
ENDBRANCH   3  17
TORSDOF 4
ENDMDL
MODEL 7
REMARK VINA RESULT:      -8.3      0.974      1.031
REMARK  Name = 
REMARK  5 active torsions:
REMARK  status: ('A' for Active; 'I' for Inactive)
REMARK    1  A    between atoms: C_1  and  C_2
REMARK    2  A    between atoms: C_5  and  C_6
REMARK    3  A    between atoms: C_11  and  C_12
REMARK    4  A    between atoms: N_14  and  C_15
REMARK    5  A    between atoms: N_18  and  C_19
REMARK                            x       y       z     vdW  Elec       q    Type
REMARK                         _______ _______ _______ _____ _____    ______ ____
ROOT
ATOM      1  C   UNL     1       4.149   4.169  18.469  0.00  0.00    +0.000 C 
ATOM      2  O   UNL     1       3.989   3.875  17.290  0.00  0.00    +0.000 OA
ATOM      3  N   UNL     1       5.186   4.944  18.949  0.00  0.00    +0.000 N 
ATOM      4  H   UNL     1       5.198   5.185  19.930  0.00  0.00    +0.000 HD
ENDROOT
BRANCH   1  10
ATOM      5  C   UNL     1       2.318   4.597  20.161  0.00  0.00    +0.000 A 
ATOM      6  C   UNL     1       1.545   4.092  21.226  0.00  0.00    +0.000 A 
ATOM      7  C   UNL     1       1.565   2.738  21.561  0.00  0.00    +0.000 A 
ATOM      8  C   UNL     1       2.359   1.854  20.839  0.00  0.00    +0.000 A 
ATOM      9  C   UNL     1       3.157   2.331  19.799  0.00  0.00    +0.000 A 
ATOM     10  C   UNL     1       3.150   3.697  19.460  0.00  0.00    +0.000 A 
BRANCH   5  15
ATOM     11  C   UNL     1       2.591   8.604  17.512  0.00  0.00    +0.000 C 
ATOM     12  C   UNL     1       2.278   7.793  18.699  0.00  0.00    +0.000 A 
ATOM     13  N   UNL     1       1.888   8.166  19.899  0.00  0.00    +0.000 NA
ATOM     14  N   UNL     1       1.826   7.014  20.657  0.00  0.00    +0.000 NA
ATOM     15  C   UNL     1       2.207   6.023  19.871  0.00  0.00    +0.000 A 
ATOM     16  O   UNL     1       2.421   6.438  18.582  0.00  0.00    +0.000 OA
ENDBRANCH   5  15
ENDBRANCH   1  10
BRANCH   3  17
ATOM     17  C   UNL     1       6.272   5.496  18.134  0.00  0.00    +0.000 C 
ATOM     18  C   UNL     1       5.931   6.838  17.490  0.00  0.00    +0.000 C 
ATOM     19  C   UNL     1       5.401   6.471  16.106  0.00  0.00    +0.000 C 
ATOM     20  N   UNL     1       6.172   5.291  15.763  0.00  0.00    +0.000 N 
ATOM     21  C   UNL     1       6.745   4.640  16.939  0.00  0.00    +0.000 C 
BRANCH  20  22
ATOM     22  C   UNL     1       6.583   4.930  14.509  0.00  0.00    +0.000 A 
ATOM     23  N   UNL     1       7.732   5.501  14.061  0.00  0.00    +0.000 NA
ATOM     24  C   UNL     1       8.151   5.233  12.807  0.00  0.00    +0.000 A 
ATOM     25  C   UNL     1       7.485   4.392  11.939  0.00  0.00    +0.000 A 
ATOM     26  C   UNL     1       6.325   3.780  12.391  0.00  0.00    +0.000 A 
ATOM     27  C   UNL     1       5.877   4.051  13.679  0.00  0.00    +0.000 A 
ATOM     28  F   UNL     1       4.747   3.444  14.090  0.00  0.00    +0.000 F 
ENDBRANCH  20  22
ENDBRANCH   3  17
TORSDOF 4
ENDMDL
MODEL 8
REMARK VINA RESULT:      -8.3      3.858      7.966
REMARK  Name = 
REMARK  5 active torsions:
REMARK  status: ('A' for Active; 'I' for Inactive)
REMARK    1  A    between atoms: C_1  and  C_2
REMARK    2  A    between atoms: C_5  and  C_6
REMARK    3  A    between atoms: C_11  and  C_12
REMARK    4  A    between atoms: N_14  and  C_15
REMARK    5  A    between atoms: N_18  and  C_19
REMARK                            x       y       z     vdW  Elec       q    Type
REMARK                         _______ _______ _______ _____ _____    ______ ____
ROOT
ATOM      1  C   UNL     1       2.474   6.216  19.645  0.00  0.00    +0.000 C 
ATOM      2  O   UNL     1       3.060   6.748  18.709  0.00  0.00    +0.000 OA
ATOM      3  N   UNL     1       1.854   6.899  20.671  0.00  0.00    +0.000 N 
ATOM      4  H   UNL     1       1.342   6.373  21.365  0.00  0.00    +0.000 HD
ENDROOT
BRANCH   1  10
ATOM      5  C   UNL     1       3.371   3.919  19.077  0.00  0.00    +0.000 A 
ATOM      6  C   UNL     1       3.113   2.538  18.970  0.00  0.00    +0.000 A 
ATOM      7  C   UNL     1       1.938   1.977  19.472  0.00  0.00    +0.000 A 
ATOM      8  C   UNL     1       0.992   2.783  20.094  0.00  0.00    +0.000 A 
ATOM      9  C   UNL     1       1.208   4.158  20.188  0.00  0.00    +0.000 A 
ATOM     10  C   UNL     1       2.386   4.734  19.676  0.00  0.00    +0.000 A 
BRANCH   5  15
ATOM     11  C   UNL     1       7.825   5.732  19.233  0.00  0.00    +0.000 C 
ATOM     12  C   UNL     1       6.624   5.161  18.602  0.00  0.00    +0.000 A 
ATOM     13  N   UNL     1       6.324   5.022  17.328  0.00  0.00    +0.000 NA
ATOM     14  N   UNL     1       5.040   4.515  17.292  0.00  0.00    +0.000 NA
ATOM     15  C   UNL     1       4.640   4.406  18.545  0.00  0.00    +0.000 A 
ATOM     16  O   UNL     1       5.636   4.715  19.435  0.00  0.00    +0.000 OA
ENDBRANCH   5  15
ENDBRANCH   1  10
BRANCH   3  17
ATOM     17  C   UNL     1       1.837   8.357  20.822  0.00  0.00    +0.000 C 
ATOM     18  C   UNL     1       1.216   8.828  22.136  0.00  0.00    +0.000 C 
ATOM     19  C   UNL     1      -0.249   9.086  21.791  0.00  0.00    +0.000 C 
ATOM     20  N   UNL     1      -0.186   9.548  20.418  0.00  0.00    +0.000 N 
ATOM     21  C   UNL     1       1.055   9.154  19.755  0.00  0.00    +0.000 C 
BRANCH  20  22
ATOM     22  C   UNL     1      -1.014  10.469  19.837  0.00  0.00    +0.000 A 
ATOM     23  N   UNL     1      -1.634  10.086  18.690  0.00  0.00    +0.000 NA
ATOM     24  C   UNL     1      -2.411  10.976  18.038  0.00  0.00    +0.000 A 
ATOM     25  C   UNL     1      -2.632  12.267  18.473  0.00  0.00    +0.000 A 
ATOM     26  C   UNL     1      -2.027  12.663  19.657  0.00  0.00    +0.000 A 
ATOM     27  C   UNL     1      -1.219  11.760  20.338  0.00  0.00    +0.000 A 
ATOM     28  F   UNL     1      -0.644  12.174  21.484  0.00  0.00    +0.000 F 
ENDBRANCH  20  22
ENDBRANCH   3  17
TORSDOF 4
ENDMDL
MODEL 9
REMARK VINA RESULT:      -8.3      1.113      1.357
REMARK  Name = 
REMARK  5 active torsions:
REMARK  status: ('A' for Active; 'I' for Inactive)
REMARK    1  A    between atoms: C_1  and  C_2
REMARK    2  A    between atoms: C_5  and  C_6
REMARK    3  A    between atoms: C_11  and  C_12
REMARK    4  A    between atoms: N_14  and  C_15
REMARK    5  A    between atoms: N_18  and  C_19
REMARK                            x       y       z     vdW  Elec       q    Type
REMARK                         _______ _______ _______ _____ _____    ______ ____
ROOT
ATOM      1  C   UNL     1       4.483   4.049  18.387  0.00  0.00    +0.000 C 
ATOM      2  O   UNL     1       4.297   3.461  17.328  0.00  0.00    +0.000 OA
ATOM      3  N   UNL     1       5.505   4.948  18.616  0.00  0.00    +0.000 N 
ATOM      4  H   UNL     1       5.538   5.431  19.503  0.00  0.00    +0.000 HD
ENDROOT
BRANCH   1  10
ATOM      5  C   UNL     1       2.671   4.834  19.969  0.00  0.00    +0.000 A 
ATOM      6  C   UNL     1       1.949   4.600  21.156  0.00  0.00    +0.000 A 
ATOM      7  C   UNL     1       2.047   3.386  21.839  0.00  0.00    +0.000 A 
ATOM      8  C   UNL     1       2.869   2.377  21.350  0.00  0.00    +0.000 A 
ATOM      9  C   UNL     1       3.617   2.593  20.193  0.00  0.00    +0.000 A 
ATOM     10  C   UNL     1       3.531   3.817  19.503  0.00  0.00    +0.000 A 
BRANCH   5  15
ATOM     11  C   UNL     1       1.246   9.410  19.545  0.00  0.00    +0.000 C 
ATOM     12  C   UNL     1       1.899   8.159  19.130  0.00  0.00    +0.000 A 
ATOM     13  N   UNL     1       2.423   7.824  17.970  0.00  0.00    +0.000 NA
ATOM     14  N   UNL     1       2.816   6.506  18.095  0.00  0.00    +0.000 NA
ATOM     15  C   UNL     1       2.480   6.125  19.313  0.00  0.00    +0.000 A 
ATOM     16  O   UNL     1       1.974   7.157  20.058  0.00  0.00    +0.000 OA
ENDBRANCH   5  15
ENDBRANCH   1  10
BRANCH   3  17
ATOM     17  C   UNL     1       6.545   5.305  17.646  0.00  0.00    +0.000 C 
ATOM     18  C   UNL     1       6.319   6.660  16.979  0.00  0.00    +0.000 C 
ATOM     19  C   UNL     1       5.569   6.327  15.691  0.00  0.00    +0.000 C 
ATOM     20  N   UNL     1       6.114   5.036  15.320  0.00  0.00    +0.000 N 
ATOM     21  C   UNL     1       6.734   4.348  16.450  0.00  0.00    +0.000 C 
BRANCH  20  22
ATOM     22  C   UNL     1       6.305   4.575  14.046  0.00  0.00    +0.000 A 
ATOM     23  N   UNL     1       5.358   3.732  13.558  0.00  0.00    +0.000 NA
ATOM     24  C   UNL     1       5.528   3.196  12.332  0.00  0.00    +0.000 A 
ATOM     25  C   UNL     1       6.612   3.460  11.521  0.00  0.00    +0.000 A 
ATOM     26  C   UNL     1       7.575   4.341  11.995  0.00  0.00    +0.000 A 
ATOM     27  C   UNL     1       7.417   4.898  13.258  0.00  0.00    +0.000 A 
ATOM     28  F   UNL     1       8.369   5.747  13.692  0.00  0.00    +0.000 F 
ENDBRANCH  20  22
ENDBRANCH   3  17
TORSDOF 4
ENDMDL
