MODEL 1
REMARK VINA RESULT:      -8.4      0.000      0.000
REMARK  Name = 
REMARK  9 active torsions:
REMARK  status: ('A' for Active; 'I' for Inactive)
REMARK    1  A    between atoms: C_2  and  N_3
REMARK    2  A    between atoms: C_2  and  C_19
REMARK    3  A    between atoms: N_3  and  C_4
REMARK    4  A    between atoms: C_8  and  C_9
REMARK    5  A    between atoms: C_9  and  C_10
REMARK    6  A    between atoms: C_9  and  C_11
REMARK    7  A    between atoms: C_11  and  C_12
REMARK    8  A    between atoms: N_16  and  C_17
REMARK    9  A    between atoms: C_23  and  C_24
REMARK                            x       y       z     vdW  Elec       q    Type
REMARK                         _______ _______ _______ _____ _____    ______ ____
ROOT
ATOM      1  C   UNL     1       2.177   5.929  19.998  0.00  0.00    +0.000 A 
ATOM      2  C   UNL     1       1.208   5.216  20.709  0.00  0.00    +0.000 A 
ATOM      3  C   UNL     1       1.169   3.822  20.673  0.00  0.00    +0.000 A 
ATOM      4  C   UNL     1       2.098   3.117  19.905  0.00  0.00    +0.000 A 
ATOM      5  C   UNL     1       3.052   3.801  19.141  0.00  0.00    +0.000 A 
ATOM      6  C   UNL     1       3.077   5.209  19.199  0.00  0.00    +0.000 A 
ENDROOT
BRANCH   1   7
ATOM      7  N   UNL     1       2.320   7.326  20.097  0.00  0.00    +0.000 N 
ATOM      8  H   UNL     1       3.025   7.646  20.759  0.00  0.00    +0.000 HD
BRANCH   7  10
ATOM      9  C   UNL     1       2.399   8.303  17.885  0.00  0.00    +0.000 C 
ATOM     10  C   UNL     1       1.967   8.294  19.161  0.00  0.00    +0.000 C 
BRANCH  10  11
ATOM     11  C   UNL     1       0.975   9.332  19.599  0.00  0.00    +0.000 A 
ATOM     12  N   UNL     1       0.971   9.708  20.892  0.00  0.00    +0.000 NA
ATOM     13  C   UNL     1       0.087  10.654  21.236  0.00  0.00    +0.000 A 
ATOM     14  C   UNL     1      -0.792  11.223  20.348  0.00  0.00    +0.000 A 
ATOM     15  C   UNL     1      -0.747  10.771  19.039  0.00  0.00    +0.000 A 
ATOM     16  N   UNL     1       0.151   9.835  18.650  0.00  0.00    +0.000 NA
BRANCH  15  17
ATOM     17  C   UNL     1      -1.701  11.270  17.894  0.00  0.00    +0.000 C 
ATOM     18  C   UNL     1      -3.195  11.548  18.236  0.00  0.00    +0.000 C 
ATOM     19  C   UNL     1      -3.564  10.990  16.852  0.00  0.00    +0.000 C 
ATOM     20  C   UNL     1      -2.230  10.223  16.872  0.00  0.00    +0.000 C 
ENDBRANCH  15  17
ENDBRANCH  10  11
ENDBRANCH   7  10
ENDBRANCH   1   7
BRANCH   5  21
ATOM     21  C   UNL     1       4.023   3.019  18.260  0.00  0.00    +0.000 C 
ATOM     22  C   UNL     1       3.580   1.551  18.182  0.00  0.00    +0.000 C 
BRANCH  21  23
ATOM     23  C   UNL     1       4.174   3.677  16.871  0.00  0.00    +0.000 C 
BRANCH  23  24
ATOM     24  C   UNL     1       5.558   4.166  16.596  0.00  0.00    +0.000 A 
ATOM     25  N   UNL     1       6.472   4.474  17.497  0.00  0.00    +0.000 NA
ATOM     26  N   UNL     1       7.610   4.880  16.840  0.00  0.00    +0.000 NA
ATOM     27  C   UNL     1       7.366   4.823  15.553  0.00  0.00    +0.000 A 
ATOM     28  N   UNL     1       6.095   4.383  15.351  0.00  0.00    +0.000 N 
ATOM     29  C   UNL     1       5.467   4.190  14.073  0.00  0.00    +0.000 C 
ENDBRANCH  23  24
ENDBRANCH  21  23
ENDBRANCH   5  21
TORSDOF 7
ENDMDL
MODEL 2
REMARK VINA RESULT:      -8.1      1.249      1.716
REMARK  Name = 
REMARK  9 active torsions:
REMARK  status: ('A' for Active; 'I' for Inactive)
REMARK    1  A    between atoms: C_2  and  N_3
REMARK    2  A    between atoms: C_2  and  C_19
REMARK    3  A    between atoms: N_3  and  C_4
REMARK    4  A    between atoms: C_8  and  C_9
REMARK    5  A    between atoms: C_9  and  C_10
REMARK    6  A    between atoms: C_9  and  C_11
REMARK    7  A    between atoms: C_11  and  C_12
REMARK    8  A    between atoms: N_16  and  C_17
REMARK    9  A    between atoms: C_23  and  C_24
REMARK                            x       y       z     vdW  Elec       q    Type
REMARK                         _______ _______ _______ _____ _____    ______ ____
ROOT
ATOM      1  C   UNL     1       2.206   5.880  20.019  0.00  0.00    +0.000 A 
ATOM      2  C   UNL     1       1.133   5.189  20.591  0.00  0.00    +0.000 A 
ATOM      3  C   UNL     1       1.006   3.808  20.442  0.00  0.00    +0.000 A 
ATOM      4  C   UNL     1       1.948   3.095  19.699  0.00  0.00    +0.000 A 
ATOM      5  C   UNL     1       3.008   3.761  19.071  0.00  0.00    +0.000 A 
ATOM      6  C   UNL     1       3.122   5.156  19.242  0.00  0.00    +0.000 A 
ENDROOT
BRANCH   1   7
ATOM      7  N   UNL     1       2.433   7.251  20.240  0.00  0.00    +0.000 N 
ATOM      8  H   UNL     1       3.346   7.486  20.625  0.00  0.00    +0.000 HD
BRANCH   7  10
ATOM      9  C   UNL     1       1.854   8.609  18.323  0.00  0.00    +0.000 C 
ATOM     10  C   UNL     1       1.796   8.334  19.640  0.00  0.00    +0.000 C 
BRANCH  10  11
ATOM     11  C   UNL     1       0.926   9.184  20.520  0.00  0.00    +0.000 A 
ATOM     12  N   UNL     1       0.564   8.697  21.723  0.00  0.00    +0.000 NA
ATOM     13  C   UNL     1      -0.193   9.496  22.487  0.00  0.00    +0.000 A 
ATOM     14  C   UNL     1      -0.606  10.745  22.093  0.00  0.00    +0.000 A 
ATOM     15  C   UNL     1      -0.214  11.172  20.834  0.00  0.00    +0.000 A 
ATOM     16  N   UNL     1       0.572  10.401  20.045  0.00  0.00    +0.000 NA
BRANCH  15  17
ATOM     17  C   UNL     1      -0.625  12.547  20.195  0.00  0.00    +0.000 C 
ATOM     18  C   UNL     1      -0.893  12.606  18.661  0.00  0.00    +0.000 C 
ATOM     19  C   UNL     1      -0.247  14.000  18.652  0.00  0.00    +0.000 C 
ATOM     20  C   UNL     1       0.491  13.601  19.942  0.00  0.00    +0.000 C 
ENDBRANCH  15  17
ENDBRANCH  10  11
ENDBRANCH   7  10
ENDBRANCH   1   7
BRANCH   5  21
ATOM     21  C   UNL     1       3.998   2.977  18.213  0.00  0.00    +0.000 C 
ATOM     22  C   UNL     1       3.567   1.505  18.145  0.00  0.00    +0.000 C 
BRANCH  21  23
ATOM     23  C   UNL     1       4.162   3.620  16.818  0.00  0.00    +0.000 C 
BRANCH  23  24
ATOM     24  C   UNL     1       5.539   4.144  16.568  0.00  0.00    +0.000 A 
ATOM     25  N   UNL     1       6.423   4.488  17.486  0.00  0.00    +0.000 NA
ATOM     26  N   UNL     1       7.565   4.917  16.849  0.00  0.00    +0.000 NA
ATOM     27  C   UNL     1       7.352   4.837  15.558  0.00  0.00    +0.000 A 
ATOM     28  N   UNL     1       6.098   4.359  15.333  0.00  0.00    +0.000 N 
ATOM     29  C   UNL     1       5.505   4.133  14.043  0.00  0.00    +0.000 C 
ENDBRANCH  23  24
ENDBRANCH  21  23
ENDBRANCH   5  21
TORSDOF 7
ENDMDL
MODEL 3
REMARK VINA RESULT:      -8.1      2.339      3.985
REMARK  Name = 
REMARK  9 active torsions:
REMARK  status: ('A' for Active; 'I' for Inactive)
REMARK    1  A    between atoms: C_2  and  N_3
REMARK    2  A    between atoms: C_2  and  C_19
REMARK    3  A    between atoms: N_3  and  C_4
REMARK    4  A    between atoms: C_8  and  C_9
REMARK    5  A    between atoms: C_9  and  C_10
REMARK    6  A    between atoms: C_9  and  C_11
REMARK    7  A    between atoms: C_11  and  C_12
REMARK    8  A    between atoms: N_16  and  C_17
REMARK    9  A    between atoms: C_23  and  C_24
REMARK                            x       y       z     vdW  Elec       q    Type
REMARK                         _______ _______ _______ _____ _____    ______ ____
ROOT
ATOM      1  C   UNL     1       1.101   9.377  19.872  0.00  0.00    +0.000 A 
ATOM      2  C   UNL     1       1.382   9.792  18.566  0.00  0.00    +0.000 A 
ATOM      3  C   UNL     1       2.074   8.965  17.682  0.00  0.00    +0.000 A 
ATOM      4  C   UNL     1       2.513   7.707  18.098  0.00  0.00    +0.000 A 
ATOM      5  C   UNL     1       2.292   7.279  19.414  0.00  0.00    +0.000 A 
ATOM      6  C   UNL     1       1.584   8.128  20.288  0.00  0.00    +0.000 A 
ENDROOT
BRANCH   1   7
ATOM      7  N   UNL     1       0.310  10.132  20.757  0.00  0.00    +0.000 N 
ATOM      8  H   UNL     1       0.299   9.804  21.721  0.00  0.00    +0.000 HD
BRANCH   7  10
ATOM      9  C   UNL     1       0.685  12.520  20.870  0.00  0.00    +0.000 C 
ATOM     10  C   UNL     1      -0.103  11.456  20.625  0.00  0.00    +0.000 C 
BRANCH  10  11
ATOM     11  C   UNL     1      -1.487  11.686  20.091  0.00  0.00    +0.000 A 
ATOM     12  N   UNL     1      -2.292  12.543  20.749  0.00  0.00    +0.000 NA
ATOM     13  C   UNL     1      -3.510  12.737  20.227  0.00  0.00    +0.000 A 
ATOM     14  C   UNL     1      -3.953  12.106  19.091  0.00  0.00    +0.000 A 
ATOM     15  C   UNL     1      -3.080  11.221  18.479  0.00  0.00    +0.000 A 
ATOM     16  N   UNL     1      -1.831  11.019  18.965  0.00  0.00    +0.000 NA
BRANCH  15  17
ATOM     17  C   UNL     1      -3.423  10.374  17.201  0.00  0.00    +0.000 C 
ATOM     18  C   UNL     1      -2.251   9.845  16.321  0.00  0.00    +0.000 C 
ATOM     19  C   UNL     1      -3.127  10.106  15.085  0.00  0.00    +0.000 C 
ATOM     20  C   UNL     1      -3.909  11.129  15.929  0.00  0.00    +0.000 C 
ENDBRANCH  15  17
ENDBRANCH  10  11
ENDBRANCH   7  10
ENDBRANCH   1   7
BRANCH   5  21
ATOM     21  C   UNL     1       2.830   5.926  19.873  0.00  0.00    +0.000 C 
ATOM     22  C   UNL     1       1.731   5.165  20.628  0.00  0.00    +0.000 C 
BRANCH  21  23
ATOM     23  C   UNL     1       3.413   5.123  18.690  0.00  0.00    +0.000 C 
BRANCH  23  24
ATOM     24  C   UNL     1       3.868   3.752  19.073  0.00  0.00    +0.000 A 
ATOM     25  N   UNL     1       4.894   3.458  19.848  0.00  0.00    +0.000 NA
ATOM     26  N   UNL     1       4.977   2.088  19.957  0.00  0.00    +0.000 NA
ATOM     27  C   UNL     1       4.008   1.575  19.238  0.00  0.00    +0.000 A 
ATOM     28  N   UNL     1       3.288   2.577  18.664  0.00  0.00    +0.000 N 
ATOM     29  C   UNL     1       2.147   2.406  17.807  0.00  0.00    +0.000 C 
ENDBRANCH  23  24
ENDBRANCH  21  23
ENDBRANCH   5  21
TORSDOF 7
ENDMDL
MODEL 4
REMARK VINA RESULT:      -8.0      1.490      3.074
REMARK  Name = 
REMARK  9 active torsions:
REMARK  status: ('A' for Active; 'I' for Inactive)
REMARK    1  A    between atoms: C_2  and  N_3
REMARK    2  A    between atoms: C_2  and  C_19
REMARK    3  A    between atoms: N_3  and  C_4
REMARK    4  A    between atoms: C_8  and  C_9
REMARK    5  A    between atoms: C_9  and  C_10
REMARK    6  A    between atoms: C_9  and  C_11
REMARK    7  A    between atoms: C_11  and  C_12
REMARK    8  A    between atoms: N_16  and  C_17
REMARK    9  A    between atoms: C_23  and  C_24
REMARK                            x       y       z     vdW  Elec       q    Type
REMARK                         _______ _______ _______ _____ _____    ______ ____
ROOT
ATOM      1  C   UNL     1       1.455   8.790  19.702  0.00  0.00    +0.000 A 
ATOM      2  C   UNL     1       1.737   9.145  18.379  0.00  0.00    +0.000 A 
ATOM      3  C   UNL     1       2.471   8.298  17.548  0.00  0.00    +0.000 A 
ATOM      4  C   UNL     1       2.952   7.083  18.037  0.00  0.00    +0.000 A 
ATOM      5  C   UNL     1       2.731   6.718  19.372  0.00  0.00    +0.000 A 
ATOM      6  C   UNL     1       1.980   7.586  20.191  0.00  0.00    +0.000 A 
ENDROOT
BRANCH   1   7
ATOM      7  N   UNL     1       0.625   9.562  20.536  0.00  0.00    +0.000 N 
ATOM      8  H   UNL     1       0.446   9.168  21.458  0.00  0.00    +0.000 HD
BRANCH   7  10
ATOM      9  C   UNL     1       1.259  11.882  20.789  0.00  0.00    +0.000 C 
ATOM     10  C   UNL     1       0.366  10.928  20.465  0.00  0.00    +0.000 C 
BRANCH  10  11
ATOM     11  C   UNL     1      -0.965  11.340  19.908  0.00  0.00    +0.000 A 
ATOM     12  N   UNL     1      -1.859  11.909  20.740  0.00  0.00    +0.000 NA
ATOM     13  C   UNL     1      -3.025  12.283  20.198  0.00  0.00    +0.000 A 
ATOM     14  C   UNL     1      -3.333  12.101  18.872  0.00  0.00    +0.000 A 
ATOM     15  C   UNL     1      -2.375  11.489  18.080  0.00  0.00    +0.000 A 
ATOM     16  N   UNL     1      -1.175  11.121  18.589  0.00  0.00    +0.000 NA
BRANCH  15  17
ATOM     17  C   UNL     1      -2.563  11.156  16.556  0.00  0.00    +0.000 C 
ATOM     18  C   UNL     1      -3.982  11.305  15.930  0.00  0.00    +0.000 C 
ATOM     19  C   UNL     1      -3.679  10.064  15.075  0.00  0.00    +0.000 C 
ATOM     20  C   UNL     1      -2.639   9.660  16.135  0.00  0.00    +0.000 C 
ENDBRANCH  15  17
ENDBRANCH  10  11
ENDBRANCH   7  10
ENDBRANCH   1   7
BRANCH   5  21
ATOM     21  C   UNL     1       3.313   5.414  19.910  0.00  0.00    +0.000 C 
ATOM     22  C   UNL     1       2.245   4.670  20.723  0.00  0.00    +0.000 C 
BRANCH  21  23
ATOM     23  C   UNL     1       3.911   4.556  18.773  0.00  0.00    +0.000 C 
BRANCH  23  24
ATOM     24  C   UNL     1       5.393   4.691  18.648  0.00  0.00    +0.000 A 
ATOM     25  N   UNL     1       6.231   5.035  19.608  0.00  0.00    +0.000 NA
ATOM     26  N   UNL     1       7.506   5.042  19.090  0.00  0.00    +0.000 NA
ATOM     27  C   UNL     1       7.421   4.713  17.824  0.00  0.00    +0.000 A 
ATOM     28  N   UNL     1       6.119   4.485  17.501  0.00  0.00    +0.000 N 
ATOM     29  C   UNL     1       5.631   4.102  16.204  0.00  0.00    +0.000 C 
ENDBRANCH  23  24
ENDBRANCH  21  23
ENDBRANCH   5  21
TORSDOF 7
ENDMDL
MODEL 5
REMARK VINA RESULT:      -8.0      2.141      9.234
REMARK  Name = 
REMARK  9 active torsions:
REMARK  status: ('A' for Active; 'I' for Inactive)
REMARK    1  A    between atoms: C_2  and  N_3
REMARK    2  A    between atoms: C_2  and  C_19
REMARK    3  A    between atoms: N_3  and  C_4
REMARK    4  A    between atoms: C_8  and  C_9
REMARK    5  A    between atoms: C_9  and  C_10
REMARK    6  A    between atoms: C_9  and  C_11
REMARK    7  A    between atoms: C_11  and  C_12
REMARK    8  A    between atoms: N_16  and  C_17
REMARK    9  A    between atoms: C_23  and  C_24
REMARK                            x       y       z     vdW  Elec       q    Type
REMARK                         _______ _______ _______ _____ _____    ______ ____
ROOT
ATOM      1  C   UNL     1       2.432   7.105  19.614  0.00  0.00    +0.000 A 
ATOM      2  C   UNL     1       2.477   7.610  18.311  0.00  0.00    +0.000 A 
ATOM      3  C   UNL     1       1.850   8.813  17.984  0.00  0.00    +0.000 A 
ATOM      4  C   UNL     1       1.149   9.523  18.959  0.00  0.00    +0.000 A 
ATOM      5  C   UNL     1       1.041   9.022  20.263  0.00  0.00    +0.000 A 
ATOM      6  C   UNL     1       1.689   7.809  20.572  0.00  0.00    +0.000 A 
ENDROOT
BRANCH   1   7
ATOM      7  N   UNL     1       3.143   5.957  20.011  0.00  0.00    +0.000 N 
ATOM      8  H   UNL     1       3.082   5.726  21.001  0.00  0.00    +0.000 HD
BRANCH   7  10
ATOM      9  C   UNL     1       2.798   3.794  18.983  0.00  0.00    +0.000 C 
ATOM     10  C   UNL     1       3.552   4.884  19.222  0.00  0.00    +0.000 C 
BRANCH  10  11
ATOM     11  C   UNL     1       4.881   5.012  18.537  0.00  0.00    +0.000 A 
ATOM     12  N   UNL     1       5.984   5.139  19.301  0.00  0.00    +0.000 NA
ATOM     13  C   UNL     1       7.152   5.226  18.651  0.00  0.00    +0.000 A 
ATOM     14  C   UNL     1       7.257   5.202  17.282  0.00  0.00    +0.000 A 
ATOM     15  C   UNL     1       6.079   5.092  16.560  0.00  0.00    +0.000 A 
ATOM     16  N   UNL     1       4.883   4.976  17.184  0.00  0.00    +0.000 NA
BRANCH  15  17
ATOM     17  C   UNL     1       5.995   5.092  14.992  0.00  0.00    +0.000 C 
ATOM     18  C   UNL     1       5.427   3.831  14.275  0.00  0.00    +0.000 C 
ATOM     19  C   UNL     1       6.463   4.059  13.162  0.00  0.00    +0.000 C 
ATOM     20  C   UNL     1       7.302   4.843  14.186  0.00  0.00    +0.000 C 
ENDBRANCH  15  17
ENDBRANCH  10  11
ENDBRANCH   7  10
ENDBRANCH   1   7
BRANCH   5  21
ATOM     21  C   UNL     1       0.221   9.780  21.304  0.00  0.00    +0.000 C 
ATOM     22  C   UNL     1       0.559   9.255  22.706  0.00  0.00    +0.000 C 
BRANCH  21  23
ATOM     23  C   UNL     1       0.417  11.306  21.169  0.00  0.00    +0.000 C 
BRANCH  23  24
ATOM     24  C   UNL     1      -0.680  12.100  21.799  0.00  0.00    +0.000 A 
ATOM     25  N   UNL     1      -0.735  12.498  23.056  0.00  0.00    +0.000 NA
ATOM     26  N   UNL     1      -1.902  13.203  23.238  0.00  0.00    +0.000 NA
ATOM     27  C   UNL     1      -2.541  13.214  22.093  0.00  0.00    +0.000 A 
ATOM     28  N   UNL     1      -1.816  12.535  21.162  0.00  0.00    +0.000 N 
ATOM     29  C   UNL     1      -2.192  12.334  19.790  0.00  0.00    +0.000 C 
ENDBRANCH  23  24
ENDBRANCH  21  23
ENDBRANCH   5  21
TORSDOF 7
ENDMDL
MODEL 6
REMARK VINA RESULT:      -8.0      1.883      3.191
REMARK  Name = 
REMARK  9 active torsions:
REMARK  status: ('A' for Active; 'I' for Inactive)
REMARK    1  A    between atoms: C_2  and  N_3
REMARK    2  A    between atoms: C_2  and  C_19
REMARK    3  A    between atoms: N_3  and  C_4
REMARK    4  A    between atoms: C_8  and  C_9
REMARK    5  A    between atoms: C_9  and  C_10
REMARK    6  A    between atoms: C_9  and  C_11
REMARK    7  A    between atoms: C_11  and  C_12
REMARK    8  A    between atoms: N_16  and  C_17
REMARK    9  A    between atoms: C_23  and  C_24
REMARK                            x       y       z     vdW  Elec       q    Type
REMARK                         _______ _______ _______ _____ _____    ______ ____
ROOT
ATOM      1  C   UNL     1       2.683   6.887  18.153  0.00  0.00    +0.000 A 
ATOM      2  C   UNL     1       1.799   5.805  18.186  0.00  0.00    +0.000 A 
ATOM      3  C   UNL     1       2.208   4.530  17.797  0.00  0.00    +0.000 A 
ATOM      4  C   UNL     1       3.513   4.320  17.351  0.00  0.00    +0.000 A 
ATOM      5  C   UNL     1       4.412   5.390  17.258  0.00  0.00    +0.000 A 
ATOM      6  C   UNL     1       3.979   6.669  17.664  0.00  0.00    +0.000 A 
ENDROOT
BRANCH   1   7
ATOM      7  N   UNL     1       2.344   8.163  18.642  0.00  0.00    +0.000 N 
ATOM      8  H   UNL     1       2.467   8.930  17.982  0.00  0.00    +0.000 HD
BRANCH   7  10
ATOM      9  C   UNL     1       1.584   7.936  20.927  0.00  0.00    +0.000 C 
ATOM     10  C   UNL     1       1.495   8.481  19.699  0.00  0.00    +0.000 C 
BRANCH  10  11
ATOM     11  C   UNL     1       0.483   9.562  19.456  0.00  0.00    +0.000 A 
ATOM     12  N   UNL     1       0.025   9.739  18.202  0.00  0.00    +0.000 NA
ATOM     13  C   UNL     1      -0.894  10.699  18.032  0.00  0.00    +0.000 A 
ATOM     14  C   UNL     1      -1.359  11.487  19.056  0.00  0.00    +0.000 A 
ATOM     15  C   UNL     1      -0.826  11.264  20.316  0.00  0.00    +0.000 A 
ATOM     16  N   UNL     1       0.086  10.285  20.529  0.00  0.00    +0.000 NA
BRANCH  15  17
ATOM     17  C   UNL     1      -1.200  12.092  21.598  0.00  0.00    +0.000 C 
ATOM     18  C   UNL     1      -1.326  11.344  22.958  0.00  0.00    +0.000 C 
ATOM     19  C   UNL     1      -2.494  12.280  23.307  0.00  0.00    +0.000 C 
ATOM     20  C   UNL     1      -2.686  12.506  21.797  0.00  0.00    +0.000 C 
ENDBRANCH  15  17
ENDBRANCH  10  11
ENDBRANCH   7  10
ENDBRANCH   1   7
BRANCH   5  21
ATOM     21  C   UNL     1       5.818   5.157  16.712  0.00  0.00    +0.000 C 
ATOM     22  C   UNL     1       6.723   4.623  17.832  0.00  0.00    +0.000 C 
BRANCH  21  23
ATOM     23  C   UNL     1       5.793   4.240  15.470  0.00  0.00    +0.000 C 
BRANCH  23  24
ATOM     24  C   UNL     1       6.725   4.681  14.390  0.00  0.00    +0.000 A 
ATOM     25  N   UNL     1       7.712   5.549  14.516  0.00  0.00    +0.000 NA
ATOM     26  N   UNL     1       8.333   5.681  13.295  0.00  0.00    +0.000 NA
ATOM     27  C   UNL     1       7.707   4.901  12.447  0.00  0.00    +0.000 A 
ATOM     28  N   UNL     1       6.693   4.256  13.086  0.00  0.00    +0.000 N 
ATOM     29  C   UNL     1       5.786   3.317  12.484  0.00  0.00    +0.000 C 
ENDBRANCH  23  24
ENDBRANCH  21  23
ENDBRANCH   5  21
TORSDOF 7
ENDMDL
MODEL 7
REMARK VINA RESULT:      -7.9      2.373      9.030
REMARK  Name = 
REMARK  9 active torsions:
REMARK  status: ('A' for Active; 'I' for Inactive)
REMARK    1  A    between atoms: C_2  and  N_3
REMARK    2  A    between atoms: C_2  and  C_19
REMARK    3  A    between atoms: N_3  and  C_4
REMARK    4  A    between atoms: C_8  and  C_9
REMARK    5  A    between atoms: C_9  and  C_10
REMARK    6  A    between atoms: C_9  and  C_11
REMARK    7  A    between atoms: C_11  and  C_12
REMARK    8  A    between atoms: N_16  and  C_17
REMARK    9  A    between atoms: C_23  and  C_24
REMARK                            x       y       z     vdW  Elec       q    Type
REMARK                         _______ _______ _______ _____ _____    ______ ____
ROOT
ATOM      1  C   UNL     1       1.544   8.376  20.297  0.00  0.00    +0.000 A 
ATOM      2  C   UNL     1       1.399   8.406  21.688  0.00  0.00    +0.000 A 
ATOM      3  C   UNL     1       0.478   9.259  22.296  0.00  0.00    +0.000 A 
ATOM      4  C   UNL     1      -0.304  10.113  21.518  0.00  0.00    +0.000 A 
ATOM      5  C   UNL     1      -0.150  10.145  20.126  0.00  0.00    +0.000 A 
ATOM      6  C   UNL     1       0.781   9.269  19.532  0.00  0.00    +0.000 A 
ENDROOT
BRANCH   1   7
ATOM      7  N   UNL     1       2.378   7.453  19.639  0.00  0.00    +0.000 N 
ATOM      8  H   UNL     1       3.273   7.822  19.321  0.00  0.00    +0.000 HD
BRANCH   7  10
ATOM      9  C   UNL     1       1.538   5.370  20.538  0.00  0.00    +0.000 C 
ATOM     10  C   UNL     1       2.360   6.063  19.728  0.00  0.00    +0.000 C 
BRANCH  10  11
ATOM     11  C   UNL     1       3.259   5.311  18.790  0.00  0.00    +0.000 A 
ATOM     12  N   UNL     1       2.776   4.205  18.191  0.00  0.00    +0.000 NA
ATOM     13  C   UNL     1       3.602   3.577  17.344  0.00  0.00    +0.000 A 
ATOM     14  C   UNL     1       4.882   4.002  17.085  0.00  0.00    +0.000 A 
ATOM     15  C   UNL     1       5.319   5.133  17.754  0.00  0.00    +0.000 A 
ATOM     16  N   UNL     1       4.503   5.809  18.598  0.00  0.00    +0.000 NA
BRANCH  15  17
ATOM     17  C   UNL     1       6.761   5.743  17.621  0.00  0.00    +0.000 C 
ATOM     18  C   UNL     1       7.600   5.963  18.915  0.00  0.00    +0.000 C 
ATOM     19  C   UNL     1       8.147   7.251  18.282  0.00  0.00    +0.000 C 
ATOM     20  C   UNL     1       6.893   7.276  17.391  0.00  0.00    +0.000 C 
ENDBRANCH  15  17
ENDBRANCH  10  11
ENDBRANCH   7  10
ENDBRANCH   1   7
BRANCH   5  21
ATOM     21  C   UNL     1      -0.970  11.126  19.292  0.00  0.00    +0.000 C 
ATOM     22  C   UNL     1      -0.068  12.272  18.811  0.00  0.00    +0.000 C 
BRANCH  21  23
ATOM     23  C   UNL     1      -1.697  10.407  18.135  0.00  0.00    +0.000 C 
BRANCH  23  24
ATOM     24  C   UNL     1      -3.023  11.011  17.803  0.00  0.00    +0.000 A 
ATOM     25  N   UNL     1      -3.887  11.519  18.663  0.00  0.00    +0.000 NA
ATOM     26  N   UNL     1      -4.980  11.974  17.962  0.00  0.00    +0.000 NA
ATOM     27  C   UNL     1      -4.767  11.726  16.692  0.00  0.00    +0.000 A 
ATOM     28  N   UNL     1      -3.556  11.123  16.544  0.00  0.00    +0.000 N 
ATOM     29  C   UNL     1      -2.976  10.701  15.298  0.00  0.00    +0.000 C 
ENDBRANCH  23  24
ENDBRANCH  21  23
ENDBRANCH   5  21
TORSDOF 7
ENDMDL
MODEL 8
REMARK VINA RESULT:      -7.9      2.570      8.485
REMARK  Name = 
REMARK  9 active torsions:
REMARK  status: ('A' for Active; 'I' for Inactive)
REMARK    1  A    between atoms: C_2  and  N_3
REMARK    2  A    between atoms: C_2  and  C_19
REMARK    3  A    between atoms: N_3  and  C_4
REMARK    4  A    between atoms: C_8  and  C_9
REMARK    5  A    between atoms: C_9  and  C_10
REMARK    6  A    between atoms: C_9  and  C_11
REMARK    7  A    between atoms: C_11  and  C_12
REMARK    8  A    between atoms: N_16  and  C_17
REMARK    9  A    between atoms: C_23  and  C_24
REMARK                            x       y       z     vdW  Elec       q    Type
REMARK                         _______ _______ _______ _____ _____    ______ ____
ROOT
ATOM      1  C   UNL     1       1.630   8.069  20.486  0.00  0.00    +0.000 A 
ATOM      2  C   UNL     1       1.032   8.295  21.730  0.00  0.00    +0.000 A 
ATOM      3  C   UNL     1       0.028   9.252  21.882  0.00  0.00    +0.000 A 
ATOM      4  C   UNL     1      -0.383  10.013  20.788  0.00  0.00    +0.000 A 
ATOM      5  C   UNL     1       0.228   9.848  19.538  0.00  0.00    +0.000 A 
ATOM      6  C   UNL     1       1.234   8.871  19.406  0.00  0.00    +0.000 A 
ENDROOT
BRANCH   1   7
ATOM      7  N   UNL     1       2.563   7.039  20.266  0.00  0.00    +0.000 N 
ATOM      8  H   UNL     1       3.487   7.194  20.667  0.00  0.00    +0.000 HD
BRANCH   7  10
ATOM      9  C   UNL     1       1.344   4.969  20.550  0.00  0.00    +0.000 C 
ATOM     10  C   UNL     1       2.313   5.701  19.970  0.00  0.00    +0.000 C 
BRANCH  10  11
ATOM     11  C   UNL     1       3.128   5.085  18.870  0.00  0.00    +0.000 A 
ATOM     12  N   UNL     1       2.584   4.081  18.156  0.00  0.00    +0.000 NA
ATOM     13  C   UNL     1       3.335   3.575  17.169  0.00  0.00    +0.000 A 
ATOM     14  C   UNL     1       4.601   4.023  16.880  0.00  0.00    +0.000 A 
ATOM     15  C   UNL     1       5.105   5.043  17.670  0.00  0.00    +0.000 A 
ATOM     16  N   UNL     1       4.364   5.596  18.660  0.00  0.00    +0.000 NA
BRANCH  15  17
ATOM     17  C   UNL     1       6.545   5.654  17.521  0.00  0.00    +0.000 C 
ATOM     18  C   UNL     1       7.414   5.839  18.801  0.00  0.00    +0.000 C 
ATOM     19  C   UNL     1       7.949   7.143  18.189  0.00  0.00    +0.000 C 
ATOM     20  C   UNL     1       6.674   7.192  17.328  0.00  0.00    +0.000 C 
ENDBRANCH  15  17
ENDBRANCH  10  11
ENDBRANCH   7  10
ENDBRANCH   1   7
BRANCH   5  21
ATOM     21  C   UNL     1      -0.191  10.730  18.364  0.00  0.00    +0.000 C 
ATOM     22  C   UNL     1      -1.475  10.172  17.735  0.00  0.00    +0.000 C 
BRANCH  21  23
ATOM     23  C   UNL     1      -0.324  12.208  18.792  0.00  0.00    +0.000 C 
BRANCH  23  24
ATOM     24  C   UNL     1       0.941  12.986  18.629  0.00  0.00    +0.000 A 
ATOM     25  N   UNL     1       2.141  12.487  18.400  0.00  0.00    +0.000 NA
ATOM     26  N   UNL     1       3.035  13.530  18.313  0.00  0.00    +0.000 NA
ATOM     27  C   UNL     1       2.366  14.642  18.500  0.00  0.00    +0.000 A 
ATOM     28  N   UNL     1       1.052  14.352  18.704  0.00  0.00    +0.000 N 
ATOM     29  C   UNL     1       0.009  15.311  18.944  0.00  0.00    +0.000 C 
ENDBRANCH  23  24
ENDBRANCH  21  23
ENDBRANCH   5  21
TORSDOF 7
ENDMDL
MODEL 9
REMARK VINA RESULT:      -7.8      2.396      4.246
REMARK  Name = 
REMARK  9 active torsions:
REMARK  status: ('A' for Active; 'I' for Inactive)
REMARK    1  A    between atoms: C_2  and  N_3
REMARK    2  A    between atoms: C_2  and  C_19
REMARK    3  A    between atoms: N_3  and  C_4
REMARK    4  A    between atoms: C_8  and  C_9
REMARK    5  A    between atoms: C_9  and  C_10
REMARK    6  A    between atoms: C_9  and  C_11
REMARK    7  A    between atoms: C_11  and  C_12
REMARK    8  A    between atoms: N_16  and  C_17
REMARK    9  A    between atoms: C_23  and  C_24
REMARK                            x       y       z     vdW  Elec       q    Type
REMARK                         _______ _______ _______ _____ _____    ______ ____
ROOT
ATOM      1  C   UNL     1       1.403   9.648  18.863  0.00  0.00    +0.000 A 
ATOM      2  C   UNL     1       0.978   9.346  20.160  0.00  0.00    +0.000 A 
ATOM      3  C   UNL     1       1.315   8.135  20.764  0.00  0.00    +0.000 A 
ATOM      4  C   UNL     1       2.074   7.193  20.067  0.00  0.00    +0.000 A 
ATOM      5  C   UNL     1       2.475   7.441  18.748  0.00  0.00    +0.000 A 
ATOM      6  C   UNL     1       2.129   8.675  18.161  0.00  0.00    +0.000 A 
ENDROOT
BRANCH   1   7
ATOM      7  N   UNL     1       1.180  10.900  18.261  0.00  0.00    +0.000 N 
ATOM      8  H   UNL     1       1.185  10.902  17.242  0.00  0.00    +0.000 HD
BRANCH   7  10
ATOM      9  C   UNL     1       1.201  13.134  19.191  0.00  0.00    +0.000 C 
ATOM     10  C   UNL     1       0.553  12.017  18.808  0.00  0.00    +0.000 C 
BRANCH  10  11
ATOM     11  C   UNL     1      -0.946  11.986  18.882  0.00  0.00    +0.000 A 
ATOM     12  N   UNL     1      -1.546  12.566  19.940  0.00  0.00    +0.000 NA
ATOM     13  C   UNL     1      -2.885  12.536  19.957  0.00  0.00    +0.000 A 
ATOM     14  C   UNL     1      -3.638  11.946  18.972  0.00  0.00    +0.000 A 
ATOM     15  C   UNL     1      -2.954  11.349  17.926  0.00  0.00    +0.000 A 
ATOM     16  N   UNL     1      -1.601  11.382  17.863  0.00  0.00    +0.000 NA
BRANCH  15  17
ATOM     17  C   UNL     1      -3.639  10.588  16.735  0.00  0.00    +0.000 C 
ATOM     18  C   UNL     1      -2.786   9.586  15.900  0.00  0.00    +0.000 C 
ATOM     19  C   UNL     1      -3.553  10.051  14.652  0.00  0.00    +0.000 C 
ATOM     20  C   UNL     1      -3.862  11.359  15.402  0.00  0.00    +0.000 C 
ENDBRANCH  15  17
ENDBRANCH  10  11
ENDBRANCH   7  10
ENDBRANCH   1   7
BRANCH   5  21
ATOM     21  C   UNL     1       3.253   6.379  17.977  0.00  0.00    +0.000 C 
ATOM     22  C   UNL     1       4.458   7.027  17.281  0.00  0.00    +0.000 C 
BRANCH  21  23
ATOM     23  C   UNL     1       3.651   5.200  18.893  0.00  0.00    +0.000 C 
BRANCH  23  24
ATOM     24  C   UNL     1       2.903   3.942  18.593  0.00  0.00    +0.000 A 
ATOM     25  N   UNL     1       2.874   3.306  17.437  0.00  0.00    +0.000 NA
ATOM     26  N   UNL     1       2.077   2.193  17.573  0.00  0.00    +0.000 NA
ATOM     27  C   UNL     1       1.628   2.176  18.805  0.00  0.00    +0.000 A 
ATOM     28  N   UNL     1       2.117   3.251  19.481  0.00  0.00    +0.000 N 
ATOM     29  C   UNL     1       1.846   3.571  20.856  0.00  0.00    +0.000 C 
ENDBRANCH  23  24
ENDBRANCH  21  23
ENDBRANCH   5  21
TORSDOF 7
ENDMDL
