MODEL 1
REMARK VINA RESULT:      -8.1      0.000      0.000
REMARK  Name = 
REMARK  7 active torsions:
REMARK  status: ('A' for Active; 'I' for Inactive)
REMARK    1  A    between atoms: C_1  and  C_2
REMARK    2  A    between atoms: C_6  and  C_7
REMARK    3  A    between atoms: N_13  and  C_14
REMARK    4  A    between atoms: C_18  and  C_19
REMARK    5  A    between atoms: C_19  and  C_20
REMARK    6  A    between atoms: N_24  and  C_25
REMARK    7  A    between atoms: C_26  and  C_27
REMARK                            x       y       z     vdW  Elec       q    Type
REMARK                         _______ _______ _______ _____ _____    ______ ____
ROOT
ATOM      1  C   UNL     1       0.746   9.253  19.221  0.00  0.00    +0.000 A 
ATOM      2  C   UNL     1       0.340   9.775  17.984  0.00  0.00    +0.000 A 
ATOM      3  C   UNL     1      -0.638  10.756  17.928  0.00  0.00    +0.000 A 
ATOM      4  C   UNL     1      -1.136  11.295  19.107  0.00  0.00    +0.000 A 
ATOM      5  C   UNL     1      -0.689  10.855  20.375  0.00  0.00    +0.000 A 
ATOM      6  C   UNL     1       0.236   9.766  20.476  0.00  0.00    +0.000 A 
ENDROOT
BRANCH   1  15
ATOM      7  C   UNL     1       4.887   3.861  16.535  0.00  0.00    +0.000 C 
ATOM      8  C   UNL     1       4.070   4.611  17.545  0.00  0.00    +0.000 A 
ATOM      9  C   UNL     1       3.874   5.981  17.392  0.00  0.00    +0.000 A 
ATOM     10  C   UNL     1       3.070   6.617  18.314  0.00  0.00    +0.000 A 
ATOM     11  C   UNL     1       2.421   5.976  19.367  0.00  0.00    +0.000 A 
ATOM     12  C   UNL     1       2.677   4.627  19.596  0.00  0.00    +0.000 A 
ATOM     13  C   UNL     1       3.505   3.954  18.662  0.00  0.00    +0.000 A 
ATOM     14  C   UNL     1       1.501   6.962  20.043  0.00  0.00    +0.000 C 
ATOM     15  N   UNL     1       1.612   8.134  19.180  0.00  0.00    +0.000 N 
ATOM     16  C   UNL     1       2.646   8.006  18.282  0.00  0.00    +0.000 C 
ATOM     17  O   UNL     1       3.146   8.831  17.532  0.00  0.00    +0.000 OA
BRANCH  12  18
ATOM     18  C   UNL     1       2.129   3.863  20.774  0.00  0.00    +0.000 C 
ATOM     19  F   UNL     1       2.543   2.568  20.820  0.00  0.00    +0.000 F 
ATOM     20  F   UNL     1       2.479   4.414  21.967  0.00  0.00    +0.000 F 
ATOM     21  F   UNL     1       0.767   3.817  20.768  0.00  0.00    +0.000 F 
ENDBRANCH  12  18
ENDBRANCH   1  15
BRANCH   6  22
ATOM     22  C   UNL     1       0.676   9.086  21.881  0.00  0.00    +0.000 C 
ATOM     23  C   UNL     1      -0.286   9.192  23.078  0.00  0.00    +0.000 C 
ATOM     24  O   UNL     1       0.797   9.573  23.964  0.00  0.00    +0.000 OA
ATOM     25  C   UNL     1       1.721   9.631  22.848  0.00  0.00    +0.000 C 
ENDBRANCH   6  22
BRANCH   5  26
ATOM     26  C   UNL     1      -1.263  11.608  21.571  0.00  0.00    +0.000 C 
BRANCH  26  27
ATOM     27  C   UNL     1      -0.489  12.822  21.993  0.00  0.00    +0.000 A 
ATOM     28  N   UNL     1       0.762  13.126  21.698  0.00  0.00    +0.000 NA
ATOM     29  N   UNL     1       1.026  14.393  22.164  0.00  0.00    +0.000 NA
ATOM     30  C   UNL     1      -0.064  14.840  22.738  0.00  0.00    +0.000 A 
ATOM     31  N   UNL     1      -1.025  13.876  22.697  0.00  0.00    +0.000 N 
ATOM     32  C   UNL     1      -2.341  13.984  23.269  0.00  0.00    +0.000 C 
ENDBRANCH  26  27
ENDBRANCH   5  26
TORSDOF 5
ENDMDL
MODEL 2
REMARK VINA RESULT:      -8.0      2.174      2.922
REMARK  Name = 
REMARK  7 active torsions:
REMARK  status: ('A' for Active; 'I' for Inactive)
REMARK    1  A    between atoms: C_1  and  C_2
REMARK    2  A    between atoms: C_6  and  C_7
REMARK    3  A    between atoms: N_13  and  C_14
REMARK    4  A    between atoms: C_18  and  C_19
REMARK    5  A    between atoms: C_19  and  C_20
REMARK    6  A    between atoms: N_24  and  C_25
REMARK    7  A    between atoms: C_26  and  C_27
REMARK                            x       y       z     vdW  Elec       q    Type
REMARK                         _______ _______ _______ _____ _____    ______ ____
ROOT
ATOM      1  C   UNL     1      -0.565  10.270  18.529  0.00  0.00    +0.000 A 
ATOM      2  C   UNL     1      -1.389   9.999  17.427  0.00  0.00    +0.000 A 
ATOM      3  C   UNL     1      -2.613  10.636  17.298  0.00  0.00    +0.000 A 
ATOM      4  C   UNL     1      -2.972  11.622  18.209  0.00  0.00    +0.000 A 
ATOM      5  C   UNL     1      -2.129  11.984  19.285  0.00  0.00    +0.000 A 
ATOM      6  C   UNL     1      -0.908  11.271  19.517  0.00  0.00    +0.000 A 
ENDROOT
BRANCH   1  15
ATOM      7  C   UNL     1       5.374   6.372  16.800  0.00  0.00    +0.000 C 
ATOM      8  C   UNL     1       4.204   6.828  17.622  0.00  0.00    +0.000 A 
ATOM      9  C   UNL     1       3.654   8.088  17.398  0.00  0.00    +0.000 A 
ATOM     10  C   UNL     1       2.545   8.440  18.138  0.00  0.00    +0.000 A 
ATOM     11  C   UNL     1       1.925   7.610  19.070  0.00  0.00    +0.000 A 
ATOM     12  C   UNL     1       2.511   6.385  19.379  0.00  0.00    +0.000 A 
ATOM     13  C   UNL     1       3.656   6.005  18.632  0.00  0.00    +0.000 A 
ATOM     14  C   UNL     1       0.652   8.271  19.537  0.00  0.00    +0.000 C 
ATOM     15  N   UNL     1       0.578   9.448  18.678  0.00  0.00    +0.000 N 
ATOM     16  C   UNL     1       1.754   9.648  17.991  0.00  0.00    +0.000 C 
ATOM     17  O   UNL     1       2.124  10.603  17.324  0.00  0.00    +0.000 OA
BRANCH  12  18
ATOM     18  C   UNL     1       1.998   5.464  20.455  0.00  0.00    +0.000 C 
ATOM     19  F   UNL     1       2.902   4.522  20.838  0.00  0.00    +0.000 F 
ATOM     20  F   UNL     1       1.641   6.126  21.588  0.00  0.00    +0.000 F 
ATOM     21  F   UNL     1       0.891   4.777  20.058  0.00  0.00    +0.000 F 
ENDBRANCH  12  18
ENDBRANCH   1  15
BRANCH   6  22
ATOM     22  C   UNL     1       0.036  11.502  20.816  0.00  0.00    +0.000 C 
ATOM     23  C   UNL     1      -0.385  10.863  22.150  0.00  0.00    +0.000 C 
ATOM     24  O   UNL     1      -0.126  12.096  22.867  0.00  0.00    +0.000 OA
ATOM     25  C   UNL     1       0.143  12.790  21.624  0.00  0.00    +0.000 C 
ENDBRANCH   6  22
BRANCH   5  26
ATOM     26  C   UNL     1      -2.622  13.145  20.142  0.00  0.00    +0.000 C 
BRANCH  26  27
ATOM     27  C   UNL     1      -3.738  12.811  21.090  0.00  0.00    +0.000 A 
ATOM     28  N   UNL     1      -3.640  12.336  22.318  0.00  0.00    +0.000 NA
ATOM     29  N   UNL     1      -4.896  12.313  22.879  0.00  0.00    +0.000 NA
ATOM     30  C   UNL     1      -5.738  12.771  21.986  0.00  0.00    +0.000 A 
ATOM     31  N   UNL     1      -5.068  13.053  20.835  0.00  0.00    +0.000 N 
ATOM     32  C   UNL     1      -5.666  13.530  19.616  0.00  0.00    +0.000 C 
ENDBRANCH  26  27
ENDBRANCH   5  26
TORSDOF 5
ENDMDL
MODEL 3
REMARK VINA RESULT:      -7.9      4.166      8.995
REMARK  Name = 
REMARK  7 active torsions:
REMARK  status: ('A' for Active; 'I' for Inactive)
REMARK    1  A    between atoms: C_1  and  C_2
REMARK    2  A    between atoms: C_6  and  C_7
REMARK    3  A    between atoms: N_13  and  C_14
REMARK    4  A    between atoms: C_18  and  C_19
REMARK    5  A    between atoms: C_19  and  C_20
REMARK    6  A    between atoms: N_24  and  C_25
REMARK    7  A    between atoms: C_26  and  C_27
REMARK                            x       y       z     vdW  Elec       q    Type
REMARK                         _______ _______ _______ _____ _____    ______ ____
ROOT
ATOM      1  C   UNL     1       3.017   5.469  18.147  0.00  0.00    +0.000 A 
ATOM      2  C   UNL     1       1.992   4.628  17.690  0.00  0.00    +0.000 A 
ATOM      3  C   UNL     1       2.272   3.616  16.786  0.00  0.00    +0.000 A 
ATOM      4  C   UNL     1       3.589   3.370  16.418  0.00  0.00    +0.000 A 
ATOM      5  C   UNL     1       4.660   4.142  16.924  0.00  0.00    +0.000 A 
ATOM      6  C   UNL     1       4.400   5.268  17.771  0.00  0.00    +0.000 A 
ENDROOT
BRANCH   1  15
ATOM      7  C   UNL     1      -0.691   9.509  22.981  0.00  0.00    +0.000 C 
ATOM      8  C   UNL     1       0.195   9.218  21.806  0.00  0.00    +0.000 A 
ATOM      9  C   UNL     1       0.843   7.989  21.719  0.00  0.00    +0.000 A 
ATOM     10  C   UNL     1       1.600   7.745  20.593  0.00  0.00    +0.000 A 
ATOM     11  C   UNL     1       1.737   8.634  19.529  0.00  0.00    +0.000 A 
ATOM     12  C   UNL     1       1.177   9.905  19.635  0.00  0.00    +0.000 A 
ATOM     13  C   UNL     1       0.396  10.178  20.788  0.00  0.00    +0.000 A 
ATOM     14  C   UNL     1       2.489   7.948  18.417  0.00  0.00    +0.000 C 
ATOM     15  N   UNL     1       2.618   6.585  18.922  0.00  0.00    +0.000 N 
ATOM     16  C   UNL     1       2.265   6.501  20.250  0.00  0.00    +0.000 C 
ATOM     17  O   UNL     1       2.403   5.584  21.046  0.00  0.00    +0.000 OA
BRANCH  12  18
ATOM     18  C   UNL     1       1.365  10.986  18.603  0.00  0.00    +0.000 C 
ATOM     19  F   UNL     1       2.137  10.603  17.550  0.00  0.00    +0.000 F 
ATOM     20  F   UNL     1       0.189  11.418  18.073  0.00  0.00    +0.000 F 
ATOM     21  F   UNL     1       1.969  12.092  19.123  0.00  0.00    +0.000 F 
ENDBRANCH  12  18
ENDBRANCH   1  15
BRANCH   6  22
ATOM     22  C   UNL     1       5.546   6.307  18.263  0.00  0.00    +0.000 C 
ATOM     23  C   UNL     1       6.171   7.252  17.223  0.00  0.00    +0.000 C 
ATOM     24  O   UNL     1       7.507   6.959  17.703  0.00  0.00    +0.000 OA
ATOM     25  C   UNL     1       6.987   5.950  18.604  0.00  0.00    +0.000 C 
ENDBRANCH   6  22
BRANCH   5  26
ATOM     26  C   UNL     1       6.053   3.691  16.497  0.00  0.00    +0.000 C 
BRANCH  26  27
ATOM     27  C   UNL     1       6.608   4.388  15.289  0.00  0.00    +0.000 A 
ATOM     28  N   UNL     1       7.619   5.236  15.239  0.00  0.00    +0.000 NA
ATOM     29  N   UNL     1       7.886   5.521  13.921  0.00  0.00    +0.000 NA
ATOM     30  C   UNL     1       7.034   4.846  13.188  0.00  0.00    +0.000 A 
ATOM     31  N   UNL     1       6.185   4.158  14.001  0.00  0.00    +0.000 N 
ATOM     32  C   UNL     1       5.086   3.342  13.559  0.00  0.00    +0.000 C 
ENDBRANCH  26  27
ENDBRANCH   5  26
TORSDOF 5
ENDMDL
MODEL 4
REMARK VINA RESULT:      -7.8      3.695      8.343
REMARK  Name = 
REMARK  7 active torsions:
REMARK  status: ('A' for Active; 'I' for Inactive)
REMARK    1  A    between atoms: C_1  and  C_2
REMARK    2  A    between atoms: C_6  and  C_7
REMARK    3  A    between atoms: N_13  and  C_14
REMARK    4  A    between atoms: C_18  and  C_19
REMARK    5  A    between atoms: C_19  and  C_20
REMARK    6  A    between atoms: N_24  and  C_25
REMARK    7  A    between atoms: C_26  and  C_27
REMARK                            x       y       z     vdW  Elec       q    Type
REMARK                         _______ _______ _______ _____ _____    ______ ____
ROOT
ATOM      1  C   UNL     1       0.982   9.829  19.357  0.00  0.00    +0.000 A 
ATOM      2  C   UNL     1       1.527  10.003  18.076  0.00  0.00    +0.000 A 
ATOM      3  C   UNL     1       2.383   9.050  17.547  0.00  0.00    +0.000 A 
ATOM      4  C   UNL     1       2.614   7.872  18.246  0.00  0.00    +0.000 A 
ATOM      5  C   UNL     1       2.015   7.622  19.503  0.00  0.00    +0.000 A 
ATOM      6  C   UNL     1       1.214   8.630  20.133  0.00  0.00    +0.000 A 
ENDROOT
BRANCH   1  15
ATOM      7  C   UNL     1      -1.346  14.844  24.139  0.00  0.00    +0.000 C 
ATOM      8  C   UNL     1      -1.371  13.977  22.915  0.00  0.00    +0.000 A 
ATOM      9  C   UNL     1      -0.182  13.447  22.421  0.00  0.00    +0.000 A 
ATOM     10  C   UNL     1      -0.263  12.610  21.328  0.00  0.00    +0.000 A 
ATOM     11  C   UNL     1      -1.453  12.241  20.705  0.00  0.00    +0.000 A 
ATOM     12  C   UNL     1      -2.644  12.831  21.121  0.00  0.00    +0.000 A 
ATOM     13  C   UNL     1      -2.583  13.699  22.242  0.00  0.00    +0.000 A 
ATOM     14  C   UNL     1      -1.153  11.185  19.671  0.00  0.00    +0.000 C 
ATOM     15  N   UNL     1       0.267  10.927  19.892  0.00  0.00    +0.000 N 
ATOM     16  C   UNL     1       0.829  11.868  20.723  0.00  0.00    +0.000 C 
ATOM     17  O   UNL     1       2.001  12.080  20.995  0.00  0.00    +0.000 OA
BRANCH  12  18
ATOM     18  C   UNL     1      -3.969  12.601  20.442  0.00  0.00    +0.000 C 
ATOM     19  F   UNL     1      -3.878  11.839  19.319  0.00  0.00    +0.000 F 
ATOM     20  F   UNL     1      -4.872  11.980  21.248  0.00  0.00    +0.000 F 
ATOM     21  F   UNL     1      -4.555  13.768  20.053  0.00  0.00    +0.000 F 
ENDBRANCH  12  18
ENDBRANCH   1  15
BRANCH   6  22
ATOM     22  C   UNL     1       0.626   8.499  21.640  0.00  0.00    +0.000 C 
ATOM     23  C   UNL     1      -0.876   8.749  21.862  0.00  0.00    +0.000 C 
ATOM     24  O   UNL     1      -0.604   9.591  23.012  0.00  0.00    +0.000 OA
ATOM     25  C   UNL     1       0.822   9.508  22.765  0.00  0.00    +0.000 C 
ENDBRANCH   6  22
BRANCH   5  26
ATOM     26  C   UNL     1       2.293   6.247  20.101  0.00  0.00    +0.000 C 
BRANCH  26  27
ATOM     27  C   UNL     1       2.412   5.130  19.105  0.00  0.00    +0.000 A 
ATOM     28  N   UNL     1       1.439   4.535  18.438  0.00  0.00    +0.000 NA
ATOM     29  N   UNL     1       1.999   3.670  17.528  0.00  0.00    +0.000 NA
ATOM     30  C   UNL     1       3.301   3.747  17.655  0.00  0.00    +0.000 A 
ATOM     31  N   UNL     1       3.606   4.613  18.660  0.00  0.00    +0.000 N 
ATOM     32  C   UNL     1       4.934   4.920  19.123  0.00  0.00    +0.000 C 
ENDBRANCH  26  27
ENDBRANCH   5  26
TORSDOF 5
ENDMDL
MODEL 5
REMARK VINA RESULT:      -7.8      3.718      8.298
REMARK  Name = 
REMARK  7 active torsions:
REMARK  status: ('A' for Active; 'I' for Inactive)
REMARK    1  A    between atoms: C_1  and  C_2
REMARK    2  A    between atoms: C_6  and  C_7
REMARK    3  A    between atoms: N_13  and  C_14
REMARK    4  A    between atoms: C_18  and  C_19
REMARK    5  A    between atoms: C_19  and  C_20
REMARK    6  A    between atoms: N_24  and  C_25
REMARK    7  A    between atoms: C_26  and  C_27
REMARK                            x       y       z     vdW  Elec       q    Type
REMARK                         _______ _______ _______ _____ _____    ______ ____
ROOT
ATOM      1  C   UNL     1       0.961   9.843  19.405  0.00  0.00    +0.000 A 
ATOM      2  C   UNL     1       1.486   9.983  18.112  0.00  0.00    +0.000 A 
ATOM      3  C   UNL     1       2.332   9.015  17.595  0.00  0.00    +0.000 A 
ATOM      4  C   UNL     1       2.570   7.854  18.320  0.00  0.00    +0.000 A 
ATOM      5  C   UNL     1       1.989   7.638  19.591  0.00  0.00    +0.000 A 
ATOM      6  C   UNL     1       1.202   8.663  20.208  0.00  0.00    +0.000 A 
ENDROOT
BRANCH   1  15
ATOM      7  C   UNL     1      -1.268  14.994  24.089  0.00  0.00    +0.000 C 
ATOM      8  C   UNL     1      -1.319  14.093  22.891  0.00  0.00    +0.000 A 
ATOM      9  C   UNL     1      -0.140  13.548  22.388  0.00  0.00    +0.000 A 
ATOM     10  C   UNL     1      -0.243  12.680  21.321  0.00  0.00    +0.000 A 
ATOM     11  C   UNL     1      -1.446  12.294  20.734  0.00  0.00    +0.000 A 
ATOM     12  C   UNL     1      -2.628  12.897  21.156  0.00  0.00    +0.000 A 
ATOM     13  C   UNL     1      -2.544  13.796  22.251  0.00  0.00    +0.000 A 
ATOM     14  C   UNL     1      -1.167  11.209  19.724  0.00  0.00    +0.000 C 
ATOM     15  N   UNL     1       0.257  10.957  19.923  0.00  0.00    +0.000 N 
ATOM     16  C   UNL     1       0.836  11.920  20.716  0.00  0.00    +0.000 C 
ATOM     17  O   UNL     1       2.014  12.139  20.958  0.00  0.00    +0.000 OA
BRANCH  12  18
ATOM     18  C   UNL     1      -3.967  12.649  20.511  0.00  0.00    +0.000 C 
ATOM     19  F   UNL     1      -3.896  11.873  19.396  0.00  0.00    +0.000 F 
ATOM     20  F   UNL     1      -4.846  12.033  21.346  0.00  0.00    +0.000 F 
ATOM     21  F   UNL     1      -4.570  13.807  20.120  0.00  0.00    +0.000 F 
ENDBRANCH  12  18
ENDBRANCH   1  15
BRANCH   6  22
ATOM     22  C   UNL     1       0.635   8.572  21.726  0.00  0.00    +0.000 C 
ATOM     23  C   UNL     1      -0.863   8.825  21.964  0.00  0.00    +0.000 C 
ATOM     24  O   UNL     1      -0.578   9.698  23.086  0.00  0.00    +0.000 OA
ATOM     25  C   UNL     1       0.845   9.612  22.820  0.00  0.00    +0.000 C 
ENDBRANCH   6  22
BRANCH   5  26
ATOM     26  C   UNL     1       2.273   6.277  20.219  0.00  0.00    +0.000 C 
BRANCH  26  27
ATOM     27  C   UNL     1       3.243   5.415  19.463  0.00  0.00    +0.000 A 
ATOM     28  N   UNL     1       4.556   5.368  19.596  0.00  0.00    +0.000 NA
ATOM     29  N   UNL     1       5.038   4.342  18.818  0.00  0.00    +0.000 NA
ATOM     30  C   UNL     1       4.014   3.781  18.223  0.00  0.00    +0.000 A 
ATOM     31  N   UNL     1       2.875   4.446  18.559  0.00  0.00    +0.000 N 
ATOM     32  C   UNL     1       1.558   4.149  18.063  0.00  0.00    +0.000 C 
ENDBRANCH  26  27
ENDBRANCH   5  26
TORSDOF 5
ENDMDL
MODEL 6
REMARK VINA RESULT:      -7.7      3.747      8.250
REMARK  Name = 
REMARK  7 active torsions:
REMARK  status: ('A' for Active; 'I' for Inactive)
REMARK    1  A    between atoms: C_1  and  C_2
REMARK    2  A    between atoms: C_6  and  C_7
REMARK    3  A    between atoms: N_13  and  C_14
REMARK    4  A    between atoms: C_18  and  C_19
REMARK    5  A    between atoms: C_19  and  C_20
REMARK    6  A    between atoms: N_24  and  C_25
REMARK    7  A    between atoms: C_26  and  C_27
REMARK                            x       y       z     vdW  Elec       q    Type
REMARK                         _______ _______ _______ _____ _____    ______ ____
ROOT
ATOM      1  C   UNL     1       1.026   9.765  19.324  0.00  0.00    +0.000 A 
ATOM      2  C   UNL     1       1.590   9.953  18.054  0.00  0.00    +0.000 A 
ATOM      3  C   UNL     1       2.465   9.013  17.534  0.00  0.00    +0.000 A 
ATOM      4  C   UNL     1       2.698   7.833  18.230  0.00  0.00    +0.000 A 
ATOM      5  C   UNL     1       2.081   7.570  19.475  0.00  0.00    +0.000 A 
ATOM      6  C   UNL     1       1.259   8.564  20.098  0.00  0.00    +0.000 A 
ENDROOT
BRANCH   1  15
ATOM      7  C   UNL     1      -1.442  14.722  24.097  0.00  0.00    +0.000 C 
ATOM      8  C   UNL     1      -1.435  13.864  22.867  0.00  0.00    +0.000 A 
ATOM      9  C   UNL     1      -0.232  13.349  22.392  0.00  0.00    +0.000 A 
ATOM     10  C   UNL     1      -0.283  12.520  21.291  0.00  0.00    +0.000 A 
ATOM     11  C   UNL     1      -1.458  12.143  20.644  0.00  0.00    +0.000 A 
ATOM     12  C   UNL     1      -2.662  12.719  21.041  0.00  0.00    +0.000 A 
ATOM     13  C   UNL     1      -2.631  13.578  22.169  0.00  0.00    +0.000 A 
ATOM     14  C   UNL     1      -1.128  11.098  19.608  0.00  0.00    +0.000 C 
ATOM     15  N   UNL     1       0.290  10.853  19.854  0.00  0.00    +0.000 N 
ATOM     16  C   UNL     1       0.827  11.793  20.702  0.00  0.00    +0.000 C 
ATOM     17  O   UNL     1       1.992  12.014  20.998  0.00  0.00    +0.000 OA
BRANCH  12  18
ATOM     18  C   UNL     1      -3.972  12.481  20.336  0.00  0.00    +0.000 C 
ATOM     19  F   UNL     1      -4.547  13.618  19.860  0.00  0.00    +0.000 F 
ATOM     20  F   UNL     1      -3.852  11.644  19.271  0.00  0.00    +0.000 F 
ATOM     21  F   UNL     1      -4.900  11.911  21.156  0.00  0.00    +0.000 F 
ENDBRANCH  12  18
ENDBRANCH   1  15
BRANCH   6  22
ATOM     22  C   UNL     1       0.647   8.418  21.594  0.00  0.00    +0.000 C 
ATOM     23  C   UNL     1      -0.860   8.655  21.793  0.00  0.00    +0.000 C 
ATOM     24  O   UNL     1      -0.614   9.490  22.953  0.00  0.00    +0.000 OA
ATOM     25  C   UNL     1       0.817   9.421  22.729  0.00  0.00    +0.000 C 
ENDBRANCH   6  22
BRANCH   5  26
ATOM     26  C   UNL     1       2.365   6.194  20.069  0.00  0.00    +0.000 C 
BRANCH  26  27
ATOM     27  C   UNL     1       1.850   5.033  19.269  0.00  0.00    +0.000 A 
ATOM     28  N   UNL     1       1.723   4.949  17.957  0.00  0.00    +0.000 NA
ATOM     29  N   UNL     1       1.353   3.665  17.635  0.00  0.00    +0.000 NA
ATOM     30  C   UNL     1       1.258   2.986  18.753  0.00  0.00    +0.000 A 
ATOM     31  N   UNL     1       1.516   3.812  19.805  0.00  0.00    +0.000 N 
ATOM     32  C   UNL     1       1.460   3.436  21.193  0.00  0.00    +0.000 C 
ENDBRANCH  26  27
ENDBRANCH   5  26
TORSDOF 5
ENDMDL
MODEL 7
REMARK VINA RESULT:      -7.7      3.591      8.126
REMARK  Name = 
REMARK  7 active torsions:
REMARK  status: ('A' for Active; 'I' for Inactive)
REMARK    1  A    between atoms: C_1  and  C_2
REMARK    2  A    between atoms: C_6  and  C_7
REMARK    3  A    between atoms: N_13  and  C_14
REMARK    4  A    between atoms: C_18  and  C_19
REMARK    5  A    between atoms: C_19  and  C_20
REMARK    6  A    between atoms: N_24  and  C_25
REMARK    7  A    between atoms: C_26  and  C_27
REMARK                            x       y       z     vdW  Elec       q    Type
REMARK                         _______ _______ _______ _____ _____    ______ ____
ROOT
ATOM      1  C   UNL     1       1.368   8.958  18.900  0.00  0.00    +0.000 A 
ATOM      2  C   UNL     1       2.083   8.878  17.695  0.00  0.00    +0.000 A 
ATOM      3  C   UNL     1       3.044   7.895  17.519  0.00  0.00    +0.000 A 
ATOM      4  C   UNL     1       3.220   6.925  18.498  0.00  0.00    +0.000 A 
ATOM      5  C   UNL     1       2.459   6.923  19.690  0.00  0.00    +0.000 A 
ATOM      6  C   UNL     1       1.536   7.986  19.959  0.00  0.00    +0.000 A 
ENDROOT
BRANCH   1  15
ATOM      7  C   UNL     1      -1.924  14.659  22.078  0.00  0.00    +0.000 C 
ATOM      8  C   UNL     1      -1.702  13.570  21.071  0.00  0.00    +0.000 A 
ATOM      9  C   UNL     1      -0.430  13.027  20.912  0.00  0.00    +0.000 A 
ATOM     10  C   UNL     1      -0.286  11.990  20.015  0.00  0.00    +0.000 A 
ATOM     11  C   UNL     1      -1.331  11.434  19.281  0.00  0.00    +0.000 A 
ATOM     12  C   UNL     1      -2.593  12.021  19.351  0.00  0.00    +0.000 A 
ATOM     13  C   UNL     1      -2.761  13.092  20.266  0.00  0.00    +0.000 A 
ATOM     14  C   UNL     1      -0.820  10.217  18.552  0.00  0.00    +0.000 C 
ATOM     15  N   UNL     1       0.540  10.094  19.066  0.00  0.00    +0.000 N 
ATOM     16  C   UNL     1       0.916  11.212  19.775  0.00  0.00    +0.000 C 
ATOM     17  O   UNL     1       2.013  11.544  20.201  0.00  0.00    +0.000 OA
BRANCH  12  18
ATOM     18  C   UNL     1      -3.764  11.582  18.511  0.00  0.00    +0.000 C 
ATOM     19  F   UNL     1      -3.946  10.234  18.496  0.00  0.00    +0.000 F 
ATOM     20  F   UNL     1      -4.942  12.118  18.930  0.00  0.00    +0.000 F 
ATOM     21  F   UNL     1      -3.627  11.953  17.207  0.00  0.00    +0.000 F 
ENDBRANCH  12  18
ENDBRANCH   1  15
BRANCH   6  22
ATOM     22  C   UNL     1       0.745   8.156  21.365  0.00  0.00    +0.000 C 
ATOM     23  C   UNL     1      -0.758   8.483  21.323  0.00  0.00    +0.000 C 
ATOM     24  O   UNL     1      -0.600   9.518  22.326  0.00  0.00    +0.000 OA
ATOM     25  C   UNL     1       0.840   9.354  22.302  0.00  0.00    +0.000 C 
ENDBRANCH   6  22
BRANCH   5  26
ATOM     26  C   UNL     1       2.705   5.742  20.623  0.00  0.00    +0.000 C 
BRANCH  26  27
ATOM     27  C   UNL     1       2.109   4.439  20.176  0.00  0.00    +0.000 A 
ATOM     28  N   UNL     1       0.837   4.082  20.198  0.00  0.00    +0.000 NA
ATOM     29  N   UNL     1       0.713   2.868  19.564  0.00  0.00    +0.000 NA
ATOM     30  C   UNL     1       1.908   2.502  19.169  0.00  0.00    +0.000 A 
ATOM     31  N   UNL     1       2.820   3.431  19.569  0.00  0.00    +0.000 N 
ATOM     32  C   UNL     1       4.241   3.348  19.358  0.00  0.00    +0.000 C 
ENDBRANCH  26  27
ENDBRANCH   5  26
TORSDOF 5
ENDMDL
MODEL 8
REMARK VINA RESULT:      -7.7      2.212      2.938
REMARK  Name = 
REMARK  7 active torsions:
REMARK  status: ('A' for Active; 'I' for Inactive)
REMARK    1  A    between atoms: C_1  and  C_2
REMARK    2  A    between atoms: C_6  and  C_7
REMARK    3  A    between atoms: N_13  and  C_14
REMARK    4  A    between atoms: C_18  and  C_19
REMARK    5  A    between atoms: C_19  and  C_20
REMARK    6  A    between atoms: N_24  and  C_25
REMARK    7  A    between atoms: C_26  and  C_27
REMARK                            x       y       z     vdW  Elec       q    Type
REMARK                         _______ _______ _______ _____ _____    ______ ____
ROOT
ATOM      1  C   UNL     1      -0.468  10.219  18.468  0.00  0.00    +0.000 A 
ATOM      2  C   UNL     1      -1.268   9.982  17.340  0.00  0.00    +0.000 A 
ATOM      3  C   UNL     1      -2.489  10.624  17.204  0.00  0.00    +0.000 A 
ATOM      4  C   UNL     1      -2.866  11.584  18.134  0.00  0.00    +0.000 A 
ATOM      5  C   UNL     1      -2.047  11.914  19.238  0.00  0.00    +0.000 A 
ATOM      6  C   UNL     1      -0.832  11.192  19.476  0.00  0.00    +0.000 A 
ENDROOT
BRANCH   1  15
ATOM      7  C   UNL     1       5.454   6.294  16.748  0.00  0.00    +0.000 C 
ATOM      8  C   UNL     1       4.285   6.755  17.567  0.00  0.00    +0.000 A 
ATOM      9  C   UNL     1       3.742   8.017  17.344  0.00  0.00    +0.000 A 
ATOM     10  C   UNL     1       2.633   8.374  18.081  0.00  0.00    +0.000 A 
ATOM     11  C   UNL     1       2.006   7.547  19.011  0.00  0.00    +0.000 A 
ATOM     12  C   UNL     1       2.586   6.318  19.319  0.00  0.00    +0.000 A 
ATOM     13  C   UNL     1       3.730   5.933  18.575  0.00  0.00    +0.000 A 
ATOM     14  C   UNL     1       0.736   8.213  19.476  0.00  0.00    +0.000 C 
ATOM     15  N   UNL     1       0.670   9.392  18.618  0.00  0.00    +0.000 N 
ATOM     16  C   UNL     1       1.848   9.587  17.934  0.00  0.00    +0.000 C 
ATOM     17  O   UNL     1       2.225  10.540  17.269  0.00  0.00    +0.000 OA
BRANCH  12  18
ATOM     18  C   UNL     1       2.066   5.398  20.394  0.00  0.00    +0.000 C 
ATOM     19  F   UNL     1       2.967   4.456  20.783  0.00  0.00    +0.000 F 
ATOM     20  F   UNL     1       1.701   6.062  21.523  0.00  0.00    +0.000 F 
ATOM     21  F   UNL     1       0.961   4.710  19.990  0.00  0.00    +0.000 F 
ENDBRANCH  12  18
ENDBRANCH   1  15
BRANCH   6  22
ATOM     22  C   UNL     1       0.084  11.385  20.801  0.00  0.00    +0.000 C 
ATOM     23  C   UNL     1      -0.409  10.777  22.126  0.00  0.00    +0.000 C 
ATOM     24  O   UNL     1      -0.109  12.000  22.844  0.00  0.00    +0.000 OA
ATOM     25  C   UNL     1       0.231  12.671  21.605  0.00  0.00    +0.000 C 
ENDBRANCH   6  22
BRANCH   5  26
ATOM     26  C   UNL     1      -2.557  13.051  20.117  0.00  0.00    +0.000 C 
BRANCH  26  27
ATOM     27  C   UNL     1      -3.991  12.932  20.547  0.00  0.00    +0.000 A 
ATOM     28  N   UNL     1      -5.068  12.956  19.783  0.00  0.00    +0.000 NA
ATOM     29  N   UNL     1      -6.163  12.669  20.563  0.00  0.00    +0.000 NA
ATOM     30  C   UNL     1      -5.740  12.478  21.789  0.00  0.00    +0.000 A 
ATOM     31  N   UNL     1      -4.393  12.676  21.837  0.00  0.00    +0.000 N 
ATOM     32  C   UNL     1      -3.581  12.602  23.022  0.00  0.00    +0.000 C 
ENDBRANCH  26  27
ENDBRANCH   5  26
TORSDOF 5
ENDMDL
MODEL 9
REMARK VINA RESULT:      -7.7      4.259      6.847
REMARK  Name = 
REMARK  7 active torsions:
REMARK  status: ('A' for Active; 'I' for Inactive)
REMARK    1  A    between atoms: C_1  and  C_2
REMARK    2  A    between atoms: C_6  and  C_7
REMARK    3  A    between atoms: N_13  and  C_14
REMARK    4  A    between atoms: C_18  and  C_19
REMARK    5  A    between atoms: C_19  and  C_20
REMARK    6  A    between atoms: N_24  and  C_25
REMARK    7  A    between atoms: C_26  and  C_27
REMARK                            x       y       z     vdW  Elec       q    Type
REMARK                         _______ _______ _______ _____ _____    ______ ____
ROOT
ATOM      1  C   UNL     1      -1.601  14.010  21.631  0.00  0.00    +0.000 A 
ATOM      2  C   UNL     1      -0.852  15.126  21.231  0.00  0.00    +0.000 A 
ATOM      3  C   UNL     1      -1.112  16.373  21.778  0.00  0.00    +0.000 A 
ATOM      4  C   UNL     1      -2.043  16.492  22.802  0.00  0.00    +0.000 A 
ATOM      5  C   UNL     1      -2.757  15.374  23.293  0.00  0.00    +0.000 A 
ATOM      6  C   UNL     1      -2.600  14.090  22.676  0.00  0.00    +0.000 A 
ENDROOT
BRANCH   1  15
ATOM      7  C   UNL     1       1.790   8.797  17.789  0.00  0.00    +0.000 C 
ATOM      8  C   UNL     1       0.644   9.611  18.312  0.00  0.00    +0.000 A 
ATOM      9  C   UNL     1       0.793  10.330  19.495  0.00  0.00    +0.000 A 
ATOM     10  C   UNL     1      -0.268  11.108  19.907  0.00  0.00    +0.000 A 
ATOM     11  C   UNL     1      -1.464  11.242  19.206  0.00  0.00    +0.000 A 
ATOM     12  C   UNL     1      -1.673  10.461  18.072  0.00  0.00    +0.000 A 
ATOM     13  C   UNL     1      -0.595   9.650  17.633  0.00  0.00    +0.000 A 
ATOM     14  C   UNL     1      -2.302  12.305  19.872  0.00  0.00    +0.000 C 
ATOM     15  N   UNL     1      -1.397  12.817  20.896  0.00  0.00    +0.000 N 
ATOM     16  C   UNL     1      -0.289  12.016  21.040  0.00  0.00    +0.000 C 
ATOM     17  O   UNL     1       0.585  12.024  21.895  0.00  0.00    +0.000 OA
BRANCH  12  18
ATOM     18  C   UNL     1      -2.971  10.432  17.307  0.00  0.00    +0.000 C 
ATOM     19  F   UNL     1      -4.023   9.981  18.042  0.00  0.00    +0.000 F 
ATOM     20  F   UNL     1      -3.334  11.657  16.840  0.00  0.00    +0.000 F 
ATOM     21  F   UNL     1      -2.905   9.619  16.215  0.00  0.00    +0.000 F 
ENDBRANCH  12  18
ENDBRANCH   1  15
BRANCH   6  22
ATOM     22  C   UNL     1      -3.495  12.793  23.059  0.00  0.00    +0.000 C 
ATOM     23  C   UNL     1      -4.954  12.742  22.573  0.00  0.00    +0.000 C 
ATOM     24  O   UNL     1      -5.416  12.320  23.881  0.00  0.00    +0.000 OA
ATOM     25  C   UNL     1      -4.086  12.489  24.431  0.00  0.00    +0.000 C 
ENDBRANCH   6  22
BRANCH   5  26
ATOM     26  C   UNL     1      -3.675  15.652  24.478  0.00  0.00    +0.000 C 
BRANCH  26  27
ATOM     27  C   UNL     1      -4.891  16.475  24.166  0.00  0.00    +0.000 A 
ATOM     28  N   UNL     1      -5.962  16.109  23.486  0.00  0.00    +0.000 NA
ATOM     29  N   UNL     1      -6.894  17.117  23.562  0.00  0.00    +0.000 NA
ATOM     30  C   UNL     1      -6.378  18.082  24.283  0.00  0.00    +0.000 A 
ATOM     31  N   UNL     1      -5.109  17.746  24.646  0.00  0.00    +0.000 N 
ATOM     32  C   UNL     1      -4.210  18.576  25.403  0.00  0.00    +0.000 C 
ENDBRANCH  26  27
ENDBRANCH   5  26
TORSDOF 5
ENDMDL
