MODEL 1
REMARK VINA RESULT:      -8.8      0.000      0.000
REMARK  Name = 
REMARK  5 active torsions:
REMARK  status: ('A' for Active; 'I' for Inactive)
REMARK    1  A    between atoms: C_2  and  C_17
REMARK    2  A    between atoms: N_3  and  C_4
REMARK    3  A    between atoms: C_4  and  C_5
REMARK    4  A    between atoms: C_5  and  C_6
REMARK    5  A    between atoms: N_9  and  C_10
REMARK                            x       y       z     vdW  Elec       q    Type
REMARK                         _______ _______ _______ _____ _____    ______ ____
ROOT
ATOM      1  O   UNL     1       8.576   7.327  18.973  0.00  0.00    +0.000 OA
ATOM      2  C   UNL     1       8.189   8.150  18.154  0.00  0.00    +0.000 C 
ATOM      3  N   UNL     1       7.453   7.843  17.022  0.00  0.00    +0.000 N 
ATOM      4  H   UNL     1       7.412   8.536  16.285  0.00  0.00    +0.000 HD
ENDROOT
BRANCH   2   5
ATOM      5  C   UNL     1       8.520   9.594  18.319  0.00  0.00    +0.000 A 
ATOM      6  C   UNL     1       7.913  10.534  17.493  0.00  0.00    +0.000 A 
ATOM      7  C   UNL     1       8.278  11.872  17.589  0.00  0.00    +0.000 A 
ATOM      8  F   UNL     1       7.682  12.734  16.745  0.00  0.00    +0.000 F 
ATOM      9  C   UNL     1       9.222  12.336  18.498  0.00  0.00    +0.000 A 
ATOM     10  N   UNL     1       9.565  13.642  18.514  0.00  0.00    +0.000 NA
ATOM     11  C   UNL     1      10.469  14.058  19.419  0.00  0.00    +0.000 A 
ATOM     12  C   UNL     1      11.050  13.228  20.352  0.00  0.00    +0.000 A 
ATOM     13  C   UNL     1      10.705  11.877  20.337  0.00  0.00    +0.000 A 
ATOM     14  C   UNL     1       9.786  11.395  19.387  0.00  0.00    +0.000 A 
ATOM     15  C   UNL     1       9.429  10.026  19.295  0.00  0.00    +0.000 A 
ENDBRANCH   2   5
BRANCH   3  16
ATOM     16  C   UNL     1       7.078   6.474  16.685  0.00  0.00    +0.000 C 
BRANCH  16  17
ATOM     17  C   UNL     1       5.702   6.402  16.016  0.00  0.00    +0.000 C 
BRANCH  17  18
ATOM     18  C   UNL     1       4.568   6.369  16.988  0.00  0.00    +0.000 A 
ATOM     19  C   UNL     1       3.838   7.468  17.481  0.00  0.00    +0.000 A 
ATOM     20  C   UNL     1       2.873   6.917  18.287  0.00  0.00    +0.000 A 
ATOM     21  N   UNL     1       3.035   5.547  18.250  0.00  0.00    +0.000 N 
ATOM     22  N   UNL     1       4.098   5.209  17.465  0.00  0.00    +0.000 NA
BRANCH  21  23
ATOM     23  C   UNL     1       2.228   4.559  18.888  0.00  0.00    +0.000 A 
ATOM     24  C   UNL     1       1.632   3.524  18.150  0.00  0.00    +0.000 A 
ATOM     25  C   UNL     1       0.875   2.541  18.794  0.00  0.00    +0.000 A 
ATOM     26  C   UNL     1       0.700   2.584  20.175  0.00  0.00    +0.000 A 
ATOM     27  C   UNL     1       1.276   3.616  20.915  0.00  0.00    +0.000 A 
ATOM     28  C   UNL     1       2.038   4.601  20.277  0.00  0.00    +0.000 A 
ENDBRANCH  21  23
ENDBRANCH  17  18
ENDBRANCH  16  17
ENDBRANCH   3  16
TORSDOF 5
ENDMDL
MODEL 2
REMARK VINA RESULT:      -8.8      4.093      7.248
REMARK  Name = 
REMARK  5 active torsions:
REMARK  status: ('A' for Active; 'I' for Inactive)
REMARK    1  A    between atoms: C_2  and  C_17
REMARK    2  A    between atoms: N_3  and  C_4
REMARK    3  A    between atoms: C_4  and  C_5
REMARK    4  A    between atoms: C_5  and  C_6
REMARK    5  A    between atoms: N_9  and  C_10
REMARK                            x       y       z     vdW  Elec       q    Type
REMARK                         _______ _______ _______ _____ _____    ______ ____
ROOT
ATOM      1  O   UNL     1       2.491   4.775  21.652  0.00  0.00    +0.000 OA
ATOM      2  C   UNL     1       1.932   5.009  20.589  0.00  0.00    +0.000 C 
ATOM      3  N   UNL     1       1.421   4.040  19.741  0.00  0.00    +0.000 N 
ATOM      4  H   UNL     1       1.223   4.307  18.785  0.00  0.00    +0.000 HD
ENDROOT
BRANCH   2   5
ATOM      5  C   UNL     1       1.780   6.411  20.106  0.00  0.00    +0.000 A 
ATOM      6  C   UNL     1       2.255   6.757  18.846  0.00  0.00    +0.000 A 
ATOM      7  C   UNL     1       2.188   8.080  18.424  0.00  0.00    +0.000 A 
ATOM      8  F   UNL     1       2.689   8.364  17.208  0.00  0.00    +0.000 F 
ATOM      9  C   UNL     1       1.643   9.096  19.202  0.00  0.00    +0.000 A 
ATOM     10  N   UNL     1       1.645  10.369  18.754  0.00  0.00    +0.000 NA
ATOM     11  C   UNL     1       1.093  11.323  19.526  0.00  0.00    +0.000 A 
ATOM     12  C   UNL     1       0.501  11.070  20.743  0.00  0.00    +0.000 A 
ATOM     13  C   UNL     1       0.502   9.758  21.214  0.00  0.00    +0.000 A 
ATOM     14  C   UNL     1       1.094   8.734  20.452  0.00  0.00    +0.000 A 
ATOM     15  C   UNL     1       1.164   7.390  20.898  0.00  0.00    +0.000 A 
ENDBRANCH   2   5
BRANCH   3  16
ATOM     16  C   UNL     1       1.520   2.615  20.039  0.00  0.00    +0.000 C 
BRANCH  16  17
ATOM     17  C   UNL     1       2.652   1.940  19.260  0.00  0.00    +0.000 C 
BRANCH  17  18
ATOM     18  C   UNL     1       3.413   2.880  18.382  0.00  0.00    +0.000 A 
ATOM     19  C   UNL     1       3.166   3.165  17.025  0.00  0.00    +0.000 A 
ATOM     20  C   UNL     1       4.089   4.126  16.694  0.00  0.00    +0.000 A 
ATOM     21  N   UNL     1       4.833   4.393  17.824  0.00  0.00    +0.000 N 
ATOM     22  N   UNL     1       4.431   3.606  18.863  0.00  0.00    +0.000 NA
BRANCH  21  23
ATOM     23  C   UNL     1       5.870   5.362  17.974  0.00  0.00    +0.000 A 
ATOM     24  C   UNL     1       6.898   5.183  18.914  0.00  0.00    +0.000 A 
ATOM     25  C   UNL     1       7.928   6.121  19.024  0.00  0.00    +0.000 A 
ATOM     26  C   UNL     1       7.940   7.247  18.203  0.00  0.00    +0.000 A 
ATOM     27  C   UNL     1       6.916   7.441  17.276  0.00  0.00    +0.000 A 
ATOM     28  C   UNL     1       5.884   6.503  17.159  0.00  0.00    +0.000 A 
ENDBRANCH  21  23
ENDBRANCH  17  18
ENDBRANCH  16  17
ENDBRANCH   3  16
TORSDOF 5
ENDMDL
MODEL 3
REMARK VINA RESULT:      -8.6      4.326      7.418
REMARK  Name = 
REMARK  5 active torsions:
REMARK  status: ('A' for Active; 'I' for Inactive)
REMARK    1  A    between atoms: C_2  and  C_17
REMARK    2  A    between atoms: N_3  and  C_4
REMARK    3  A    between atoms: C_4  and  C_5
REMARK    4  A    between atoms: C_5  and  C_6
REMARK    5  A    between atoms: N_9  and  C_10
REMARK                            x       y       z     vdW  Elec       q    Type
REMARK                         _______ _______ _______ _____ _____    ______ ____
ROOT
ATOM      1  O   UNL     1       2.261   4.095  21.819  0.00  0.00    +0.000 OA
ATOM      2  C   UNL     1       2.025   4.506  20.691  0.00  0.00    +0.000 C 
ATOM      3  N   UNL     1       1.930   3.702  19.567  0.00  0.00    +0.000 N 
ATOM      4  H   UNL     1       1.998   4.148  18.661  0.00  0.00    +0.000 HD
ENDROOT
BRANCH   2   5
ATOM      5  C   UNL     1       1.839   5.963  20.440  0.00  0.00    +0.000 A 
ATOM      6  C   UNL     1       1.187   6.744  21.388  0.00  0.00    +0.000 A 
ATOM      7  C   UNL     1       0.941   8.086  21.122  0.00  0.00    +0.000 A 
ATOM      8  F   UNL     1       0.280   8.788  22.061  0.00  0.00    +0.000 F 
ATOM      9  C   UNL     1       1.337   8.710  19.944  0.00  0.00    +0.000 A 
ATOM     10  N   UNL     1       1.032  10.008  19.727  0.00  0.00    +0.000 NA
ATOM     11  C   UNL     1       1.447  10.583  18.584  0.00  0.00    +0.000 A 
ATOM     12  C   UNL     1       2.192   9.928  17.628  0.00  0.00    +0.000 A 
ATOM     13  C   UNL     1       2.505   8.586  17.844  0.00  0.00    +0.000 A 
ATOM     14  C   UNL     1       2.065   7.938  19.012  0.00  0.00    +0.000 A 
ATOM     15  C   UNL     1       2.315   6.566  19.266  0.00  0.00    +0.000 A 
ENDBRANCH   2   5
BRANCH   3  16
ATOM     16  C   UNL     1       2.125   2.257  19.626  0.00  0.00    +0.000 C 
BRANCH  16  17
ATOM     17  C   UNL     1       3.163   1.773  18.609  0.00  0.00    +0.000 C 
BRANCH  17  18
ATOM     18  C   UNL     1       3.850   2.885  17.885  0.00  0.00    +0.000 A 
ATOM     19  C   UNL     1       3.531   3.396  16.611  0.00  0.00    +0.000 A 
ATOM     20  C   UNL     1       4.403   4.438  16.421  0.00  0.00    +0.000 A 
ATOM     21  N   UNL     1       5.190   4.531  17.552  0.00  0.00    +0.000 N 
ATOM     22  N   UNL     1       4.863   3.556  18.448  0.00  0.00    +0.000 NA
BRANCH  21  23
ATOM     23  C   UNL     1       6.199   5.500  17.831  0.00  0.00    +0.000 A 
ATOM     24  C   UNL     1       6.282   6.692  17.094  0.00  0.00    +0.000 A 
ATOM     25  C   UNL     1       7.253   7.649  17.403  0.00  0.00    +0.000 A 
ATOM     26  C   UNL     1       8.151   7.424  18.444  0.00  0.00    +0.000 A 
ATOM     27  C   UNL     1       8.086   6.238  19.173  0.00  0.00    +0.000 A 
ATOM     28  C   UNL     1       7.114   5.277  18.870  0.00  0.00    +0.000 A 
ENDBRANCH  21  23
ENDBRANCH  17  18
ENDBRANCH  16  17
ENDBRANCH   3  16
TORSDOF 5
ENDMDL
MODEL 4
REMARK VINA RESULT:      -8.3      5.365      7.940
REMARK  Name = 
REMARK  5 active torsions:
REMARK  status: ('A' for Active; 'I' for Inactive)
REMARK    1  A    between atoms: C_2  and  C_17
REMARK    2  A    between atoms: N_3  and  C_4
REMARK    3  A    between atoms: C_4  and  C_5
REMARK    4  A    between atoms: C_5  and  C_6
REMARK    5  A    between atoms: N_9  and  C_10
REMARK                            x       y       z     vdW  Elec       q    Type
REMARK                         _______ _______ _______ _____ _____    ______ ____
ROOT
ATOM      1  O   UNL     1       2.768   4.724  20.687  0.00  0.00    +0.000 OA
ATOM      2  C   UNL     1       3.119   5.595  19.903  0.00  0.00    +0.000 C 
ATOM      3  N   UNL     1       2.536   6.848  19.809  0.00  0.00    +0.000 N 
ATOM      4  H   UNL     1       2.711   7.388  18.972  0.00  0.00    +0.000 HD
ENDROOT
BRANCH   2   5
ATOM      5  C   UNL     1       4.230   5.344  18.941  0.00  0.00    +0.000 A 
ATOM      6  C   UNL     1       5.547   5.410  19.383  0.00  0.00    +0.000 A 
ATOM      7  C   UNL     1       6.586   5.256  18.473  0.00  0.00    +0.000 A 
ATOM      8  F   UNL     1       7.841   5.359  18.949  0.00  0.00    +0.000 F 
ATOM      9  C   UNL     1       6.378   5.016  17.119  0.00  0.00    +0.000 A 
ATOM     10  N   UNL     1       7.430   4.917  16.278  0.00  0.00    +0.000 NA
ATOM     11  C   UNL     1       7.192   4.666  14.978  0.00  0.00    +0.000 A 
ATOM     12  C   UNL     1       5.930   4.479  14.457  0.00  0.00    +0.000 A 
ATOM     13  C   UNL     1       4.840   4.585  15.320  0.00  0.00    +0.000 A 
ATOM     14  C   UNL     1       5.043   4.876  16.681  0.00  0.00    +0.000 A 
ATOM     15  C   UNL     1       3.973   5.039  17.597  0.00  0.00    +0.000 A 
ENDBRANCH   2   5
BRANCH   3  16
ATOM     16  C   UNL     1       1.410   7.246  20.648  0.00  0.00    +0.000 C 
BRANCH  16  17
ATOM     17  C   UNL     1       1.614   8.632  21.267  0.00  0.00    +0.000 C 
BRANCH  17  18
ATOM     18  C   UNL     1       0.704   9.674  20.704  0.00  0.00    +0.000 A 
ATOM     19  C   UNL     1       0.695  11.050  21.008  0.00  0.00    +0.000 A 
ATOM     20  C   UNL     1      -0.272  11.584  20.194  0.00  0.00    +0.000 A 
ATOM     21  N   UNL     1      -0.794  10.553  19.439  0.00  0.00    +0.000 N 
ATOM     22  N   UNL     1      -0.206   9.368  19.770  0.00  0.00    +0.000 NA
BRANCH  21  23
ATOM     23  C   UNL     1      -1.785  10.640  18.416  0.00  0.00    +0.000 A 
ATOM     24  C   UNL     1      -2.869  11.526  18.532  0.00  0.00    +0.000 A 
ATOM     25  C   UNL     1      -3.812  11.628  17.505  0.00  0.00    +0.000 A 
ATOM     26  C   UNL     1      -3.688  10.844  16.360  0.00  0.00    +0.000 A 
ATOM     27  C   UNL     1      -2.623   9.952  16.242  0.00  0.00    +0.000 A 
ATOM     28  C   UNL     1      -1.674   9.848  17.265  0.00  0.00    +0.000 A 
ENDBRANCH  21  23
ENDBRANCH  17  18
ENDBRANCH  16  17
ENDBRANCH   3  16
TORSDOF 5
ENDMDL
MODEL 5
REMARK VINA RESULT:      -8.2      1.769      2.884
REMARK  Name = 
REMARK  5 active torsions:
REMARK  status: ('A' for Active; 'I' for Inactive)
REMARK    1  A    between atoms: C_2  and  C_17
REMARK    2  A    between atoms: N_3  and  C_4
REMARK    3  A    between atoms: C_4  and  C_5
REMARK    4  A    between atoms: C_5  and  C_6
REMARK    5  A    between atoms: N_9  and  C_10
REMARK                            x       y       z     vdW  Elec       q    Type
REMARK                         _______ _______ _______ _____ _____    ______ ____
ROOT
ATOM      1  O   UNL     1       8.569   7.245  18.927  0.00  0.00    +0.000 OA
ATOM      2  C   UNL     1       8.122   8.084  18.157  0.00  0.00    +0.000 C 
ATOM      3  N   UNL     1       7.290   7.802  17.087  0.00  0.00    +0.000 N 
ATOM      4  H   UNL     1       7.192   8.507  16.367  0.00  0.00    +0.000 HD
ENDROOT
BRANCH   2   5
ATOM      5  C   UNL     1       8.479   9.522  18.315  0.00  0.00    +0.000 A 
ATOM      6  C   UNL     1       7.872  10.473  17.501  0.00  0.00    +0.000 A 
ATOM      7  C   UNL     1       8.261  11.804  17.590  0.00  0.00    +0.000 A 
ATOM      8  F   UNL     1       7.664  12.677  16.757  0.00  0.00    +0.000 F 
ATOM      9  C   UNL     1       9.230  12.252  18.481  0.00  0.00    +0.000 A 
ATOM     10  N   UNL     1       9.595  13.552  18.491  0.00  0.00    +0.000 NA
ATOM     11  C   UNL     1      10.522  13.954  19.379  0.00  0.00    +0.000 A 
ATOM     12  C   UNL     1      11.107  13.114  20.301  0.00  0.00    +0.000 A 
ATOM     13  C   UNL     1      10.739  11.769  20.292  0.00  0.00    +0.000 A 
ATOM     14  C   UNL     1       9.795  11.302  19.360  0.00  0.00    +0.000 A 
ATOM     15  C   UNL     1       9.414   9.939  19.274  0.00  0.00    +0.000 A 
ENDBRANCH   2   5
BRANCH   3  16
ATOM     16  C   UNL     1       6.873   6.442  16.762  0.00  0.00    +0.000 C 
BRANCH  16  17
ATOM     17  C   UNL     1       5.420   6.383  16.283  0.00  0.00    +0.000 C 
BRANCH  17  18
ATOM     18  C   UNL     1       4.425   6.403  17.397  0.00  0.00    +0.000 A 
ATOM     19  C   UNL     1       4.242   5.423  18.393  0.00  0.00    +0.000 A 
ATOM     20  C   UNL     1       3.261   5.929  19.208  0.00  0.00    +0.000 A 
ATOM     21  N   UNL     1       2.900   7.163  18.706  0.00  0.00    +0.000 N 
ATOM     22  N   UNL     1       3.603   7.446  17.573  0.00  0.00    +0.000 NA
BRANCH  21  23
ATOM     23  C   UNL     1       1.958   8.082  19.255  0.00  0.00    +0.000 A 
ATOM     24  C   UNL     1       1.547   7.985  20.595  0.00  0.00    +0.000 A 
ATOM     25  C   UNL     1       0.651   8.916  21.129  0.00  0.00    +0.000 A 
ATOM     26  C   UNL     1       0.154   9.946  20.334  0.00  0.00    +0.000 A 
ATOM     27  C   UNL     1       0.545  10.043  18.999  0.00  0.00    +0.000 A 
ATOM     28  C   UNL     1       1.443   9.116  18.459  0.00  0.00    +0.000 A 
ENDBRANCH  21  23
ENDBRANCH  17  18
ENDBRANCH  16  17
ENDBRANCH   3  16
TORSDOF 5
ENDMDL
MODEL 6
REMARK VINA RESULT:      -8.2      1.759      2.198
REMARK  Name = 
REMARK  5 active torsions:
REMARK  status: ('A' for Active; 'I' for Inactive)
REMARK    1  A    between atoms: C_2  and  C_17
REMARK    2  A    between atoms: N_3  and  C_4
REMARK    3  A    between atoms: C_4  and  C_5
REMARK    4  A    between atoms: C_5  and  C_6
REMARK    5  A    between atoms: N_9  and  C_10
REMARK                            x       y       z     vdW  Elec       q    Type
REMARK                         _______ _______ _______ _____ _____    ______ ____
ROOT
ATOM      1  O   UNL     1       7.695   8.751  17.213  0.00  0.00    +0.000 OA
ATOM      2  C   UNL     1       8.388   8.765  18.221  0.00  0.00    +0.000 C 
ATOM      3  N   UNL     1       8.589   7.673  19.050  0.00  0.00    +0.000 N 
ATOM      4  H   UNL     1       8.949   7.847  19.980  0.00  0.00    +0.000 HD
ENDROOT
BRANCH   2   5
ATOM      5  C   UNL     1       9.070  10.018  18.654  0.00  0.00    +0.000 A 
ATOM      6  C   UNL     1       9.175  10.308  20.010  0.00  0.00    +0.000 A 
ATOM      7  C   UNL     1       9.739  11.512  20.414  0.00  0.00    +0.000 A 
ATOM      8  F   UNL     1       9.787  11.756  21.737  0.00  0.00    +0.000 F 
ATOM      9  C   UNL     1      10.232  12.456  19.520  0.00  0.00    +0.000 A 
ATOM     10  N   UNL     1      10.730  13.626  19.973  0.00  0.00    +0.000 NA
ATOM     11  C   UNL     1      11.215  14.508  19.080  0.00  0.00    +0.000 A 
ATOM     12  C   UNL     1      11.256  14.273  17.723  0.00  0.00    +0.000 A 
ATOM     13  C   UNL     1      10.738  13.068  17.248  0.00  0.00    +0.000 A 
ATOM     14  C   UNL     1      10.194  12.131  18.146  0.00  0.00    +0.000 A 
ATOM     15  C   UNL     1       9.614  10.910  17.719  0.00  0.00    +0.000 A 
ENDBRANCH   2   5
BRANCH   3  16
ATOM     16  C   UNL     1       7.964   6.380  18.798  0.00  0.00    +0.000 C 
BRANCH  16  17
ATOM     17  C   UNL     1       7.080   6.401  17.547  0.00  0.00    +0.000 C 
BRANCH  17  18
ATOM     18  C   UNL     1       5.630   6.192  17.839  0.00  0.00    +0.000 A 
ATOM     19  C   UNL     1       4.535   6.792  17.187  0.00  0.00    +0.000 A 
ATOM     20  C   UNL     1       3.427   6.234  17.773  0.00  0.00    +0.000 A 
ATOM     21  N   UNL     1       3.868   5.334  18.721  0.00  0.00    +0.000 N 
ATOM     22  N   UNL     1       5.231   5.324  18.778  0.00  0.00    +0.000 NA
BRANCH  21  23
ATOM     23  C   UNL     1       3.076   4.476  19.541  0.00  0.00    +0.000 A 
ATOM     24  C   UNL     1       3.650   3.385  20.214  0.00  0.00    +0.000 A 
ATOM     25  C   UNL     1       2.869   2.575  21.043  0.00  0.00    +0.000 A 
ATOM     26  C   UNL     1       1.511   2.842  21.206  0.00  0.00    +0.000 A 
ATOM     27  C   UNL     1       0.930   3.915  20.532  0.00  0.00    +0.000 A 
ATOM     28  C   UNL     1       1.707   4.731  19.702  0.00  0.00    +0.000 A 
ENDBRANCH  21  23
ENDBRANCH  17  18
ENDBRANCH  16  17
ENDBRANCH   3  16
TORSDOF 5
ENDMDL
MODEL 7
REMARK VINA RESULT:      -8.2      5.410      8.309
REMARK  Name = 
REMARK  5 active torsions:
REMARK  status: ('A' for Active; 'I' for Inactive)
REMARK    1  A    between atoms: C_2  and  C_17
REMARK    2  A    between atoms: N_3  and  C_4
REMARK    3  A    between atoms: C_4  and  C_5
REMARK    4  A    between atoms: C_5  and  C_6
REMARK    5  A    between atoms: N_9  and  C_10
REMARK                            x       y       z     vdW  Elec       q    Type
REMARK                         _______ _______ _______ _____ _____    ______ ____
ROOT
ATOM      1  O   UNL     1       1.474   5.143  21.084  0.00  0.00    +0.000 OA
ATOM      2  C   UNL     1       1.955   5.964  20.315  0.00  0.00    +0.000 C 
ATOM      3  N   UNL     1       1.775   7.333  20.418  0.00  0.00    +0.000 N 
ATOM      4  H   UNL     1       1.982   7.898  19.604  0.00  0.00    +0.000 HD
ENDROOT
BRANCH   2   5
ATOM      5  C   UNL     1       2.780   5.522  19.155  0.00  0.00    +0.000 A 
ATOM      6  C   UNL     1       2.337   4.471  18.360  0.00  0.00    +0.000 A 
ATOM      7  C   UNL     1       3.141   4.003  17.327  0.00  0.00    +0.000 A 
ATOM      8  F   UNL     1       2.677   2.964  16.609  0.00  0.00    +0.000 F 
ATOM      9  C   UNL     1       4.382   4.553  17.025  0.00  0.00    +0.000 A 
ATOM     10  N   UNL     1       5.135   4.027  16.035  0.00  0.00    +0.000 NA
ATOM     11  C   UNL     1       6.322   4.597  15.758  0.00  0.00    +0.000 A 
ATOM     12  C   UNL     1       6.805   5.707  16.415  0.00  0.00    +0.000 A 
ATOM     13  C   UNL     1       6.035   6.251  17.442  0.00  0.00    +0.000 A 
ATOM     14  C   UNL     1       4.801   5.669  17.783  0.00  0.00    +0.000 A 
ATOM     15  C   UNL     1       3.995   6.150  18.846  0.00  0.00    +0.000 A 
ENDBRANCH   2   5
BRANCH   3  16
ATOM     16  C   UNL     1       0.963   7.934  21.470  0.00  0.00    +0.000 C 
BRANCH  16  17
ATOM     17  C   UNL     1       1.218   9.438  21.608  0.00  0.00    +0.000 C 
BRANCH  17  18
ATOM     18  C   UNL     1       0.631  10.246  20.498  0.00  0.00    +0.000 A 
ATOM     19  C   UNL     1       1.215  11.352  19.848  0.00  0.00    +0.000 A 
ATOM     20  C   UNL     1       0.317  11.700  18.871  0.00  0.00    +0.000 A 
ATOM     21  N   UNL     1      -0.742  10.819  18.947  0.00  0.00    +0.000 N 
ATOM     22  N   UNL     1      -0.559   9.933  19.968  0.00  0.00    +0.000 NA
BRANCH  21  23
ATOM     23  C   UNL     1      -1.885  10.758  18.096  0.00  0.00    +0.000 A 
ATOM     24  C   UNL     1      -3.027  11.531  18.361  0.00  0.00    +0.000 A 
ATOM     25  C   UNL     1      -4.126  11.489  17.498  0.00  0.00    +0.000 A 
ATOM     26  C   UNL     1      -4.098  10.674  16.368  0.00  0.00    +0.000 A 
ATOM     27  C   UNL     1      -2.974   9.892  16.104  0.00  0.00    +0.000 A 
ATOM     28  C   UNL     1      -1.870   9.932  16.962  0.00  0.00    +0.000 A 
ENDBRANCH  21  23
ENDBRANCH  17  18
ENDBRANCH  16  17
ENDBRANCH   3  16
TORSDOF 5
ENDMDL
MODEL 8
REMARK VINA RESULT:      -8.1      4.193      7.507
REMARK  Name = 
REMARK  5 active torsions:
REMARK  status: ('A' for Active; 'I' for Inactive)
REMARK    1  A    between atoms: C_2  and  C_17
REMARK    2  A    between atoms: N_3  and  C_4
REMARK    3  A    between atoms: C_4  and  C_5
REMARK    4  A    between atoms: C_5  and  C_6
REMARK    5  A    between atoms: N_9  and  C_10
REMARK                            x       y       z     vdW  Elec       q    Type
REMARK                         _______ _______ _______ _____ _____    ______ ____
ROOT
ATOM      1  O   UNL     1       1.194   3.955  18.990  0.00  0.00    +0.000 OA
ATOM      2  C   UNL     1       1.858   4.587  19.800  0.00  0.00    +0.000 C 
ATOM      3  N   UNL     1       2.724   4.018  20.718  0.00  0.00    +0.000 N 
ATOM      4  H   UNL     1       3.017   4.584  21.505  0.00  0.00    +0.000 HD
ENDROOT
BRANCH   2   5
ATOM      5  C   UNL     1       1.754   6.073  19.869  0.00  0.00    +0.000 A 
ATOM      6  C   UNL     1       1.319   6.675  21.045  0.00  0.00    +0.000 A 
ATOM      7  C   UNL     1       1.144   8.053  21.088  0.00  0.00    +0.000 A 
ATOM      8  F   UNL     1       0.692   8.580  22.241  0.00  0.00    +0.000 F 
ATOM      9  C   UNL     1       1.403   8.884  20.003  0.00  0.00    +0.000 A 
ATOM     10  N   UNL     1       1.174  10.211  20.094  0.00  0.00    +0.000 NA
ATOM     11  C   UNL     1       1.453  10.987  19.031  0.00  0.00    +0.000 A 
ATOM     12  C   UNL     1       1.987  10.504  17.856  0.00  0.00    +0.000 A 
ATOM     13  C   UNL     1       2.221   9.134  17.754  0.00  0.00    +0.000 A 
ATOM     14  C   UNL     1       1.915   8.283  18.832  0.00  0.00    +0.000 A 
ATOM     15  C   UNL     1       2.090   6.877  18.771  0.00  0.00    +0.000 A 
ENDBRANCH   2   5
BRANCH   3  16
ATOM     16  C   UNL     1       2.916   2.575  20.816  0.00  0.00    +0.000 C 
BRANCH  16  17
ATOM     17  C   UNL     1       4.169   2.108  20.068  0.00  0.00    +0.000 C 
BRANCH  17  18
ATOM     18  C   UNL     1       4.621   3.062  19.011  0.00  0.00    +0.000 A 
ATOM     19  C   UNL     1       4.210   3.097  17.664  0.00  0.00    +0.000 A 
ATOM     20  C   UNL     1       4.857   4.182  17.127  0.00  0.00    +0.000 A 
ATOM     21  N   UNL     1       5.606   4.758  18.133  0.00  0.00    +0.000 N 
ATOM     22  N   UNL     1       5.478   4.052  19.293  0.00  0.00    +0.000 NA
BRANCH  21  23
ATOM     23  C   UNL     1       6.400   5.940  18.057  0.00  0.00    +0.000 A 
ATOM     24  C   UNL     1       7.573   6.075  18.816  0.00  0.00    +0.000 A 
ATOM     25  C   UNL     1       8.362   7.223  18.704  0.00  0.00    +0.000 A 
ATOM     26  C   UNL     1       7.985   8.249  17.840  0.00  0.00    +0.000 A 
ATOM     27  C   UNL     1       6.814   8.132  17.092  0.00  0.00    +0.000 A 
ATOM     28  C   UNL     1       6.023   6.983  17.198  0.00  0.00    +0.000 A 
ENDBRANCH  21  23
ENDBRANCH  17  18
ENDBRANCH  16  17
ENDBRANCH   3  16
TORSDOF 5
ENDMDL
MODEL 9
REMARK VINA RESULT:      -8.1      5.627      7.845
REMARK  Name = 
REMARK  5 active torsions:
REMARK  status: ('A' for Active; 'I' for Inactive)
REMARK    1  A    between atoms: C_2  and  C_17
REMARK    2  A    between atoms: N_3  and  C_4
REMARK    3  A    between atoms: C_4  and  C_5
REMARK    4  A    between atoms: C_5  and  C_6
REMARK    5  A    between atoms: N_9  and  C_10
REMARK                            x       y       z     vdW  Elec       q    Type
REMARK                         _______ _______ _______ _____ _____    ______ ____
ROOT
ATOM      1  O   UNL     1       2.311   7.691  19.157  0.00  0.00    +0.000 OA
ATOM      2  C   UNL     1       1.662   7.829  20.185  0.00  0.00    +0.000 C 
ATOM      3  N   UNL     1       1.569   6.878  21.187  0.00  0.00    +0.000 N 
ATOM      4  H   UNL     1       0.814   6.969  21.855  0.00  0.00    +0.000 HD
ENDROOT
BRANCH   2   5
ATOM      5  C   UNL     1       0.878   9.074  20.423  0.00  0.00    +0.000 A 
ATOM      6  C   UNL     1       0.815  10.045  19.430  0.00  0.00    +0.000 A 
ATOM      7  C   UNL     1       0.152  11.241  19.678  0.00  0.00    +0.000 A 
ATOM      8  F   UNL     1       0.149  12.159  18.693  0.00  0.00    +0.000 F 
ATOM      9  C   UNL     1      -0.483  11.520  20.883  0.00  0.00    +0.000 A 
ATOM     10  N   UNL     1      -1.075  12.718  21.078  0.00  0.00    +0.000 NA
ATOM     11  C   UNL     1      -1.695  12.945  22.250  0.00  0.00    +0.000 A 
ATOM     12  C   UNL     1      -1.783  12.011  23.259  0.00  0.00    +0.000 A 
ATOM     13  C   UNL     1      -1.169  10.774  23.066  0.00  0.00    +0.000 A 
ATOM     14  C   UNL     1      -0.484  10.506  21.867  0.00  0.00    +0.000 A 
ATOM     15  C   UNL     1       0.196   9.285  21.630  0.00  0.00    +0.000 A 
ENDBRANCH   2   5
BRANCH   3  16
ATOM     16  C   UNL     1       2.240   5.586  21.097  0.00  0.00    +0.000 C 
BRANCH  16  17
ATOM     17  C   UNL     1       1.426   4.568  20.293  0.00  0.00    +0.000 C 
BRANCH  17  18
ATOM     18  C   UNL     1       2.130   4.077  19.069  0.00  0.00    +0.000 A 
ATOM     19  C   UNL     1       1.622   3.201  18.090  0.00  0.00    +0.000 A 
ATOM     20  C   UNL     1       2.618   3.110  17.149  0.00  0.00    +0.000 A 
ATOM     21  N   UNL     1       3.658   3.915  17.567  0.00  0.00    +0.000 N 
ATOM     22  N   UNL     1       3.365   4.495  18.767  0.00  0.00    +0.000 NA
BRANCH  21  23
ATOM     23  C   UNL     1       4.882   4.178  16.884  0.00  0.00    +0.000 A 
ATOM     24  C   UNL     1       4.934   4.217  15.481  0.00  0.00    +0.000 A 
ATOM     25  C   UNL     1       6.132   4.513  14.825  0.00  0.00    +0.000 A 
ATOM     26  C   UNL     1       7.289   4.767  15.560  0.00  0.00    +0.000 A 
ATOM     27  C   UNL     1       7.250   4.718  16.953  0.00  0.00    +0.000 A 
ATOM     28  C   UNL     1       6.053   4.425  17.615  0.00  0.00    +0.000 A 
ENDBRANCH  21  23
ENDBRANCH  17  18
ENDBRANCH  16  17
ENDBRANCH   3  16
TORSDOF 5
ENDMDL
