MODEL 1
REMARK VINA RESULT:      -8.9      0.000      0.000
REMARK  Name = 
REMARK  4 active torsions:
REMARK  status: ('A' for Active; 'I' for Inactive)
REMARK    1  A    between atoms: C_2  and  C_3
REMARK    2  A    between atoms: C_3  and  C_4
REMARK    3  A    between atoms: N_14  and  C_15
REMARK    4  A    between atoms: C_19  and  N_20
REMARK                            x       y       z     vdW  Elec       q    Type
REMARK                         _______ _______ _______ _____ _____    ______ ____
ROOT
ATOM      1  O   UNL     1       1.700   8.344  17.650  0.00  0.00    +0.000 OA
ATOM      2  C   UNL     1       1.650   8.660  18.834  0.00  0.00    +0.000 C 
ATOM      3  N   UNL     1       1.885   7.835  19.920  0.00  0.00    +0.000 N 
ATOM      4  H   UNL     1       1.726   8.228  20.842  0.00  0.00    +0.000 HD
ENDROOT
BRANCH   3   5
ATOM      5  C   UNL     1       2.337   6.499  19.895  0.00  0.00    +0.000 A 
ATOM      6  C   UNL     1       1.714   5.459  20.579  0.00  0.00    +0.000 A 
ATOM      7  C   UNL     1       2.242   4.168  20.529  0.00  0.00    +0.000 A 
ATOM      8  C   UNL     1       3.384   3.901  19.775  0.00  0.00    +0.000 A 
ATOM      9  C   UNL     1       3.973   4.913  19.009  0.00  0.00    +0.000 A 
ATOM     10  C   UNL     1       3.454   6.215  19.099  0.00  0.00    +0.000 A 
BRANCH   9  11
ATOM     11  N   UNL     1       5.042   4.624  18.100  0.00  0.00    +0.000 N 
ATOM     12  C   UNL     1       4.703   4.470  16.682  0.00  0.00    +0.000 C 
ATOM     13  C   UNL     1       5.828   3.869  15.857  0.00  0.00    +0.000 C 
ATOM     14  C   UNL     1       7.065   4.716  16.067  0.00  0.00    +0.000 C 
ATOM     15  C   UNL     1       7.474   4.647  17.524  0.00  0.00    +0.000 C 
ATOM     16  C   UNL     1       6.356   4.852  18.530  0.00  0.00    +0.000 C 
ATOM     17  O   UNL     1       6.666   5.163  19.684  0.00  0.00    +0.000 OA
ENDBRANCH   9  11
ENDBRANCH   3   5
BRANCH   2  18
ATOM     18  C   UNL     1       1.344  10.089  19.227  0.00  0.00    +0.000 C 
BRANCH  18  19
ATOM     19  C   UNL     1      -0.176  10.346  19.259  0.00  0.00    +0.000 C 
ATOM     20  C   UNL     1      -0.556  11.444  18.253  0.00  0.00    +0.000 C 
ATOM     21  C   UNL     1      -1.976  11.905  18.505  0.00  0.00    +0.000 C 
ATOM     22  O   UNL     1      -2.084  12.535  19.780  0.00  0.00    +0.000 OA
ATOM     23  C   UNL     1      -1.575  11.792  20.812  0.00  0.00    +0.000 A 
ATOM     24  C   UNL     1      -1.991  12.180  22.085  0.00  0.00    +0.000 A 
ATOM     25  C   UNL     1      -1.557  11.483  23.210  0.00  0.00    +0.000 A 
ATOM     26  C   UNL     1      -0.719  10.383  23.055  0.00  0.00    +0.000 A 
ATOM     27  C   UNL     1      -0.292   9.999  21.782  0.00  0.00    +0.000 A 
ATOM     28  C   UNL     1      -0.680  10.724  20.641  0.00  0.00    +0.000 A 
ENDBRANCH  18  19
ENDBRANCH   2  18
TORSDOF 4
ENDMDL
MODEL 2
REMARK VINA RESULT:      -8.4      2.528      9.402
REMARK  Name = 
REMARK  4 active torsions:
REMARK  status: ('A' for Active; 'I' for Inactive)
REMARK    1  A    between atoms: C_2  and  C_3
REMARK    2  A    between atoms: C_3  and  C_4
REMARK    3  A    between atoms: N_14  and  C_15
REMARK    4  A    between atoms: C_19  and  N_20
REMARK                            x       y       z     vdW  Elec       q    Type
REMARK                         _______ _______ _______ _____ _____    ______ ____
ROOT
ATOM      1  O   UNL     1       2.436   8.833  17.284  0.00  0.00    +0.000 OA
ATOM      2  C   UNL     1       2.106   8.541  18.428  0.00  0.00    +0.000 C 
ATOM      3  N   UNL     1       1.345   9.310  19.290  0.00  0.00    +0.000 N 
ATOM      4  H   UNL     1       1.223   8.962  20.236  0.00  0.00    +0.000 HD
ENDROOT
BRANCH   3   5
ATOM      5  C   UNL     1       0.700  10.531  19.002  0.00  0.00    +0.000 A 
ATOM      6  C   UNL     1       1.371  11.738  18.826  0.00  0.00    +0.000 A 
ATOM      7  C   UNL     1       0.657  12.910  18.575  0.00  0.00    +0.000 A 
ATOM      8  C   UNL     1      -0.733  12.881  18.471  0.00  0.00    +0.000 A 
ATOM      9  C   UNL     1      -1.420  11.665  18.555  0.00  0.00    +0.000 A 
ATOM     10  C   UNL     1      -0.692  10.500  18.847  0.00  0.00    +0.000 A 
BRANCH   9  11
ATOM     11  N   UNL     1      -2.825  11.590  18.286  0.00  0.00    +0.000 N 
ATOM     12  C   UNL     1      -3.735  12.181  19.272  0.00  0.00    +0.000 C 
ATOM     13  C   UNL     1      -5.187  11.786  19.060  0.00  0.00    +0.000 C 
ATOM     14  C   UNL     1      -5.565  12.142  17.638  0.00  0.00    +0.000 C 
ATOM     15  C   UNL     1      -4.721  11.327  16.680  0.00  0.00    +0.000 C 
ATOM     16  C   UNL     1      -3.233  11.295  16.979  0.00  0.00    +0.000 C 
ATOM     17  O   UNL     1      -2.467  10.967  16.068  0.00  0.00    +0.000 OA
ENDBRANCH   9  11
ENDBRANCH   3   5
BRANCH   2  18
ATOM     18  C   UNL     1       2.499   7.202  19.015  0.00  0.00    +0.000 C 
BRANCH  18  19
ATOM     19  C   UNL     1       2.624   6.127  17.917  0.00  0.00    +0.000 C 
ATOM     20  C   UNL     1       1.916   4.833  18.351  0.00  0.00    +0.000 C 
ATOM     21  C   UNL     1       2.301   3.699  17.422  0.00  0.00    +0.000 C 
ATOM     22  O   UNL     1       3.692   3.403  17.536  0.00  0.00    +0.000 OA
ATOM     23  C   UNL     1       4.505   4.496  17.406  0.00  0.00    +0.000 A 
ATOM     24  C   UNL     1       5.843   4.213  17.133  0.00  0.00    +0.000 A 
ATOM     25  C   UNL     1       6.760   5.245  16.956  0.00  0.00    +0.000 A 
ATOM     26  C   UNL     1       6.330   6.567  17.036  0.00  0.00    +0.000 A 
ATOM     27  C   UNL     1       4.993   6.853  17.321  0.00  0.00    +0.000 A 
ATOM     28  C   UNL     1       4.067   5.822  17.553  0.00  0.00    +0.000 A 
ENDBRANCH  18  19
ENDBRANCH   2  18
TORSDOF 4
ENDMDL
MODEL 3
REMARK VINA RESULT:      -8.3      1.156      1.310
REMARK  Name = 
REMARK  4 active torsions:
REMARK  status: ('A' for Active; 'I' for Inactive)
REMARK    1  A    between atoms: C_2  and  C_3
REMARK    2  A    between atoms: C_3  and  C_4
REMARK    3  A    between atoms: N_14  and  C_15
REMARK    4  A    between atoms: C_19  and  N_20
REMARK                            x       y       z     vdW  Elec       q    Type
REMARK                         _______ _______ _______ _____ _____    ______ ____
ROOT
ATOM      1  O   UNL     1       1.396   8.827  21.661  0.00  0.00    +0.000 OA
ATOM      2  C   UNL     1       1.433   9.066  20.460  0.00  0.00    +0.000 C 
ATOM      3  N   UNL     1       1.901   8.226  19.465  0.00  0.00    +0.000 N 
ATOM      4  H   UNL     1       1.939   8.601  18.523  0.00  0.00    +0.000 HD
ENDROOT
BRANCH   3   5
ATOM      5  C   UNL     1       2.325   6.888  19.606  0.00  0.00    +0.000 A 
ATOM      6  C   UNL     1       1.672   5.950  20.400  0.00  0.00    +0.000 A 
ATOM      7  C   UNL     1       2.173   4.652  20.514  0.00  0.00    +0.000 A 
ATOM      8  C   UNL     1       3.318   4.275  19.814  0.00  0.00    +0.000 A 
ATOM      9  C   UNL     1       3.938   5.176  18.941  0.00  0.00    +0.000 A 
ATOM     10  C   UNL     1       3.445   6.489  18.867  0.00  0.00    +0.000 A 
BRANCH   9  11
ATOM     11  N   UNL     1       5.012   4.759  18.089  0.00  0.00    +0.000 N 
ATOM     12  C   UNL     1       4.711   4.558  16.669  0.00  0.00    +0.000 C 
ATOM     13  C   UNL     1       5.814   3.831  15.918  0.00  0.00    +0.000 C 
ATOM     14  C   UNL     1       7.105   4.591  16.134  0.00  0.00    +0.000 C 
ATOM     15  C   UNL     1       7.457   4.567  17.607  0.00  0.00    +0.000 C 
ATOM     16  C   UNL     1       6.324   4.908  18.558  0.00  0.00    +0.000 C 
ATOM     17  O   UNL     1       6.617   5.254  19.707  0.00  0.00    +0.000 OA
ENDBRANCH   9  11
ENDBRANCH   3   5
BRANCH   2  18
ATOM     18  C   UNL     1       0.896  10.377  19.928  0.00  0.00    +0.000 C 
BRANCH  18  19
ATOM     19  C   UNL     1      -0.644  10.366  19.867  0.00  0.00    +0.000 C 
ATOM     20  C   UNL     1      -1.125  10.514  18.415  0.00  0.00    +0.000 C 
ATOM     21  C   UNL     1      -2.610  10.811  18.392  0.00  0.00    +0.000 C 
ATOM     22  O   UNL     1      -2.882  12.077  18.991  0.00  0.00    +0.000 OA
ATOM     23  C   UNL     1      -2.327  12.235  20.232  0.00  0.00    +0.000 A 
ATOM     24  C   UNL     1      -2.866  13.269  20.997  0.00  0.00    +0.000 A 
ATOM     25  C   UNL     1      -2.398  13.509  22.286  0.00  0.00    +0.000 A 
ATOM     26  C   UNL     1      -1.399  12.698  22.817  0.00  0.00    +0.000 A 
ATOM     27  C   UNL     1      -0.849  11.669  22.048  0.00  0.00    +0.000 A 
ATOM     28  C   UNL     1      -1.275  11.447  20.727  0.00  0.00    +0.000 A 
ENDBRANCH  18  19
ENDBRANCH   2  18
TORSDOF 4
ENDMDL
MODEL 4
REMARK VINA RESULT:      -8.3      2.494      9.102
REMARK  Name = 
REMARK  4 active torsions:
REMARK  status: ('A' for Active; 'I' for Inactive)
REMARK    1  A    between atoms: C_2  and  C_3
REMARK    2  A    between atoms: C_3  and  C_4
REMARK    3  A    between atoms: N_14  and  C_15
REMARK    4  A    between atoms: C_19  and  N_20
REMARK                            x       y       z     vdW  Elec       q    Type
REMARK                         _______ _______ _______ _____ _____    ______ ____
ROOT
ATOM      1  O   UNL     1       2.069   8.206  20.056  0.00  0.00    +0.000 OA
ATOM      2  C   UNL     1       1.967   8.048  18.844  0.00  0.00    +0.000 C 
ATOM      3  N   UNL     1       1.368   8.913  17.946  0.00  0.00    +0.000 N 
ATOM      4  H   UNL     1       1.294   8.601  16.983  0.00  0.00    +0.000 HD
ENDROOT
BRANCH   3   5
ATOM      5  C   UNL     1       0.850  10.198  18.213  0.00  0.00    +0.000 A 
ATOM      6  C   UNL     1       1.643  11.311  18.476  0.00  0.00    +0.000 A 
ATOM      7  C   UNL     1       1.053  12.543  18.763  0.00  0.00    +0.000 A 
ATOM      8  C   UNL     1      -0.335  12.677  18.765  0.00  0.00    +0.000 A 
ATOM      9  C   UNL     1      -1.147  11.593  18.416  0.00  0.00    +0.000 A 
ATOM     10  C   UNL     1      -0.541  10.350  18.167  0.00  0.00    +0.000 A 
BRANCH   9  11
ATOM     11  N   UNL     1      -2.561  11.753  18.249  0.00  0.00    +0.000 N 
ATOM     12  C   UNL     1      -3.169  11.190  17.040  0.00  0.00    +0.000 C 
ATOM     13  C   UNL     1      -4.590  11.670  16.803  0.00  0.00    +0.000 C 
ATOM     14  C   UNL     1      -5.398  11.370  18.048  0.00  0.00    +0.000 C 
ATOM     15  C   UNL     1      -4.832  12.160  19.210  0.00  0.00    +0.000 C 
ATOM     16  C   UNL     1      -3.324  12.101  19.372  0.00  0.00    +0.000 C 
ATOM     17  O   UNL     1      -2.847  12.408  20.469  0.00  0.00    +0.000 OA
ENDBRANCH   9  11
ENDBRANCH   3   5
BRANCH   2  18
ATOM     18  C   UNL     1       2.568   6.826  18.184  0.00  0.00    +0.000 C 
BRANCH  18  19
ATOM     19  C   UNL     1       3.559   6.113  19.125  0.00  0.00    +0.000 C 
ATOM     20  C   UNL     1       4.872   5.804  18.388  0.00  0.00    +0.000 C 
ATOM     21  C   UNL     1       5.709   4.844  19.208  0.00  0.00    +0.000 C 
ATOM     22  O   UNL     1       5.058   3.580  19.325  0.00  0.00    +0.000 OA
ATOM     23  C   UNL     1       3.763   3.660  19.759  0.00  0.00    +0.000 A 
ATOM     24  C   UNL     1       3.223   2.469  20.244  0.00  0.00    +0.000 A 
ATOM     25  C   UNL     1       1.921   2.434  20.736  0.00  0.00    +0.000 A 
ATOM     26  C   UNL     1       1.164   3.602  20.758  0.00  0.00    +0.000 A 
ATOM     27  C   UNL     1       1.698   4.794  20.262  0.00  0.00    +0.000 A 
ATOM     28  C   UNL     1       2.992   4.833  19.716  0.00  0.00    +0.000 A 
ENDBRANCH  18  19
ENDBRANCH   2  18
TORSDOF 4
ENDMDL
MODEL 5
REMARK VINA RESULT:      -8.3      1.579      2.402
REMARK  Name = 
REMARK  4 active torsions:
REMARK  status: ('A' for Active; 'I' for Inactive)
REMARK    1  A    between atoms: C_2  and  C_3
REMARK    2  A    between atoms: C_3  and  C_4
REMARK    3  A    between atoms: N_14  and  C_15
REMARK    4  A    between atoms: C_19  and  N_20
REMARK                            x       y       z     vdW  Elec       q    Type
REMARK                         _______ _______ _______ _____ _____    ______ ____
ROOT
ATOM      1  O   UNL     1       2.314   8.067  18.902  0.00  0.00    +0.000 OA
ATOM      2  C   UNL     1       1.675   7.903  19.935  0.00  0.00    +0.000 C 
ATOM      3  N   UNL     1       1.572   6.732  20.665  0.00  0.00    +0.000 N 
ATOM      4  H   UNL     1       0.939   6.736  21.458  0.00  0.00    +0.000 HD
ENDROOT
BRANCH   3   5
ATOM      5  C   UNL     1       2.260   5.521  20.439  0.00  0.00    +0.000 A 
ATOM      6  C   UNL     1       1.899   4.307  21.017  0.00  0.00    +0.000 A 
ATOM      7  C   UNL     1       2.652   3.159  20.768  0.00  0.00    +0.000 A 
ATOM      8  C   UNL     1       3.757   3.209  19.920  0.00  0.00    +0.000 A 
ATOM      9  C   UNL     1       4.082   4.399  19.259  0.00  0.00    +0.000 A 
ATOM     10  C   UNL     1       3.340   5.555  19.549  0.00  0.00    +0.000 A 
BRANCH   9  11
ATOM     11  N   UNL     1       5.107   4.431  18.258  0.00  0.00    +0.000 N 
ATOM     12  C   UNL     1       4.692   4.310  16.858  0.00  0.00    +0.000 C 
ATOM     13  C   UNL     1       5.848   4.046  15.909  0.00  0.00    +0.000 C 
ATOM     14  C   UNL     1       6.878   5.136  16.114  0.00  0.00    +0.000 C 
ATOM     15  C   UNL     1       7.415   5.054  17.527  0.00  0.00    +0.000 C 
ATOM     16  C   UNL     1       6.369   4.921  18.620  0.00  0.00    +0.000 C 
ATOM     17  O   UNL     1       6.700   5.207  19.775  0.00  0.00    +0.000 OA
ENDBRANCH   9  11
ENDBRANCH   3   5
BRANCH   2  18
ATOM     18  C   UNL     1       0.931   9.062  20.561  0.00  0.00    +0.000 C 
BRANCH  18  19
ATOM     19  C   UNL     1       1.118  10.354  19.741  0.00  0.00    +0.000 C 
ATOM     20  C   UNL     1       1.369  11.550  20.673  0.00  0.00    +0.000 C 
ATOM     21  C   UNL     1       1.244  12.844  19.896  0.00  0.00    +0.000 C 
ATOM     22  O   UNL     1      -0.093  13.027  19.431  0.00  0.00    +0.000 OA
ATOM     23  C   UNL     1      -0.598  11.949  18.754  0.00  0.00    +0.000 A 
ATOM     24  C   UNL     1      -1.721  12.212  17.971  0.00  0.00    +0.000 A 
ATOM     25  C   UNL     1      -2.308  11.199  17.218  0.00  0.00    +0.000 A 
ATOM     26  C   UNL     1      -1.755   9.921  17.237  0.00  0.00    +0.000 A 
ATOM     27  C   UNL     1      -0.636   9.652  18.030  0.00  0.00    +0.000 A 
ATOM     28  C   UNL     1      -0.064  10.653  18.835  0.00  0.00    +0.000 A 
ENDBRANCH  18  19
ENDBRANCH   2  18
TORSDOF 4
ENDMDL
MODEL 6
REMARK VINA RESULT:      -8.2      2.649      9.224
REMARK  Name = 
REMARK  4 active torsions:
REMARK  status: ('A' for Active; 'I' for Inactive)
REMARK    1  A    between atoms: C_2  and  C_3
REMARK    2  A    between atoms: C_3  and  C_4
REMARK    3  A    between atoms: N_14  and  C_15
REMARK    4  A    between atoms: C_19  and  N_20
REMARK                            x       y       z     vdW  Elec       q    Type
REMARK                         _______ _______ _______ _____ _____    ______ ____
ROOT
ATOM      1  O   UNL     1       1.906   7.943  19.899  0.00  0.00    +0.000 OA
ATOM      2  C   UNL     1       2.009   7.971  18.677  0.00  0.00    +0.000 C 
ATOM      3  N   UNL     1       1.506   8.941  17.828  0.00  0.00    +0.000 N 
ATOM      4  H   UNL     1       1.606   8.781  16.832  0.00  0.00    +0.000 HD
ENDROOT
BRANCH   3   5
ATOM      5  C   UNL     1       0.874  10.149  18.192  0.00  0.00    +0.000 A 
ATOM      6  C   UNL     1       1.560  11.290  18.598  0.00  0.00    +0.000 A 
ATOM      7  C   UNL     1       0.859  12.437  18.972  0.00  0.00    +0.000 A 
ATOM      8  C   UNL     1      -0.534  12.461  18.919  0.00  0.00    +0.000 A 
ATOM      9  C   UNL     1      -1.239  11.356  18.429  0.00  0.00    +0.000 A 
ATOM     10  C   UNL     1      -0.522  10.196  18.093  0.00  0.00    +0.000 A 
BRANCH   9  11
ATOM     11  N   UNL     1      -2.653  11.420  18.210  0.00  0.00    +0.000 N 
ATOM     12  C   UNL     1      -3.470  12.067  19.241  0.00  0.00    +0.000 C 
ATOM     13  C   UNL     1      -4.958  11.815  19.074  0.00  0.00    +0.000 C 
ATOM     14  C   UNL     1      -5.349  12.243  17.675  0.00  0.00    +0.000 C 
ATOM     15  C   UNL     1      -4.620  11.378  16.669  0.00  0.00    +0.000 C 
ATOM     16  C   UNL     1      -3.132  11.199  16.912  0.00  0.00    +0.000 C 
ATOM     17  O   UNL     1      -2.432  10.825  15.966  0.00  0.00    +0.000 OA
ENDBRANCH   9  11
ENDBRANCH   3   5
BRANCH   2  18
ATOM     18  C   UNL     1       2.782   6.890  17.954  0.00  0.00    +0.000 C 
BRANCH  18  19
ATOM     19  C   UNL     1       3.622   6.051  18.938  0.00  0.00    +0.000 C 
ATOM     20  C   UNL     1       5.084   5.980  18.469  0.00  0.00    +0.000 C 
ATOM     21  C   UNL     1       5.826   4.917  19.254  0.00  0.00    +0.000 C 
ATOM     22  O   UNL     1       5.296   3.622  18.975  0.00  0.00    +0.000 OA
ATOM     23  C   UNL     1       3.937   3.535  19.115  0.00  0.00    +0.000 A 
ATOM     24  C   UNL     1       3.432   2.241  19.227  0.00  0.00    +0.000 A 
ATOM     25  C   UNL     1       2.066   2.029  19.398  0.00  0.00    +0.000 A 
ATOM     26  C   UNL     1       1.207   3.121  19.475  0.00  0.00    +0.000 A 
ATOM     27  C   UNL     1       1.709   4.419  19.351  0.00  0.00    +0.000 A 
ATOM     28  C   UNL     1       3.078   4.646  19.127  0.00  0.00    +0.000 A 
ENDBRANCH  18  19
ENDBRANCH   2  18
TORSDOF 4
ENDMDL
MODEL 7
REMARK VINA RESULT:      -8.2      2.377      8.762
REMARK  Name = 
REMARK  4 active torsions:
REMARK  status: ('A' for Active; 'I' for Inactive)
REMARK    1  A    between atoms: C_2  and  C_3
REMARK    2  A    between atoms: C_3  and  C_4
REMARK    3  A    between atoms: N_14  and  C_15
REMARK    4  A    between atoms: C_19  and  N_20
REMARK                            x       y       z     vdW  Elec       q    Type
REMARK                         _______ _______ _______ _____ _____    ______ ____
ROOT
ATOM      1  O   UNL     1       1.508   8.360  18.999  0.00  0.00    +0.000 OA
ATOM      2  C   UNL     1       1.883   7.816  20.031  0.00  0.00    +0.000 C 
ATOM      3  N   UNL     1       1.622   8.230  21.325  0.00  0.00    +0.000 N 
ATOM      4  H   UNL     1       2.070   7.715  22.075  0.00  0.00    +0.000 HD
ENDROOT
BRANCH   3   5
ATOM      5  C   UNL     1       0.786   9.292  21.729  0.00  0.00    +0.000 A 
ATOM      6  C   UNL     1      -0.079   9.225  22.818  0.00  0.00    +0.000 A 
ATOM      7  C   UNL     1      -0.898  10.309  23.134  0.00  0.00    +0.000 A 
ATOM      8  C   UNL     1      -0.842  11.480  22.379  0.00  0.00    +0.000 A 
ATOM      9  C   UNL     1       0.084  11.601  21.337  0.00  0.00    +0.000 A 
ATOM     10  C   UNL     1       0.875  10.488  21.006  0.00  0.00    +0.000 A 
BRANCH   9  11
ATOM     11  N   UNL     1       0.274  12.849  20.659  0.00  0.00    +0.000 N 
ATOM     12  C   UNL     1       1.487  13.610  20.969  0.00  0.00    +0.000 C 
ATOM     13  C   UNL     1       1.451  15.037  20.448  0.00  0.00    +0.000 C 
ATOM     14  C   UNL     1       1.167  14.983  18.961  0.00  0.00    +0.000 C 
ATOM     15  C   UNL     1      -0.202  14.376  18.739  0.00  0.00    +0.000 C 
ATOM     16  C   UNL     1      -0.489  13.101  19.511  0.00  0.00    +0.000 C 
ATOM     17  O   UNL     1      -1.409  12.379  19.115  0.00  0.00    +0.000 OA
ENDBRANCH   9  11
ENDBRANCH   3   5
BRANCH   2  18
ATOM     18  C   UNL     1       2.683   6.533  19.967  0.00  0.00    +0.000 C 
BRANCH  18  19
ATOM     19  C   UNL     1       2.284   5.687  18.741  0.00  0.00    +0.000 C 
ATOM     20  C   UNL     1       1.788   4.301  19.185  0.00  0.00    +0.000 C 
ATOM     21  C   UNL     1       1.694   3.380  17.986  0.00  0.00    +0.000 C 
ATOM     22  O   UNL     1       2.987   3.138  17.433  0.00  0.00    +0.000 OA
ATOM     23  C   UNL     1       3.703   4.275  17.175  0.00  0.00    +0.000 A 
ATOM     24  C   UNL     1       4.781   4.115  16.305  0.00  0.00    +0.000 A 
ATOM     25  C   UNL     1       5.568   5.207  15.949  0.00  0.00    +0.000 A 
ATOM     26  C   UNL     1       5.261   6.468  16.453  0.00  0.00    +0.000 A 
ATOM     27  C   UNL     1       4.188   6.629  17.334  0.00  0.00    +0.000 A 
ATOM     28  C   UNL     1       3.417   5.527  17.742  0.00  0.00    +0.000 A 
ENDBRANCH  18  19
ENDBRANCH   2  18
TORSDOF 4
ENDMDL
MODEL 8
REMARK VINA RESULT:      -8.2      2.174      3.716
REMARK  Name = 
REMARK  4 active torsions:
REMARK  status: ('A' for Active; 'I' for Inactive)
REMARK    1  A    between atoms: C_2  and  C_3
REMARK    2  A    between atoms: C_3  and  C_4
REMARK    3  A    between atoms: N_14  and  C_15
REMARK    4  A    between atoms: C_19  and  N_20
REMARK                            x       y       z     vdW  Elec       q    Type
REMARK                         _______ _______ _______ _____ _____    ______ ____
ROOT
ATOM      1  O   UNL     1       1.310   9.035  19.867  0.00  0.00    +0.000 OA
ATOM      2  C   UNL     1       1.332   9.417  18.702  0.00  0.00    +0.000 C 
ATOM      3  N   UNL     1       2.087   8.884  17.672  0.00  0.00    +0.000 N 
ATOM      4  H   UNL     1       2.054   9.364  16.778  0.00  0.00    +0.000 HD
ENDROOT
BRANCH   3   5
ATOM      5  C   UNL     1       2.898   7.731  17.716  0.00  0.00    +0.000 A 
ATOM      6  C   UNL     1       4.176   7.662  17.168  0.00  0.00    +0.000 A 
ATOM      7  C   UNL     1       4.903   6.472  17.225  0.00  0.00    +0.000 A 
ATOM      8  C   UNL     1       4.369   5.348  17.854  0.00  0.00    +0.000 A 
ATOM      9  C   UNL     1       3.124   5.422  18.489  0.00  0.00    +0.000 A 
ATOM     10  C   UNL     1       2.388   6.614  18.390  0.00  0.00    +0.000 A 
BRANCH   9  11
ATOM     11  N   UNL     1       2.633   4.334  19.281  0.00  0.00    +0.000 N 
ATOM     12  C   UNL     1       2.658   4.491  20.738  0.00  0.00    +0.000 C 
ATOM     13  C   UNL     1       2.414   3.191  21.486  0.00  0.00    +0.000 C 
ATOM     14  C   UNL     1       1.109   2.605  20.990  0.00  0.00    +0.000 C 
ATOM     15  C   UNL     1       1.241   2.272  19.518  0.00  0.00    +0.000 C 
ATOM     16  C   UNL     1       1.848   3.360  18.651  0.00  0.00    +0.000 C 
ATOM     17  O   UNL     1       1.655   3.302  17.432  0.00  0.00    +0.000 OA
ENDBRANCH   9  11
ENDBRANCH   3   5
BRANCH   2  18
ATOM     18  C   UNL     1       0.442  10.557  18.259  0.00  0.00    +0.000 C 
BRANCH  18  19
ATOM     19  C   UNL     1      -1.042  10.252  18.546  0.00  0.00    +0.000 C 
ATOM     20  C   UNL     1      -1.834  10.154  17.233  0.00  0.00    +0.000 C 
ATOM     21  C   UNL     1      -3.320  10.163  17.525  0.00  0.00    +0.000 C 
ATOM     22  O   UNL     1      -3.715  11.412  18.090  0.00  0.00    +0.000 OA
ATOM     23  C   UNL     1      -2.960  11.801  19.164  0.00  0.00    +0.000 A 
ATOM     24  C   UNL     1      -3.529  12.790  19.965  0.00  0.00    +0.000 A 
ATOM     25  C   UNL     1      -2.863  13.248  21.099  0.00  0.00    +0.000 A 
ATOM     26  C   UNL     1      -1.630  12.699  21.440  0.00  0.00    +0.000 A 
ATOM     27  C   UNL     1      -1.053  11.715  20.632  0.00  0.00    +0.000 A 
ATOM     28  C   UNL     1      -1.689  11.280  19.457  0.00  0.00    +0.000 A 
ENDBRANCH  18  19
ENDBRANCH   2  18
TORSDOF 4
ENDMDL
MODEL 9
REMARK VINA RESULT:      -8.2      5.431      8.479
REMARK  Name = 
REMARK  4 active torsions:
REMARK  status: ('A' for Active; 'I' for Inactive)
REMARK    1  A    between atoms: C_2  and  C_3
REMARK    2  A    between atoms: C_3  and  C_4
REMARK    3  A    between atoms: N_14  and  C_15
REMARK    4  A    between atoms: C_19  and  N_20
REMARK                            x       y       z     vdW  Elec       q    Type
REMARK                         _______ _______ _______ _____ _____    ______ ____
ROOT
ATOM      1  O   UNL     1       8.744   7.770  18.940  0.00  0.00    +0.000 OA
ATOM      2  C   UNL     1       8.177   8.453  18.094  0.00  0.00    +0.000 C 
ATOM      3  N   UNL     1       7.224   8.022  17.188  0.00  0.00    +0.000 N 
ATOM      4  H   UNL     1       6.905   8.694  16.497  0.00  0.00    +0.000 HD
ENDROOT
BRANCH   3   5
ATOM      5  C   UNL     1       6.628   6.745  17.118  0.00  0.00    +0.000 A 
ATOM      6  C   UNL     1       7.056   5.738  16.259  0.00  0.00    +0.000 A 
ATOM      7  C   UNL     1       6.392   4.511  16.226  0.00  0.00    +0.000 A 
ATOM      8  C   UNL     1       5.309   4.272  17.071  0.00  0.00    +0.000 A 
ATOM      9  C   UNL     1       4.919   5.239  18.005  0.00  0.00    +0.000 A 
ATOM     10  C   UNL     1       5.572   6.482  17.999  0.00  0.00    +0.000 A 
BRANCH   9  11
ATOM     11  N   UNL     1       3.921   4.952  18.992  0.00  0.00    +0.000 N 
ATOM     12  C   UNL     1       2.691   5.748  18.963  0.00  0.00    +0.000 C 
ATOM     13  C   UNL     1       1.842   5.588  20.212  0.00  0.00    +0.000 C 
ATOM     14  C   UNL     1       1.570   4.112  20.406  0.00  0.00    +0.000 C 
ATOM     15  C   UNL     1       2.881   3.392  20.644  0.00  0.00    +0.000 C 
ATOM     16  C   UNL     1       4.003   3.735  19.681  0.00  0.00    +0.000 C 
ATOM     17  O   UNL     1       4.949   2.946  19.591  0.00  0.00    +0.000 OA
ENDBRANCH   9  11
ENDBRANCH   3   5
BRANCH   2  18
ATOM     18  C   UNL     1       8.465   9.935  17.996  0.00  0.00    +0.000 C 
BRANCH  18  19
ATOM     19  C   UNL     1       9.465  10.383  19.080  0.00  0.00    +0.000 C 
ATOM     20  C   UNL     1       8.732  10.668  20.401  0.00  0.00    +0.000 C 
ATOM     21  C   UNL     1       9.656  11.394  21.357  0.00  0.00    +0.000 C 
ATOM     22  O   UNL     1       9.996  12.683  20.849  0.00  0.00    +0.000 OA
ATOM     23  C   UNL     1      10.466  12.669  19.563  0.00  0.00    +0.000 A 
ATOM     24  C   UNL     1      11.153  13.816  19.168  0.00  0.00    +0.000 A 
ATOM     25  C   UNL     1      11.697  13.906  17.890  0.00  0.00    +0.000 A 
ATOM     26  C   UNL     1      11.567  12.834  17.011  0.00  0.00    +0.000 A 
ATOM     27  C   UNL     1      10.870  11.688  17.401  0.00  0.00    +0.000 A 
ATOM     28  C   UNL     1      10.271  11.603  18.670  0.00  0.00    +0.000 A 
ENDBRANCH  18  19
ENDBRANCH   2  18
TORSDOF 4
ENDMDL
