MODEL 1
REMARK VINA RESULT:      -8.9      0.000      0.000
REMARK  Name = 
REMARK  2 active torsions:
REMARK  status: ('A' for Active; 'I' for Inactive)
REMARK    1  A    between atoms: C_7  and  C_8
REMARK    2  A    between atoms: C_18  and  N_19
REMARK                            x       y       z     vdW  Elec       q    Type
REMARK                         _______ _______ _______ _____ _____    ______ ____
ROOT
ATOM      1  C   UNL     1       1.965   8.114  19.345  0.00  0.00    +0.000 C 
ATOM      2  O   UNL     1       2.327   8.733  18.342  0.00  0.00    +0.000 OA
ATOM      3  N   UNL     1       2.272   6.774  19.599  0.00  0.00    +0.000 N 
ATOM      4  C   UNL     1       1.606   5.874  20.563  0.00  0.00    +0.000 C 
ATOM      5  C   UNL     1       2.363   4.552  20.561  0.00  0.00    +0.000 C 
ATOM      6  C   UNL     1       3.197   4.663  19.327  0.00  0.00    +0.000 A 
ATOM      7  C   UNL     1       3.128   5.963  18.803  0.00  0.00    +0.000 A 
ATOM      8  C   UNL     1       3.856   6.304  17.674  0.00  0.00    +0.000 A 
ATOM      9  C   UNL     1       4.667   5.338  17.067  0.00  0.00    +0.000 A 
ATOM     10  C   UNL     1       4.760   4.044  17.599  0.00  0.00    +0.000 A 
ATOM     11  C   UNL     1       4.023   3.701  18.741  0.00  0.00    +0.000 A 
ENDROOT
BRANCH   1  18
ATOM     12  O   UNL     1      -2.564  12.741  23.657  0.00  0.00    +0.000 OA
ATOM     13  C   UNL     1      -2.006  12.084  22.782  0.00  0.00    +0.000 C 
ATOM     14  C   UNL     1      -2.345  12.227  21.316  0.00  0.00    +0.000 C 
ATOM     15  C   UNL     1      -1.145  11.958  20.420  0.00  0.00    +0.000 C 
ATOM     16  C   UNL     1      -0.428  10.696  20.817  0.00  0.00    +0.000 A 
ATOM     17  C   UNL     1       0.321   9.938  19.896  0.00  0.00    +0.000 A 
ATOM     18  C   UNL     1       1.139   8.887  20.333  0.00  0.00    +0.000 A 
ATOM     19  C   UNL     1       1.261   8.670  21.712  0.00  0.00    +0.000 A 
ATOM     20  C   UNL     1       0.455   9.351  22.625  0.00  0.00    +0.000 A 
ATOM     21  C   UNL     1      -0.384  10.361  22.176  0.00  0.00    +0.000 A 
ATOM     22  N   UNL     1      -1.119  11.096  23.107  0.00  0.00    +0.000 N 
ATOM     23  H   UNL     1      -0.989  10.935  24.098  0.00  0.00    +0.000 HD
ENDBRANCH   1  18
BRANCH  11  24
ATOM     24  N   UNL     1       4.175   2.353  19.312  0.00  0.00    +0.000 N 
ATOM     25  O   UNL     1       4.941   2.200  20.272  0.00  0.00    +0.000 OA
ATOM     26  O   UNL     1       3.529   1.434  18.787  0.00  0.00    +0.000 OA
ENDBRANCH  11  24
TORSDOF 2
ENDMDL
MODEL 2
REMARK VINA RESULT:      -8.7      1.452      8.307
REMARK  Name = 
REMARK  2 active torsions:
REMARK  status: ('A' for Active; 'I' for Inactive)
REMARK    1  A    between atoms: C_7  and  C_8
REMARK    2  A    between atoms: C_18  and  N_19
REMARK                            x       y       z     vdW  Elec       q    Type
REMARK                         _______ _______ _______ _____ _____    ______ ____
ROOT
ATOM      1  C   UNL     1       2.167   8.350  18.201  0.00  0.00    +0.000 C 
ATOM      2  O   UNL     1       2.363   9.061  17.214  0.00  0.00    +0.000 OA
ATOM      3  N   UNL     1       1.491   8.766  19.352  0.00  0.00    +0.000 N 
ATOM      4  C   UNL     1       1.519   8.125  20.683  0.00  0.00    +0.000 C 
ATOM      5  C   UNL     1       0.542   8.874  21.578  0.00  0.00    +0.000 C 
ATOM      6  C   UNL     1       0.287  10.123  20.799  0.00  0.00    +0.000 A 
ATOM      7  C   UNL     1       0.843  10.021  19.515  0.00  0.00    +0.000 A 
ATOM      8  C   UNL     1       0.696  11.055  18.602  0.00  0.00    +0.000 A 
ATOM      9  C   UNL     1      -0.021  12.198  18.976  0.00  0.00    +0.000 A 
ATOM     10  C   UNL     1      -0.599  12.297  20.249  0.00  0.00    +0.000 A 
ATOM     11  C   UNL     1      -0.449  11.250  21.170  0.00  0.00    +0.000 A 
ENDROOT
BRANCH   1  18
ATOM     12  O   UNL     1       4.040   0.799  18.194  0.00  0.00    +0.000 OA
ATOM     13  C   UNL     1       3.501   1.902  18.171  0.00  0.00    +0.000 C 
ATOM     14  C   UNL     1       2.001   2.076  18.234  0.00  0.00    +0.000 C 
ATOM     15  C   UNL     1       1.602   3.373  18.922  0.00  0.00    +0.000 C 
ATOM     16  C   UNL     1       2.386   4.545  18.397  0.00  0.00    +0.000 A 
ATOM     17  C   UNL     1       1.881   5.860  18.429  0.00  0.00    +0.000 A 
ATOM     18  C   UNL     1       2.707   6.951  18.122  0.00  0.00    +0.000 A 
ATOM     19  C   UNL     1       4.064   6.705  17.873  0.00  0.00    +0.000 A 
ATOM     20  C   UNL     1       4.553   5.405  17.748  0.00  0.00    +0.000 A 
ATOM     21  C   UNL     1       3.714   4.331  18.011  0.00  0.00    +0.000 A 
ATOM     22  N   UNL     1       4.237   3.037  17.971  0.00  0.00    +0.000 N 
ATOM     23  H   UNL     1       5.226   2.893  17.815  0.00  0.00    +0.000 HD
ENDBRANCH   1  18
BRANCH  11  24
ATOM     24  N   UNL     1      -1.107  11.353  22.483  0.00  0.00    +0.000 N 
ATOM     25  O   UNL     1      -0.513  10.918  23.478  0.00  0.00    +0.000 OA
ATOM     26  O   UNL     1      -2.236  11.866  22.518  0.00  0.00    +0.000 OA
ENDBRANCH  11  24
TORSDOF 2
ENDMDL
MODEL 3
REMARK VINA RESULT:      -8.4      0.951      1.683
REMARK  Name = 
REMARK  2 active torsions:
REMARK  status: ('A' for Active; 'I' for Inactive)
REMARK    1  A    between atoms: C_7  and  C_8
REMARK    2  A    between atoms: C_18  and  N_19
REMARK                            x       y       z     vdW  Elec       q    Type
REMARK                         _______ _______ _______ _____ _____    ______ ____
ROOT
ATOM      1  C   UNL     1       2.287   8.190  18.293  0.00  0.00    +0.000 C 
ATOM      2  O   UNL     1       2.770   8.678  17.270  0.00  0.00    +0.000 OA
ATOM      3  N   UNL     1       2.528   6.886  18.736  0.00  0.00    +0.000 N 
ATOM      4  C   UNL     1       1.739   6.118  19.722  0.00  0.00    +0.000 C 
ATOM      5  C   UNL     1       2.454   4.795  19.958  0.00  0.00    +0.000 C 
ATOM      6  C   UNL     1       3.417   4.744  18.816  0.00  0.00    +0.000 A 
ATOM      7  C   UNL     1       3.440   5.972  18.139  0.00  0.00    +0.000 A 
ATOM      8  C   UNL     1       4.292   6.164  17.062  0.00  0.00    +0.000 A 
ATOM      9  C   UNL     1       5.136   5.120  16.665  0.00  0.00    +0.000 A 
ATOM     10  C   UNL     1       5.137   3.898  17.353  0.00  0.00    +0.000 A 
ATOM     11  C   UNL     1       4.273   3.707  18.441  0.00  0.00    +0.000 A 
ENDROOT
BRANCH   1  18
ATOM     12  O   UNL     1      -2.341  12.109  23.166  0.00  0.00    +0.000 OA
ATOM     13  C   UNL     1      -1.510  11.392  22.616  0.00  0.00    +0.000 C 
ATOM     14  C   UNL     1      -0.691  10.371  23.370  0.00  0.00    +0.000 C 
ATOM     15  C   UNL     1      -0.339   9.167  22.508  0.00  0.00    +0.000 C 
ATOM     16  C   UNL     1       0.191   9.583  21.162  0.00  0.00    +0.000 A 
ATOM     17  C   UNL     1       1.068   8.770  20.418  0.00  0.00    +0.000 A 
ATOM     18  C   UNL     1       1.383   9.088  19.088  0.00  0.00    +0.000 A 
ATOM     19  C   UNL     1       0.733  10.180  18.496  0.00  0.00    +0.000 A 
ATOM     20  C   UNL     1      -0.062  11.043  19.249  0.00  0.00    +0.000 A 
ATOM     21  C   UNL     1      -0.332  10.742  20.577  0.00  0.00    +0.000 A 
ATOM     22  N   UNL     1      -1.202  11.564  21.294  0.00  0.00    +0.000 N 
ATOM     23  H   UNL     1      -1.677  12.328  20.832  0.00  0.00    +0.000 HD
ENDBRANCH   1  18
BRANCH  11  24
ATOM     24  N   UNL     1       4.326   2.434  19.180  0.00  0.00    +0.000 N 
ATOM     25  O   UNL     1       5.040   2.366  20.189  0.00  0.00    +0.000 OA
ATOM     26  O   UNL     1       3.656   1.489  18.739  0.00  0.00    +0.000 OA
ENDBRANCH  11  24
TORSDOF 2
ENDMDL
MODEL 4
REMARK VINA RESULT:      -8.4      2.477      8.761
REMARK  Name = 
REMARK  2 active torsions:
REMARK  status: ('A' for Active; 'I' for Inactive)
REMARK    1  A    between atoms: C_7  and  C_8
REMARK    2  A    between atoms: C_18  and  N_19
REMARK                            x       y       z     vdW  Elec       q    Type
REMARK                         _______ _______ _______ _____ _____    ______ ____
ROOT
ATOM      1  C   UNL     1       1.931   6.906  19.915  0.00  0.00    +0.000 C 
ATOM      2  O   UNL     1       1.624   6.286  20.935  0.00  0.00    +0.000 OA
ATOM      3  N   UNL     1       1.588   8.239  19.667  0.00  0.00    +0.000 N 
ATOM      4  C   UNL     1       1.600   8.936  18.364  0.00  0.00    +0.000 C 
ATOM      5  C   UNL     1       1.257  10.397  18.618  0.00  0.00    +0.000 C 
ATOM      6  C   UNL     1       0.717  10.362  20.010  0.00  0.00    +0.000 A 
ATOM      7  C   UNL     1       0.933   9.103  20.588  0.00  0.00    +0.000 A 
ATOM      8  C   UNL     1       0.543   8.854  21.895  0.00  0.00    +0.000 A 
ATOM      9  C   UNL     1      -0.062   9.879  22.634  0.00  0.00    +0.000 A 
ATOM     10  C   UNL     1      -0.259  11.147  22.070  0.00  0.00    +0.000 A 
ATOM     11  C   UNL     1       0.136  11.396  20.748  0.00  0.00    +0.000 A 
ENDROOT
BRANCH   1  18
ATOM     12  O   UNL     1       6.666   3.801  14.581  0.00  0.00    +0.000 OA
ATOM     13  C   UNL     1       6.130   4.427  15.492  0.00  0.00    +0.000 C 
ATOM     14  C   UNL     1       6.814   5.569  16.206  0.00  0.00    +0.000 C 
ATOM     15  C   UNL     1       5.824   6.616  16.694  0.00  0.00    +0.000 C 
ATOM     16  C   UNL     1       4.658   5.987  17.409  0.00  0.00    +0.000 A 
ATOM     17  C   UNL     1       3.923   6.674  18.394  0.00  0.00    +0.000 A 
ATOM     18  C   UNL     1       2.725   6.143  18.894  0.00  0.00    +0.000 A 
ATOM     19  C   UNL     1       2.236   4.960  18.324  0.00  0.00    +0.000 A 
ATOM     20  C   UNL     1       2.999   4.225  17.417  0.00  0.00    +0.000 A 
ATOM     21  C   UNL     1       4.204   4.741  16.961  0.00  0.00    +0.000 A 
ATOM     22  N   UNL     1       4.915   4.040  15.986  0.00  0.00    +0.000 N 
ATOM     23  H   UNL     1       4.523   3.203  15.573  0.00  0.00    +0.000 HD
ENDBRANCH   1  18
BRANCH  11  24
ATOM     24  N   UNL     1      -0.036  12.749  20.194  0.00  0.00    +0.000 N 
ATOM     25  O   UNL     1      -1.076  13.006  19.575  0.00  0.00    +0.000 OA
ATOM     26  O   UNL     1       0.885  13.560  20.371  0.00  0.00    +0.000 OA
ENDBRANCH  11  24
TORSDOF 2
ENDMDL
MODEL 5
REMARK VINA RESULT:      -8.4      1.251      8.310
REMARK  Name = 
REMARK  2 active torsions:
REMARK  status: ('A' for Active; 'I' for Inactive)
REMARK    1  A    between atoms: C_7  and  C_8
REMARK    2  A    between atoms: C_18  and  N_19
REMARK                            x       y       z     vdW  Elec       q    Type
REMARK                         _______ _______ _______ _____ _____    ______ ____
ROOT
ATOM      1  C   UNL     1       1.801   8.460  18.627  0.00  0.00    +0.000 C 
ATOM      2  O   UNL     1       1.719   8.898  17.478  0.00  0.00    +0.000 OA
ATOM      3  N   UNL     1       1.261   9.089  19.752  0.00  0.00    +0.000 N 
ATOM      4  C   UNL     1       1.604   8.835  21.167  0.00  0.00    +0.000 C 
ATOM      5  C   UNL     1       0.676   9.682  22.028  0.00  0.00    +0.000 C 
ATOM      6  C   UNL     1       0.103  10.639  21.034  0.00  0.00    +0.000 A 
ATOM      7  C   UNL     1       0.454  10.260  19.730  0.00  0.00    +0.000 A 
ATOM      8  C   UNL     1      -0.002  10.988  18.641  0.00  0.00    +0.000 A 
ATOM      9  C   UNL     1      -0.823  12.102  18.860  0.00  0.00    +0.000 A 
ATOM     10  C   UNL     1      -1.198  12.471  20.160  0.00  0.00    +0.000 A 
ATOM     11  C   UNL     1      -0.736  11.733  21.258  0.00  0.00    +0.000 A 
ENDROOT
BRANCH   1  18
ATOM     12  O   UNL     1       5.010   1.571  20.287  0.00  0.00    +0.000 OA
ATOM     13  C   UNL     1       4.294   2.557  20.141  0.00  0.00    +0.000 C 
ATOM     14  C   UNL     1       2.936   2.681  20.794  0.00  0.00    +0.000 C 
ATOM     15  C   UNL     1       2.584   4.125  21.118  0.00  0.00    +0.000 C 
ATOM     16  C   UNL     1       2.845   5.036  19.948  0.00  0.00    +0.000 A 
ATOM     17  C   UNL     1       2.138   6.240  19.763  0.00  0.00    +0.000 A 
ATOM     18  C   UNL     1       2.538   7.162  18.785  0.00  0.00    +0.000 A 
ATOM     19  C   UNL     1       3.709   6.894  18.063  0.00  0.00    +0.000 A 
ATOM     20  C   UNL     1       4.362   5.667  18.171  0.00  0.00    +0.000 A 
ATOM     21  C   UNL     1       3.930   4.744  19.114  0.00  0.00    +0.000 A 
ATOM     22  N   UNL     1       4.646   3.557  19.277  0.00  0.00    +0.000 N 
ATOM     23  H   UNL     1       5.503   3.404  18.760  0.00  0.00    +0.000 HD
ENDBRANCH   1  18
BRANCH  11  24
ATOM     24  N   UNL     1      -1.182  12.109  22.610  0.00  0.00    +0.000 N 
ATOM     25  O   UNL     1      -2.229  11.612  23.045  0.00  0.00    +0.000 OA
ATOM     26  O   UNL     1      -0.484  12.917  23.239  0.00  0.00    +0.000 OA
ENDBRANCH  11  24
TORSDOF 2
ENDMDL
MODEL 6
REMARK VINA RESULT:      -8.0      2.702      3.682
REMARK  Name = 
REMARK  2 active torsions:
REMARK  status: ('A' for Active; 'I' for Inactive)
REMARK    1  A    between atoms: C_7  and  C_8
REMARK    2  A    between atoms: C_18  and  N_19
REMARK                            x       y       z     vdW  Elec       q    Type
REMARK                         _______ _______ _______ _____ _____    ______ ____
ROOT
ATOM      1  C   UNL     1       0.984   8.885  20.198  0.00  0.00    +0.000 C 
ATOM      2  O   UNL     1       0.562   8.537  21.302  0.00  0.00    +0.000 OA
ATOM      3  N   UNL     1       1.818   8.105  19.390  0.00  0.00    +0.000 N 
ATOM      4  C   UNL     1       2.640   8.564  18.251  0.00  0.00    +0.000 C 
ATOM      5  C   UNL     1       3.282   7.336  17.620  0.00  0.00    +0.000 C 
ATOM      6  C   UNL     1       3.070   6.291  18.666  0.00  0.00    +0.000 A 
ATOM      7  C   UNL     1       2.212   6.767  19.668  0.00  0.00    +0.000 A 
ATOM      8  C   UNL     1       1.846   5.949  20.725  0.00  0.00    +0.000 A 
ATOM      9  C   UNL     1       2.337   4.638  20.776  0.00  0.00    +0.000 A 
ATOM     10  C   UNL     1       3.175   4.148  19.765  0.00  0.00    +0.000 A 
ATOM     11  C   UNL     1       3.544   4.978  18.697  0.00  0.00    +0.000 A 
ENDROOT
BRANCH   1  18
ATOM     12  O   UNL     1      -0.588  16.307  18.478  0.00  0.00    +0.000 OA
ATOM     13  C   UNL     1      -0.109  15.230  18.824  0.00  0.00    +0.000 C 
ATOM     14  C   UNL     1       1.208  15.124  19.556  0.00  0.00    +0.000 C 
ATOM     15  C   UNL     1       1.247  13.930  20.499  0.00  0.00    +0.000 C 
ATOM     16  C   UNL     1       0.756  12.676  19.826  0.00  0.00    +0.000 A 
ATOM     17  C   UNL     1       1.177  11.394  20.231  0.00  0.00    +0.000 A 
ATOM     18  C   UNL     1       0.554  10.244  19.726  0.00  0.00    +0.000 A 
ATOM     19  C   UNL     1      -0.553  10.406  18.881  0.00  0.00    +0.000 A 
ATOM     20  C   UNL     1      -0.918  11.664  18.401  0.00  0.00    +0.000 A 
ATOM     21  C   UNL     1      -0.265  12.793  18.876  0.00  0.00    +0.000 A 
ATOM     22  N   UNL     1      -0.699  14.052  18.458  0.00  0.00    +0.000 N 
ATOM     23  H   UNL     1      -1.517  14.139  17.870  0.00  0.00    +0.000 HD
ENDBRANCH   1  18
BRANCH  11  24
ATOM     24  N   UNL     1       4.385   4.426  17.622  0.00  0.00    +0.000 N 
ATOM     25  O   UNL     1       3.836   3.796  16.707  0.00  0.00    +0.000 OA
ATOM     26  O   UNL     1       5.608   4.616  17.697  0.00  0.00    +0.000 OA
ENDBRANCH  11  24
TORSDOF 2
ENDMDL
MODEL 7
REMARK VINA RESULT:      -8.0      1.309      1.539
REMARK  Name = 
REMARK  2 active torsions:
REMARK  status: ('A' for Active; 'I' for Inactive)
REMARK    1  A    between atoms: C_7  and  C_8
REMARK    2  A    between atoms: C_18  and  N_19
REMARK                            x       y       z     vdW  Elec       q    Type
REMARK                         _______ _______ _______ _____ _____    ______ ____
ROOT
ATOM      1  C   UNL     1       2.189   8.365  18.182  0.00  0.00    +0.000 C 
ATOM      2  O   UNL     1       2.718   8.844  17.177  0.00  0.00    +0.000 OA
ATOM      3  N   UNL     1       2.434   7.075  18.664  0.00  0.00    +0.000 N 
ATOM      4  C   UNL     1       1.608   6.309  19.620  0.00  0.00    +0.000 C 
ATOM      5  C   UNL     1       2.338   5.007  19.922  0.00  0.00    +0.000 C 
ATOM      6  C   UNL     1       3.364   4.956  18.838  0.00  0.00    +0.000 A 
ATOM      7  C   UNL     1       3.397   6.171  18.137  0.00  0.00    +0.000 A 
ATOM      8  C   UNL     1       4.304   6.362  17.106  0.00  0.00    +0.000 A 
ATOM      9  C   UNL     1       5.192   5.329  16.778  0.00  0.00    +0.000 A 
ATOM     10  C   UNL     1       5.180   4.121  17.490  0.00  0.00    +0.000 A 
ATOM     11  C   UNL     1       4.262   3.931  18.532  0.00  0.00    +0.000 A 
ENDROOT
BRANCH   1  18
ATOM     12  O   UNL     1      -3.212  13.207  20.990  0.00  0.00    +0.000 OA
ATOM     13  C   UNL     1      -2.532  12.407  20.355  0.00  0.00    +0.000 C 
ATOM     14  C   UNL     1      -2.914  11.931  18.972  0.00  0.00    +0.000 C 
ATOM     15  C   UNL     1      -1.695  11.607  18.119  0.00  0.00    +0.000 C 
ATOM     16  C   UNL     1      -0.706  10.753  18.867  0.00  0.00    +0.000 A 
ATOM     17  C   UNL     1       0.183   9.883  18.206  0.00  0.00    +0.000 A 
ATOM     18  C   UNL     1       1.224   9.257  18.907  0.00  0.00    +0.000 A 
ATOM     19  C   UNL     1       1.408   9.590  20.256  0.00  0.00    +0.000 A 
ATOM     20  C   UNL     1       0.482  10.374  20.941  0.00  0.00    +0.000 A 
ATOM     21  C   UNL     1      -0.570  10.955  20.246  0.00  0.00    +0.000 A 
ATOM     22  N   UNL     1      -1.439  11.811  20.922  0.00  0.00    +0.000 N 
ATOM     23  H   UNL     1      -1.264  12.054  21.889  0.00  0.00    +0.000 HD
ENDBRANCH   1  18
BRANCH  11  24
ATOM     24  N   UNL     1       4.301   2.675  19.298  0.00  0.00    +0.000 N 
ATOM     25  O   UNL     1       5.136   2.562  20.206  0.00  0.00    +0.000 OA
ATOM     26  O   UNL     1       3.496   1.787  18.982  0.00  0.00    +0.000 OA
ENDBRANCH  11  24
TORSDOF 2
ENDMDL
MODEL 8
REMARK VINA RESULT:      -7.7      1.274      8.458
REMARK  Name = 
REMARK  2 active torsions:
REMARK  status: ('A' for Active; 'I' for Inactive)
REMARK    1  A    between atoms: C_7  and  C_8
REMARK    2  A    between atoms: C_18  and  N_19
REMARK                            x       y       z     vdW  Elec       q    Type
REMARK                         _______ _______ _______ _____ _____    ______ ____
ROOT
ATOM      1  C   UNL     1       1.785   8.500  19.180  0.00  0.00    +0.000 C 
ATOM      2  O   UNL     1       2.094   9.041  18.117  0.00  0.00    +0.000 OA
ATOM      3  N   UNL     1       1.147   9.151  20.241  0.00  0.00    +0.000 N 
ATOM      4  C   UNL     1       1.062   8.697  21.644  0.00  0.00    +0.000 C 
ATOM      5  C   UNL     1       0.175   9.680  22.396  0.00  0.00    +0.000 C 
ATOM      6  C   UNL     1       0.104  10.834  21.451  0.00  0.00    +0.000 A 
ATOM      7  C   UNL     1       0.667  10.489  20.213  0.00  0.00    +0.000 A 
ATOM      8  C   UNL     1       0.677  11.401  19.168  0.00  0.00    +0.000 A 
ATOM      9  C   UNL     1       0.111  12.667  19.362  0.00  0.00    +0.000 A 
ATOM     10  C   UNL     1      -0.475  13.010  20.589  0.00  0.00    +0.000 A 
ATOM     11  C   UNL     1      -0.484  12.086  21.643  0.00  0.00    +0.000 A 
ENDROOT
BRANCH   1  18
ATOM     12  O   UNL     1       3.808   0.998  18.799  0.00  0.00    +0.000 OA
ATOM     13  C   UNL     1       3.650   2.208  18.656  0.00  0.00    +0.000 C 
ATOM     14  C   UNL     1       4.203   2.967  17.472  0.00  0.00    +0.000 C 
ATOM     15  C   UNL     1       3.333   4.157  17.095  0.00  0.00    +0.000 C 
ATOM     16  C   UNL     1       2.966   4.980  18.301  0.00  0.00    +0.000 A 
ATOM     17  C   UNL     1       2.669   6.353  18.208  0.00  0.00    +0.000 A 
ATOM     18  C   UNL     1       2.137   7.046  19.306  0.00  0.00    +0.000 A 
ATOM     19  C   UNL     1       1.826   6.317  20.462  0.00  0.00    +0.000 A 
ATOM     20  C   UNL     1       2.201   4.981  20.597  0.00  0.00    +0.000 A 
ATOM     21  C   UNL     1       2.767   4.316  19.518  0.00  0.00    +0.000 A 
ATOM     22  N   UNL     1       3.056   2.956  19.634  0.00  0.00    +0.000 N 
ATOM     23  H   UNL     1       2.795   2.451  20.471  0.00  0.00    +0.000 HD
ENDBRANCH   1  18
BRANCH  11  24
ATOM     24  N   UNL     1      -1.149  12.449  22.905  0.00  0.00    +0.000 N 
ATOM     25  O   UNL     1      -2.191  11.857  23.215  0.00  0.00    +0.000 OA
ATOM     26  O   UNL     1      -0.629  13.344  23.589  0.00  0.00    +0.000 OA
ENDBRANCH  11  24
TORSDOF 2
ENDMDL
MODEL 9
REMARK VINA RESULT:      -7.7      4.233      9.153
REMARK  Name = 
REMARK  2 active torsions:
REMARK  status: ('A' for Active; 'I' for Inactive)
REMARK    1  A    between atoms: C_7  and  C_8
REMARK    2  A    between atoms: C_18  and  N_19
REMARK                            x       y       z     vdW  Elec       q    Type
REMARK                         _______ _______ _______ _____ _____    ______ ____
ROOT
ATOM      1  C   UNL     1       0.210  11.692  19.632  0.00  0.00    +0.000 C 
ATOM      2  O   UNL     1      -1.002  11.808  19.821  0.00  0.00    +0.000 OA
ATOM      3  N   UNL     1       1.051  12.736  19.233  0.00  0.00    +0.000 N 
ATOM      4  C   UNL     1       2.404  12.620  18.653  0.00  0.00    +0.000 C 
ATOM      5  C   UNL     1       2.960  14.028  18.488  0.00  0.00    +0.000 C 
ATOM      6  C   UNL     1       1.740  14.875  18.652  0.00  0.00    +0.000 A 
ATOM      7  C   UNL     1       0.659  14.096  19.092  0.00  0.00    +0.000 A 
ATOM      8  C   UNL     1      -0.571  14.684  19.347  0.00  0.00    +0.000 A 
ATOM      9  C   UNL     1      -0.718  16.065  19.167  0.00  0.00    +0.000 A 
ATOM     10  C   UNL     1       0.365  16.852  18.751  0.00  0.00    +0.000 A 
ATOM     11  C   UNL     1       1.607  16.256  18.494  0.00  0.00    +0.000 A 
ENDROOT
BRANCH   1  18
ATOM     12  O   UNL     1       3.348   4.575  19.739  0.00  0.00    +0.000 OA
ATOM     13  C   UNL     1       3.003   5.731  19.512  0.00  0.00    +0.000 C 
ATOM     14  C   UNL     1       3.402   6.467  18.254  0.00  0.00    +0.000 C 
ATOM     15  C   UNL     1       2.350   7.478  17.822  0.00  0.00    +0.000 C 
ATOM     16  C   UNL     1       1.893   8.331  18.975  0.00  0.00    +0.000 A 
ATOM     17  C   UNL     1       1.387   9.632  18.791  0.00  0.00    +0.000 A 
ATOM     18  C   UNL     1       0.784  10.322  19.853  0.00  0.00    +0.000 A 
ATOM     19  C   UNL     1       0.619   9.649  21.071  0.00  0.00    +0.000 A 
ATOM     20  C   UNL     1       1.198   8.400  21.292  0.00  0.00    +0.000 A 
ATOM     21  C   UNL     1       1.830   7.745  20.245  0.00  0.00    +0.000 A 
ATOM     22  N   UNL     1       2.327   6.457  20.453  0.00  0.00    +0.000 N 
ATOM     23  H   UNL     1       2.168   5.987  21.335  0.00  0.00    +0.000 HD
ENDBRANCH   1  18
BRANCH  11  24
ATOM     24  N   UNL     1       2.742  17.109  18.107  0.00  0.00    +0.000 N 
ATOM     25  O   UNL     1       3.543  17.460  18.983  0.00  0.00    +0.000 OA
ATOM     26  O   UNL     1       2.829  17.440  16.915  0.00  0.00    +0.000 OA
ENDBRANCH  11  24
TORSDOF 2
ENDMDL
