MODEL 1
REMARK VINA RESULT:      -8.6      0.000      0.000
REMARK  Name = 
REMARK  6 active torsions:
REMARK  status: ('A' for Active; 'I' for Inactive)
REMARK    1  A    between atoms: C_2  and  C_3
REMARK    2  A    between atoms: C_3  and  C_4
REMARK    3  A    between atoms: C_4  and  C_5
REMARK    4  A    between atoms: C_5  and  N_6
REMARK    5  A    between atoms: N_18  and  C_19
REMARK    6  A    between atoms: C_22  and  C_23
REMARK                            x       y       z     vdW  Elec       q    Type
REMARK                         _______ _______ _______ _____ _____    ______ ____
ROOT
ATOM      1  O   UNL     1       0.948   4.614  20.735  0.00  0.00    +0.000 OA
ATOM      2  C   UNL     1       2.098   4.641  20.304  0.00  0.00    +0.000 C 
ATOM      3  N   UNL     1       2.757   5.753  19.804  0.00  0.00    +0.000 N 
ATOM      4  H   UNL     1       3.633   5.594  19.322  0.00  0.00    +0.000 HD
ENDROOT
BRANCH   3   5
ATOM      5  C   UNL     1       2.239   7.063  19.737  0.00  0.00    +0.000 A 
ATOM      6  C   UNL     1       1.611   7.692  20.808  0.00  0.00    +0.000 A 
ATOM      7  C   UNL     1       1.064   8.974  20.662  0.00  0.00    +0.000 A 
ATOM      8  C   UNL     1       1.139   9.678  19.449  0.00  0.00    +0.000 A 
ATOM      9  C   UNL     1       1.820   9.046  18.393  0.00  0.00    +0.000 A 
ATOM     10  C   UNL     1       2.367   7.761  18.535  0.00  0.00    +0.000 A 
BRANCH   8  11
ATOM     11  C   UNL     1       0.518  11.017  19.294  0.00  0.00    +0.000 A 
ATOM     12  C   UNL     1      -0.827  11.250  19.638  0.00  0.00    +0.000 A 
ATOM     13  C   UNL     1      -1.419  12.506  19.478  0.00  0.00    +0.000 A 
ATOM     14  C   UNL     1      -0.675  13.570  18.979  0.00  0.00    +0.000 A 
ATOM     15  C   UNL     1       0.657  13.372  18.632  0.00  0.00    +0.000 A 
ATOM     16  C   UNL     1       1.242  12.109  18.781  0.00  0.00    +0.000 A 
ENDBRANCH   8  11
ENDBRANCH   3   5
BRANCH   2  17
ATOM     17  C   UNL     1       2.960   3.394  20.296  0.00  0.00    +0.000 C 
BRANCH  17  18
ATOM     18  C   UNL     1       2.791   2.608  18.995  0.00  0.00    +0.000 C 
BRANCH  18  19
ATOM     19  C   UNL     1       4.140   2.285  18.365  0.00  0.00    +0.000 C 
BRANCH  19  20
ATOM     20  N   UNL     1       5.112   3.306  18.714  0.00  0.00    +0.000 N 
ATOM     21  C   UNL     1       5.405   4.351  17.874  0.00  0.00    +0.000 C 
ATOM     22  N   UNL     1       4.806   4.560  16.737  0.00  0.00    +0.000 NA
ATOM     23  S   UNL     1       5.410   5.891  15.991  0.00  0.00    +0.000 S 
ATOM     24  O   UNL     1       4.419   6.946  15.965  0.00  0.00    +0.000 OA
ATOM     25  O   UNL     1       6.172   5.509  14.822  0.00  0.00    +0.000 OA
ATOM     26  C   UNL     1       6.554   6.287  17.236  0.00  0.00    +0.000 A 
ATOM     27  C   UNL     1       7.439   7.346  17.284  0.00  0.00    +0.000 A 
ATOM     28  C   UNL     1       8.260   7.428  18.408  0.00  0.00    +0.000 A 
ATOM     29  C   UNL     1       8.171   6.468  19.435  0.00  0.00    +0.000 A 
ATOM     30  C   UNL     1       7.256   5.409  19.355  0.00  0.00    +0.000 A 
ATOM     31  C   UNL     1       6.452   5.335  18.231  0.00  0.00    +0.000 A 
ATOM     32  H   UNL     1       5.794   3.043  19.416  0.00  0.00    +0.000 HD
ENDBRANCH  19  20
ENDBRANCH  18  19
ENDBRANCH  17  18
ENDBRANCH   2  17
TORSDOF 6
ENDMDL
MODEL 2
REMARK VINA RESULT:      -8.5      0.769      1.160
REMARK  Name = 
REMARK  6 active torsions:
REMARK  status: ('A' for Active; 'I' for Inactive)
REMARK    1  A    between atoms: C_2  and  C_3
REMARK    2  A    between atoms: C_3  and  C_4
REMARK    3  A    between atoms: C_4  and  C_5
REMARK    4  A    between atoms: C_5  and  N_6
REMARK    5  A    between atoms: N_18  and  C_19
REMARK    6  A    between atoms: C_22  and  C_23
REMARK                            x       y       z     vdW  Elec       q    Type
REMARK                         _______ _______ _______ _____ _____    ______ ____
ROOT
ATOM      1  O   UNL     1       0.699   4.237  20.219  0.00  0.00    +0.000 OA
ATOM      2  C   UNL     1       1.861   4.246  19.823  0.00  0.00    +0.000 C 
ATOM      3  N   UNL     1       2.587   5.365  19.447  0.00  0.00    +0.000 N 
ATOM      4  H   UNL     1       3.469   5.208  18.976  0.00  0.00    +0.000 HD
ENDROOT
BRANCH   3   5
ATOM      5  C   UNL     1       2.134   6.701  19.490  0.00  0.00    +0.000 A 
ATOM      6  C   UNL     1       2.165   7.553  18.390  0.00  0.00    +0.000 A 
ATOM      7  C   UNL     1       1.754   8.888  18.510  0.00  0.00    +0.000 A 
ATOM      8  C   UNL     1       1.286   9.413  19.726  0.00  0.00    +0.000 A 
ATOM      9  C   UNL     1       1.216   8.523  20.812  0.00  0.00    +0.000 A 
ATOM     10  C   UNL     1       1.629   7.186  20.697  0.00  0.00    +0.000 A 
BRANCH   8  11
ATOM     11  C   UNL     1       0.895  10.838  19.851  0.00  0.00    +0.000 A 
ATOM     12  C   UNL     1       0.280  11.335  21.016  0.00  0.00    +0.000 A 
ATOM     13  C   UNL     1      -0.104  12.674  21.131  0.00  0.00    +0.000 A 
ATOM     14  C   UNL     1       0.128  13.559  20.084  0.00  0.00    +0.000 A 
ATOM     15  C   UNL     1       0.736  13.099  18.919  0.00  0.00    +0.000 A 
ATOM     16  C   UNL     1       1.107  11.755  18.803  0.00  0.00    +0.000 A 
ENDBRANCH   8  11
ENDBRANCH   3   5
BRANCH   2  17
ATOM     17  C   UNL     1       2.664   2.964  19.720  0.00  0.00    +0.000 C 
BRANCH  17  18
ATOM     18  C   UNL     1       2.477   2.297  18.357  0.00  0.00    +0.000 C 
BRANCH  18  19
ATOM     19  C   UNL     1       3.796   2.210  17.599  0.00  0.00    +0.000 C 
BRANCH  19  20
ATOM     20  N   UNL     1       4.750   3.156  18.147  0.00  0.00    +0.000 N 
ATOM     21  C   UNL     1       5.268   4.186  17.402  0.00  0.00    +0.000 C 
ATOM     22  N   UNL     1       4.910   4.448  16.178  0.00  0.00    +0.000 NA
ATOM     23  S   UNL     1       5.732   5.740  15.589  0.00  0.00    +0.000 S 
ATOM     24  O   UNL     1       4.838   6.862  15.402  0.00  0.00    +0.000 OA
ATOM     25  O   UNL     1       6.674   5.316  14.576  0.00  0.00    +0.000 OA
ATOM     26  C   UNL     1       6.645   6.042  17.036  0.00  0.00    +0.000 A 
ATOM     27  C   UNL     1       7.574   7.036  17.274  0.00  0.00    +0.000 A 
ATOM     28  C   UNL     1       8.172   7.048  18.534  0.00  0.00    +0.000 A 
ATOM     29  C   UNL     1       7.825   6.086  19.503  0.00  0.00    +0.000 A 
ATOM     30  C   UNL     1       6.872   5.096  19.228  0.00  0.00    +0.000 A 
ATOM     31  C   UNL     1       6.292   5.090  17.972  0.00  0.00    +0.000 A 
ATOM     32  H   UNL     1       5.268   2.839  18.960  0.00  0.00    +0.000 HD
ENDBRANCH  19  20
ENDBRANCH  18  19
ENDBRANCH  17  18
ENDBRANCH   2  17
TORSDOF 6
ENDMDL
MODEL 3
REMARK VINA RESULT:      -8.2      4.608      7.680
REMARK  Name = 
REMARK  6 active torsions:
REMARK  status: ('A' for Active; 'I' for Inactive)
REMARK    1  A    between atoms: C_2  and  C_3
REMARK    2  A    between atoms: C_3  and  C_4
REMARK    3  A    between atoms: C_4  and  C_5
REMARK    4  A    between atoms: C_5  and  N_6
REMARK    5  A    between atoms: N_18  and  C_19
REMARK    6  A    between atoms: C_22  and  C_23
REMARK                            x       y       z     vdW  Elec       q    Type
REMARK                         _______ _______ _______ _____ _____    ______ ____
ROOT
ATOM      1  O   UNL     1       7.771   7.707  16.954  0.00  0.00    +0.000 OA
ATOM      2  C   UNL     1       7.949   7.390  18.127  0.00  0.00    +0.000 C 
ATOM      3  N   UNL     1       8.512   8.186  19.112  0.00  0.00    +0.000 N 
ATOM      4  H   UNL     1       8.759   7.738  19.985  0.00  0.00    +0.000 HD
ENDROOT
BRANCH   3   5
ATOM      5  C   UNL     1       8.945   9.520  18.953  0.00  0.00    +0.000 A 
ATOM      6  C   UNL     1       8.759  10.249  17.783  0.00  0.00    +0.000 A 
ATOM      7  C   UNL     1       9.263  11.551  17.665  0.00  0.00    +0.000 A 
ATOM      8  C   UNL     1       9.957  12.175  18.715  0.00  0.00    +0.000 A 
ATOM      9  C   UNL     1      10.092  11.440  19.906  0.00  0.00    +0.000 A 
ATOM     10  C   UNL     1       9.590  10.135  20.027  0.00  0.00    +0.000 A 
BRANCH   8  11
ATOM     11  C   UNL     1      10.524  13.537  18.563  0.00  0.00    +0.000 A 
ATOM     12  C   UNL     1      11.123  14.212  19.645  0.00  0.00    +0.000 A 
ATOM     13  C   UNL     1      11.644  15.502  19.509  0.00  0.00    +0.000 A 
ATOM     14  C   UNL     1      11.590  16.150  18.280  0.00  0.00    +0.000 A 
ATOM     15  C   UNL     1      11.006  15.510  17.192  0.00  0.00    +0.000 A 
ATOM     16  C   UNL     1      10.474  14.223  17.335  0.00  0.00    +0.000 A 
ENDBRANCH   8  11
ENDBRANCH   3   5
BRANCH   2  17
ATOM     17  C   UNL     1       7.529   6.027  18.643  0.00  0.00    +0.000 C 
BRANCH  17  18
ATOM     18  C   UNL     1       7.725   4.945  17.580  0.00  0.00    +0.000 C 
BRANCH  18  19
ATOM     19  C   UNL     1       6.387   4.451  17.042  0.00  0.00    +0.000 C 
BRANCH  19  20
ATOM     20  N   UNL     1       5.612   3.848  18.110  0.00  0.00    +0.000 N 
ATOM     21  C   UNL     1       4.293   4.161  18.321  0.00  0.00    +0.000 C 
ATOM     22  N   UNL     1       3.605   4.963  17.559  0.00  0.00    +0.000 NA
ATOM     23  S   UNL     1       2.066   5.118  18.105  0.00  0.00    +0.000 S 
ATOM     24  O   UNL     1       1.140   4.499  17.182  0.00  0.00    +0.000 OA
ATOM     25  O   UNL     1       1.857   6.442  18.649  0.00  0.00    +0.000 OA
ATOM     26  C   UNL     1       2.248   4.039  19.454  0.00  0.00    +0.000 A 
ATOM     27  C   UNL     1       1.305   3.667  20.391  0.00  0.00    +0.000 A 
ATOM     28  C   UNL     1       1.721   2.782  21.385  0.00  0.00    +0.000 A 
ATOM     29  C   UNL     1       3.045   2.300  21.411  0.00  0.00    +0.000 A 
ATOM     30  C   UNL     1       3.975   2.695  20.439  0.00  0.00    +0.000 A 
ATOM     31  C   UNL     1       3.551   3.579  19.463  0.00  0.00    +0.000 A 
ATOM     32  H   UNL     1       6.147   3.464  18.881  0.00  0.00    +0.000 HD
ENDBRANCH  19  20
ENDBRANCH  18  19
ENDBRANCH  17  18
ENDBRANCH   2  17
TORSDOF 6
ENDMDL
MODEL 4
REMARK VINA RESULT:      -8.2      1.794      2.703
REMARK  Name = 
REMARK  6 active torsions:
REMARK  status: ('A' for Active; 'I' for Inactive)
REMARK    1  A    between atoms: C_2  and  C_3
REMARK    2  A    between atoms: C_3  and  C_4
REMARK    3  A    between atoms: C_4  and  C_5
REMARK    4  A    between atoms: C_5  and  N_6
REMARK    5  A    between atoms: N_18  and  C_19
REMARK    6  A    between atoms: C_22  and  C_23
REMARK                            x       y       z     vdW  Elec       q    Type
REMARK                         _______ _______ _______ _____ _____    ______ ____
ROOT
ATOM      1  O   UNL     1       0.894   4.456  20.590  0.00  0.00    +0.000 OA
ATOM      2  C   UNL     1       2.116   4.535  20.499  0.00  0.00    +0.000 C 
ATOM      3  N   UNL     1       2.834   5.644  20.079  0.00  0.00    +0.000 N 
ATOM      4  H   UNL     1       3.818   5.511  19.884  0.00  0.00    +0.000 HD
ENDROOT
BRANCH   3   5
ATOM      5  C   UNL     1       2.291   6.895  19.720  0.00  0.00    +0.000 A 
ATOM      6  C   UNL     1       2.392   7.433  18.440  0.00  0.00    +0.000 A 
ATOM      7  C   UNL     1       1.883   8.708  18.158  0.00  0.00    +0.000 A 
ATOM      8  C   UNL     1       1.243   9.483  19.139  0.00  0.00    +0.000 A 
ATOM      9  C   UNL     1       1.107   8.903  20.413  0.00  0.00    +0.000 A 
ATOM     10  C   UNL     1       1.618   7.627  20.699  0.00  0.00    +0.000 A 
BRANCH   8  11
ATOM     11  C   UNL     1       0.747  10.849  18.840  0.00  0.00    +0.000 A 
ATOM     12  C   UNL     1       1.619  11.952  18.772  0.00  0.00    +0.000 A 
ATOM     13  C   UNL     1       1.152  13.243  18.507  0.00  0.00    +0.000 A 
ATOM     14  C   UNL     1      -0.203  13.463  18.290  0.00  0.00    +0.000 A 
ATOM     15  C   UNL     1      -1.091  12.394  18.349  0.00  0.00    +0.000 A 
ATOM     16  C   UNL     1      -0.621  11.105  18.628  0.00  0.00    +0.000 A 
ENDBRANCH   8  11
ENDBRANCH   3   5
BRANCH   2  17
ATOM     17  C   UNL     1       3.007   3.367  20.876  0.00  0.00    +0.000 C 
BRANCH  17  18
ATOM     18  C   UNL     1       3.593   2.691  19.636  0.00  0.00    +0.000 C 
BRANCH  18  19
ATOM     19  C   UNL     1       2.704   2.904  18.417  0.00  0.00    +0.000 C 
BRANCH  19  20
ATOM     20  N   UNL     1       3.518   3.073  17.228  0.00  0.00    +0.000 N 
ATOM     21  C   UNL     1       4.639   3.864  17.218  0.00  0.00    +0.000 C 
ATOM     22  N   UNL     1       5.108   4.474  18.269  0.00  0.00    +0.000 NA
ATOM     23  S   UNL     1       6.454   5.337  17.896  0.00  0.00    +0.000 S 
ATOM     24  O   UNL     1       7.618   4.748  18.521  0.00  0.00    +0.000 OA
ATOM     25  O   UNL     1       6.171   6.755  17.953  0.00  0.00    +0.000 OA
ATOM     26  C   UNL     1       6.488   4.893  16.217  0.00  0.00    +0.000 A 
ATOM     27  C   UNL     1       7.400   5.264  15.249  0.00  0.00    +0.000 A 
ATOM     28  C   UNL     1       7.189   4.766  13.963  0.00  0.00    +0.000 A 
ATOM     29  C   UNL     1       6.093   3.924  13.689  0.00  0.00    +0.000 A 
ATOM     30  C   UNL     1       5.190   3.564  14.699  0.00  0.00    +0.000 A 
ATOM     31  C   UNL     1       5.407   4.070  15.968  0.00  0.00    +0.000 A 
ATOM     32  H   UNL     1       3.058   2.875  16.347  0.00  0.00    +0.000 HD
ENDBRANCH  19  20
ENDBRANCH  18  19
ENDBRANCH  17  18
ENDBRANCH   2  17
TORSDOF 6
ENDMDL
MODEL 5
REMARK VINA RESULT:      -8.2      4.862      9.545
REMARK  Name = 
REMARK  6 active torsions:
REMARK  status: ('A' for Active; 'I' for Inactive)
REMARK    1  A    between atoms: C_2  and  C_3
REMARK    2  A    between atoms: C_3  and  C_4
REMARK    3  A    between atoms: C_4  and  C_5
REMARK    4  A    between atoms: C_5  and  N_6
REMARK    5  A    between atoms: N_18  and  C_19
REMARK    6  A    between atoms: C_22  and  C_23
REMARK                            x       y       z     vdW  Elec       q    Type
REMARK                         _______ _______ _______ _____ _____    ______ ____
ROOT
ATOM      1  O   UNL     1      -0.955   8.019  21.649  0.00  0.00    +0.000 OA
ATOM      2  C   UNL     1      -0.291   9.047  21.754  0.00  0.00    +0.000 C 
ATOM      3  N   UNL     1       0.922   9.303  21.134  0.00  0.00    +0.000 N 
ATOM      4  H   UNL     1       1.440  10.114  21.448  0.00  0.00    +0.000 HD
ENDROOT
BRANCH   3   5
ATOM      5  C   UNL     1       1.592   8.444  20.238  0.00  0.00    +0.000 A 
ATOM      6  C   UNL     1       1.992   7.154  20.572  0.00  0.00    +0.000 A 
ATOM      7  C   UNL     1       2.707   6.369  19.657  0.00  0.00    +0.000 A 
ATOM      8  C   UNL     1       3.034   6.839  18.375  0.00  0.00    +0.000 A 
ATOM      9  C   UNL     1       2.580   8.126  18.039  0.00  0.00    +0.000 A 
ATOM     10  C   UNL     1       1.865   8.916  18.953  0.00  0.00    +0.000 A 
BRANCH   8  11
ATOM     11  C   UNL     1       3.829   6.014  17.431  0.00  0.00    +0.000 A 
ATOM     12  C   UNL     1       4.657   6.603  16.455  0.00  0.00    +0.000 A 
ATOM     13  C   UNL     1       5.394   5.829  15.553  0.00  0.00    +0.000 A 
ATOM     14  C   UNL     1       5.333   4.441  15.612  0.00  0.00    +0.000 A 
ATOM     15  C   UNL     1       4.526   3.830  16.566  0.00  0.00    +0.000 A 
ATOM     16  C   UNL     1       3.779   4.608  17.458  0.00  0.00    +0.000 A 
ENDBRANCH   8  11
ENDBRANCH   3   5
BRANCH   2  17
ATOM     17  C   UNL     1      -0.771  10.207  22.605  0.00  0.00    +0.000 C 
BRANCH  17  18
ATOM     18  C   UNL     1      -0.182  11.533  22.123  0.00  0.00    +0.000 C 
BRANCH  18  19
ATOM     19  C   UNL     1      -1.258  12.431  21.526  0.00  0.00    +0.000 C 
BRANCH  19  20
ATOM     20  N   UNL     1      -1.525  12.046  20.153  0.00  0.00    +0.000 N 
ATOM     21  C   UNL     1      -2.790  12.067  19.621  0.00  0.00    +0.000 C 
ATOM     22  N   UNL     1      -3.842  12.490  20.264  0.00  0.00    +0.000 NA
ATOM     23  S   UNL     1      -5.187  12.369  19.333  0.00  0.00    +0.000 S 
ATOM     24  O   UNL     1      -5.676  13.685  18.981  0.00  0.00    +0.000 OA
ATOM     25  O   UNL     1      -6.053  11.324  19.836  0.00  0.00    +0.000 OA
ATOM     26  C   UNL     1      -4.378  11.727  17.936  0.00  0.00    +0.000 A 
ATOM     27  C   UNL     1      -4.919  11.382  16.713  0.00  0.00    +0.000 A 
ATOM     28  C   UNL     1      -4.038  10.878  15.756  0.00  0.00    +0.000 A 
ATOM     29  C   UNL     1      -2.665  10.741  16.044  0.00  0.00    +0.000 A 
ATOM     30  C   UNL     1      -2.151  11.108  17.295  0.00  0.00    +0.000 A 
ATOM     31  C   UNL     1      -3.037  11.600  18.238  0.00  0.00    +0.000 A 
ATOM     32  H   UNL     1      -0.828  11.451  19.719  0.00  0.00    +0.000 HD
ENDBRANCH  19  20
ENDBRANCH  18  19
ENDBRANCH  17  18
ENDBRANCH   2  17
TORSDOF 6
ENDMDL
MODEL 6
REMARK VINA RESULT:      -8.1      0.906      1.214
REMARK  Name = 
REMARK  6 active torsions:
REMARK  status: ('A' for Active; 'I' for Inactive)
REMARK    1  A    between atoms: C_2  and  C_3
REMARK    2  A    between atoms: C_3  and  C_4
REMARK    3  A    between atoms: C_4  and  C_5
REMARK    4  A    between atoms: C_5  and  N_6
REMARK    5  A    between atoms: N_18  and  C_19
REMARK    6  A    between atoms: C_22  and  C_23
REMARK                            x       y       z     vdW  Elec       q    Type
REMARK                         _______ _______ _______ _____ _____    ______ ____
ROOT
ATOM      1  O   UNL     1       2.321   3.941  21.776  0.00  0.00    +0.000 OA
ATOM      2  C   UNL     1       2.603   3.752  20.596  0.00  0.00    +0.000 C 
ATOM      3  N   UNL     1       2.537   4.692  19.579  0.00  0.00    +0.000 N 
ATOM      4  H   UNL     1       2.627   4.354  18.629  0.00  0.00    +0.000 HD
ENDROOT
BRANCH   3   5
ATOM      5  C   UNL     1       2.171   6.046  19.725  0.00  0.00    +0.000 A 
ATOM      6  C   UNL     1       1.505   6.542  20.843  0.00  0.00    +0.000 A 
ATOM      7  C   UNL     1       1.117   7.887  20.905  0.00  0.00    +0.000 A 
ATOM      8  C   UNL     1       1.390   8.786  19.861  0.00  0.00    +0.000 A 
ATOM      9  C   UNL     1       2.105   8.278  18.762  0.00  0.00    +0.000 A 
ATOM     10  C   UNL     1       2.495   6.931  18.696  0.00  0.00    +0.000 A 
BRANCH   8  11
ATOM     11  C   UNL     1       0.935  10.197  19.918  0.00  0.00    +0.000 A 
ATOM     12  C   UNL     1       0.971  11.030  18.784  0.00  0.00    +0.000 A 
ATOM     13  C   UNL     1       0.559  12.365  18.839  0.00  0.00    +0.000 A 
ATOM     14  C   UNL     1       0.086  12.900  20.032  0.00  0.00    +0.000 A 
ATOM     15  C   UNL     1       0.036  12.102  21.170  0.00  0.00    +0.000 A 
ATOM     16  C   UNL     1       0.463  10.770  21.114  0.00  0.00    +0.000 A 
ENDBRANCH   8  11
ENDBRANCH   3   5
BRANCH   2  17
ATOM     17  C   UNL     1       3.097   2.401  20.115  0.00  0.00    +0.000 C 
BRANCH  17  18
ATOM     18  C   UNL     1       2.638   2.117  18.684  0.00  0.00    +0.000 C 
BRANCH  18  19
ATOM     19  C   UNL     1       3.793   2.242  17.698  0.00  0.00    +0.000 C 
BRANCH  19  20
ATOM     20  N   UNL     1       4.778   3.183  18.199  0.00  0.00    +0.000 N 
ATOM     21  C   UNL     1       5.239   4.230  17.442  0.00  0.00    +0.000 C 
ATOM     22  N   UNL     1       4.797   4.515  16.250  0.00  0.00    +0.000 NA
ATOM     23  S   UNL     1       5.572   5.824  15.633  0.00  0.00    +0.000 S 
ATOM     24  O   UNL     1       4.662   6.944  15.530  0.00  0.00    +0.000 OA
ATOM     25  O   UNL     1       6.445   5.425  14.550  0.00  0.00    +0.000 OA
ATOM     26  C   UNL     1       6.579   6.102  17.020  0.00  0.00    +0.000 A 
ATOM     27  C   UNL     1       7.518   7.096  17.215  0.00  0.00    +0.000 A 
ATOM     28  C   UNL     1       8.200   7.087  18.432  0.00  0.00    +0.000 A 
ATOM     29  C   UNL     1       7.924   6.103  19.403  0.00  0.00    +0.000 A 
ATOM     30  C   UNL     1       6.960   5.113  19.173  0.00  0.00    +0.000 A 
ATOM     31  C   UNL     1       6.296   5.129  17.959  0.00  0.00    +0.000 A 
ATOM     32  H   UNL     1       5.351   2.853  18.968  0.00  0.00    +0.000 HD
ENDBRANCH  19  20
ENDBRANCH  18  19
ENDBRANCH  17  18
ENDBRANCH   2  17
TORSDOF 6
ENDMDL
MODEL 7
REMARK VINA RESULT:      -8.1      2.280      4.525
REMARK  Name = 
REMARK  6 active torsions:
REMARK  status: ('A' for Active; 'I' for Inactive)
REMARK    1  A    between atoms: C_2  and  C_3
REMARK    2  A    between atoms: C_3  and  C_4
REMARK    3  A    between atoms: C_4  and  C_5
REMARK    4  A    between atoms: C_5  and  N_6
REMARK    5  A    between atoms: N_18  and  C_19
REMARK    6  A    between atoms: C_22  and  C_23
REMARK                            x       y       z     vdW  Elec       q    Type
REMARK                         _______ _______ _______ _____ _____    ______ ____
ROOT
ATOM      1  O   UNL     1       5.976   7.680  17.745  0.00  0.00    +0.000 OA
ATOM      2  C   UNL     1       5.313   6.851  17.128  0.00  0.00    +0.000 C 
ATOM      3  N   UNL     1       3.955   6.615  17.278  0.00  0.00    +0.000 N 
ATOM      4  H   UNL     1       3.578   5.786  16.836  0.00  0.00    +0.000 HD
ENDROOT
BRANCH   3   5
ATOM      5  C   UNL     1       3.083   7.313  18.138  0.00  0.00    +0.000 A 
ATOM      6  C   UNL     1       2.494   8.530  17.807  0.00  0.00    +0.000 A 
ATOM      7  C   UNL     1       1.681   9.204  18.727  0.00  0.00    +0.000 A 
ATOM      8  C   UNL     1       1.416   8.682  20.004  0.00  0.00    +0.000 A 
ATOM      9  C   UNL     1       1.980   7.429  20.303  0.00  0.00    +0.000 A 
ATOM     10  C   UNL     1       2.797   6.751  19.384  0.00  0.00    +0.000 A 
BRANCH   8  11
ATOM     11  C   UNL     1       0.590   9.426  20.986  0.00  0.00    +0.000 A 
ATOM     12  C   UNL     1       0.470   9.000  22.322  0.00  0.00    +0.000 A 
ATOM     13  C   UNL     1      -0.322   9.689  23.246  0.00  0.00    +0.000 A 
ATOM     14  C   UNL     1      -1.007  10.835  22.858  0.00  0.00    +0.000 A 
ATOM     15  C   UNL     1      -0.908  11.284  21.545  0.00  0.00    +0.000 A 
ATOM     16  C   UNL     1      -0.125  10.583  20.620  0.00  0.00    +0.000 A 
ENDBRANCH   8  11
ENDBRANCH   3   5
BRANCH   2  17
ATOM     17  C   UNL     1       5.949   5.969  16.070  0.00  0.00    +0.000 C 
BRANCH  17  18
ATOM     18  C   UNL     1       5.733   4.487  16.377  0.00  0.00    +0.000 C 
BRANCH  18  19
ATOM     19  C   UNL     1       6.520   4.057  17.609  0.00  0.00    +0.000 C 
BRANCH  19  20
ATOM     20  N   UNL     1       5.613   3.756  18.701  0.00  0.00    +0.000 N 
ATOM     21  C   UNL     1       4.281   3.499  18.494  0.00  0.00    +0.000 C 
ATOM     22  N   UNL     1       3.727   3.436  17.317  0.00  0.00    +0.000 NA
ATOM     23  S   UNL     1       2.122   3.117  17.439  0.00  0.00    +0.000 S 
ATOM     24  O   UNL     1       1.832   1.794  16.930  0.00  0.00    +0.000 OA
ATOM     25  O   UNL     1       1.350   4.283  17.067  0.00  0.00    +0.000 OA
ATOM     26  C   UNL     1       2.093   3.022  19.173  0.00  0.00    +0.000 A 
ATOM     27  C   UNL     1       1.019   2.759  20.001  0.00  0.00    +0.000 A 
ATOM     28  C   UNL     1       1.272   2.747  21.373  0.00  0.00    +0.000 A 
ATOM     29  C   UNL     1       2.568   2.991  21.867  0.00  0.00    +0.000 A 
ATOM     30  C   UNL     1       3.636   3.249  20.996  0.00  0.00    +0.000 A 
ATOM     31  C   UNL     1       3.370   3.265  19.638  0.00  0.00    +0.000 A 
ATOM     32  H   UNL     1       5.908   4.072  19.619  0.00  0.00    +0.000 HD
ENDBRANCH  19  20
ENDBRANCH  18  19
ENDBRANCH  17  18
ENDBRANCH   2  17
TORSDOF 6
ENDMDL
MODEL 8
REMARK VINA RESULT:      -8.1      1.836      2.557
REMARK  Name = 
REMARK  6 active torsions:
REMARK  status: ('A' for Active; 'I' for Inactive)
REMARK    1  A    between atoms: C_2  and  C_3
REMARK    2  A    between atoms: C_3  and  C_4
REMARK    3  A    between atoms: C_4  and  C_5
REMARK    4  A    between atoms: C_5  and  N_6
REMARK    5  A    between atoms: N_18  and  C_19
REMARK    6  A    between atoms: C_22  and  C_23
REMARK                            x       y       z     vdW  Elec       q    Type
REMARK                         _______ _______ _______ _____ _____    ______ ____
ROOT
ATOM      1  O   UNL     1       0.349   4.628  20.167  0.00  0.00    +0.000 OA
ATOM      2  C   UNL     1       1.494   4.685  20.607  0.00  0.00    +0.000 C 
ATOM      3  N   UNL     1       2.264   5.831  20.734  0.00  0.00    +0.000 N 
ATOM      4  H   UNL     1       3.247   5.708  20.944  0.00  0.00    +0.000 HD
ENDROOT
BRANCH   3   5
ATOM      5  C   UNL     1       1.855   7.144  20.418  0.00  0.00    +0.000 A 
ATOM      6  C   UNL     1       1.126   7.948  21.288  0.00  0.00    +0.000 A 
ATOM      7  C   UNL     1       0.699   9.223  20.894  0.00  0.00    +0.000 A 
ATOM      8  C   UNL     1       0.996   9.744  19.625  0.00  0.00    +0.000 A 
ATOM      9  C   UNL     1       1.775   8.937  18.777  0.00  0.00    +0.000 A 
ATOM     10  C   UNL     1       2.203   7.658  19.168  0.00  0.00    +0.000 A 
BRANCH   8  11
ATOM     11  C   UNL     1       0.501  11.078  19.203  0.00  0.00    +0.000 A 
ATOM     12  C   UNL     1       1.379  12.078  18.741  0.00  0.00    +0.000 A 
ATOM     13  C   UNL     1       0.917  13.341  18.358  0.00  0.00    +0.000 A 
ATOM     14  C   UNL     1      -0.440  13.635  18.417  0.00  0.00    +0.000 A 
ATOM     15  C   UNL     1      -1.333  12.668  18.868  0.00  0.00    +0.000 A 
ATOM     16  C   UNL     1      -0.866  11.409  19.262  0.00  0.00    +0.000 A 
ENDBRANCH   8  11
ENDBRANCH   3   5
BRANCH   2  17
ATOM     17  C   UNL     1       2.208   3.441  21.099  0.00  0.00    +0.000 C 
BRANCH  17  18
ATOM     18  C   UNL     1       2.447   2.449  19.960  0.00  0.00    +0.000 C 
BRANCH  18  19
ATOM     19  C   UNL     1       3.935   2.226  19.724  0.00  0.00    +0.000 C 
BRANCH  19  20
ATOM     20  N   UNL     1       4.290   2.617  18.372  0.00  0.00    +0.000 N 
ATOM     21  C   UNL     1       5.290   3.521  18.113  0.00  0.00    +0.000 C 
ATOM     22  N   UNL     1       6.045   4.053  19.031  0.00  0.00    +0.000 NA
ATOM     23  S   UNL     1       7.129   5.093  18.370  0.00  0.00    +0.000 S 
ATOM     24  O   UNL     1       8.471   4.566  18.492  0.00  0.00    +0.000 OA
ATOM     25  O   UNL     1       6.792   6.457  18.719  0.00  0.00    +0.000 OA
ATOM     26  C   UNL     1       6.625   4.852  16.725  0.00  0.00    +0.000 A 
ATOM     27  C   UNL     1       7.134   5.427  15.578  0.00  0.00    +0.000 A 
ATOM     28  C   UNL     1       6.535   5.060  14.372  0.00  0.00    +0.000 A 
ATOM     29  C   UNL     1       5.467   4.141  14.351  0.00  0.00    +0.000 A 
ATOM     30  C   UNL     1       4.981   3.573  15.536  0.00  0.00    +0.000 A 
ATOM     31  C   UNL     1       5.579   3.950  16.725  0.00  0.00    +0.000 A 
ATOM     32  H   UNL     1       3.574   2.473  17.669  0.00  0.00    +0.000 HD
ENDBRANCH  19  20
ENDBRANCH  18  19
ENDBRANCH  17  18
ENDBRANCH   2  17
TORSDOF 6
ENDMDL
MODEL 9
REMARK VINA RESULT:      -8.1      3.707      6.227
REMARK  Name = 
REMARK  6 active torsions:
REMARK  status: ('A' for Active; 'I' for Inactive)
REMARK    1  A    between atoms: C_2  and  C_3
REMARK    2  A    between atoms: C_3  and  C_4
REMARK    3  A    between atoms: C_4  and  C_5
REMARK    4  A    between atoms: C_5  and  N_6
REMARK    5  A    between atoms: N_18  and  C_19
REMARK    6  A    between atoms: C_22  and  C_23
REMARK                            x       y       z     vdW  Elec       q    Type
REMARK                         _______ _______ _______ _____ _____    ______ ____
ROOT
ATOM      1  O   UNL     1      -0.198   9.515  20.412  0.00  0.00    +0.000 OA
ATOM      2  C   UNL     1       0.161  10.447  19.698  0.00  0.00    +0.000 C 
ATOM      3  N   UNL     1      -0.498  11.656  19.539  0.00  0.00    +0.000 N 
ATOM      4  H   UNL     1      -0.185  12.258  18.788  0.00  0.00    +0.000 HD
ENDROOT
BRANCH   3   5
ATOM      5  C   UNL     1      -1.680  12.049  20.201  0.00  0.00    +0.000 A 
ATOM      6  C   UNL     1      -1.750  12.270  21.573  0.00  0.00    +0.000 A 
ATOM      7  C   UNL     1      -2.967  12.602  22.182  0.00  0.00    +0.000 A 
ATOM      8  C   UNL     1      -4.153  12.740  21.442  0.00  0.00    +0.000 A 
ATOM      9  C   UNL     1      -4.053  12.560  20.051  0.00  0.00    +0.000 A 
ATOM     10  C   UNL     1      -2.835  12.225  19.438  0.00  0.00    +0.000 A 
BRANCH   8  11
ATOM     11  C   UNL     1      -5.444  13.049  22.103  0.00  0.00    +0.000 A 
ATOM     12  C   UNL     1      -6.652  12.468  21.671  0.00  0.00    +0.000 A 
ATOM     13  C   UNL     1      -7.873  12.770  22.282  0.00  0.00    +0.000 A 
ATOM     14  C   UNL     1      -7.917  13.656  23.353  0.00  0.00    +0.000 A 
ATOM     15  C   UNL     1      -6.740  14.246  23.804  0.00  0.00    +0.000 A 
ATOM     16  C   UNL     1      -5.522  13.951  23.181  0.00  0.00    +0.000 A 
ENDBRANCH   8  11
ENDBRANCH   3   5
BRANCH   2  17
ATOM     17  C   UNL     1       1.442  10.366  18.891  0.00  0.00    +0.000 C 
BRANCH  17  18
ATOM     18  C   UNL     1       1.373   9.252  17.846  0.00  0.00    +0.000 C 
BRANCH  18  19
ATOM     19  C   UNL     1       2.579   8.325  17.946  0.00  0.00    +0.000 C 
BRANCH  19  20
ATOM     20  N   UNL     1       2.281   7.211  18.828  0.00  0.00    +0.000 N 
ATOM     21  C   UNL     1       3.065   6.086  18.873  0.00  0.00    +0.000 C 
ATOM     22  N   UNL     1       4.166   5.939  18.192  0.00  0.00    +0.000 NA
ATOM     23  S   UNL     1       4.843   4.473  18.479  0.00  0.00    +0.000 S 
ATOM     24  O   UNL     1       6.082   4.625  19.211  0.00  0.00    +0.000 OA
ATOM     25  O   UNL     1       4.727   3.629  17.310  0.00  0.00    +0.000 OA
ATOM     26  C   UNL     1       3.637   3.940  19.610  0.00  0.00    +0.000 A 
ATOM     27  C   UNL     1       3.572   2.744  20.297  0.00  0.00    +0.000 A 
ATOM     28  C   UNL     1       2.481   2.566  21.148  0.00  0.00    +0.000 A 
ATOM     29  C   UNL     1       1.507   3.574  21.288  0.00  0.00    +0.000 A 
ATOM     30  C   UNL     1       1.609   4.779  20.579  0.00  0.00    +0.000 A 
ATOM     31  C   UNL     1       2.692   4.940  19.733  0.00  0.00    +0.000 A 
ATOM     32  H   UNL     1       1.319   7.144  19.143  0.00  0.00    +0.000 HD
ENDBRANCH  19  20
ENDBRANCH  18  19
ENDBRANCH  17  18
ENDBRANCH   2  17
TORSDOF 6
ENDMDL
