MODEL 1
REMARK VINA RESULT:      -7.7      0.000      0.000
REMARK  Name = 
REMARK  2 active torsions:
REMARK  status: ('A' for Active; 'I' for Inactive)
REMARK    1  A    between atoms: C_2  and  C_3
REMARK    2  A    between atoms: C_21  and  C_22
REMARK                            x       y       z     vdW  Elec       q    Type
REMARK                         _______ _______ _______ _____ _____    ______ ____
ROOT
ATOM      1  O   UNL     1       1.453  11.741  19.920  0.00  0.00    +0.000 OA
ATOM      2  C   UNL     1       0.742  10.823  19.510  0.00  0.00    +0.000 C 
ATOM      3  N   UNL     1      -0.634  10.947  19.477  0.00  0.00    +0.000 N 
ATOM      4  C   UNL     1      -1.705  10.154  18.900  0.00  0.00    +0.000 C 
ATOM      5  C   UNL     1      -2.336  11.481  18.413  0.00  0.00    +0.000 C 
ATOM      6  C   UNL     1      -3.837  11.643  18.702  0.00  0.00    +0.000 C 
ATOM      7  C   UNL     1      -4.672  10.762  17.782  0.00  0.00    +0.000 C 
ATOM      8  C   UNL     1      -4.378  11.064  16.317  0.00  0.00    +0.000 C 
ATOM      9  C   UNL     1      -2.891  10.897  16.015  0.00  0.00    +0.000 C 
ATOM     10  C   UNL     1      -2.028  11.772  16.929  0.00  0.00    +0.000 C 
ATOM     11  C   UNL     1      -1.380  12.213  19.432  0.00  0.00    +0.000 C 
ENDROOT
BRANCH   2  12
ATOM     12  C   UNL     1       1.372   9.573  18.970  0.00  0.00    +0.000 A 
ATOM     13  N   UNL     1       1.933   9.611  17.743  0.00  0.00    +0.000 NA
ATOM     14  N   UNL     1       2.664   8.542  17.318  0.00  0.00    +0.000 NA
ATOM     15  C   UNL     1       2.801   7.474  18.118  0.00  0.00    +0.000 A 
ATOM     16  C   UNL     1       3.569   6.377  17.739  0.00  0.00    +0.000 A 
ATOM     17  C   UNL     1       3.706   5.269  18.573  0.00  0.00    +0.000 A 
ATOM     18  C   UNL     1       3.067   5.260  19.805  0.00  0.00    +0.000 A 
ATOM     19  C   UNL     1       2.304   6.363  20.195  0.00  0.00    +0.000 A 
ATOM     20  C   UNL     1       2.165   7.477  19.375  0.00  0.00    +0.000 A 
ATOM     21  N   UNL     1       1.446   8.521  19.809  0.00  0.00    +0.000 NA
ENDBRANCH   2  12
BRANCH  11  22
ATOM     22  C   UNL     1      -1.996  12.745  20.806  0.00  0.00    +0.000 A 
ATOM     23  C   UNL     1      -2.006  11.979  21.990  0.00  0.00    +0.000 A 
ATOM     24  C   UNL     1      -2.654  12.412  23.149  0.00  0.00    +0.000 A 
ATOM     25  C   UNL     1      -3.302  13.641  23.166  0.00  0.00    +0.000 A 
ATOM     26  C   UNL     1      -3.282  14.444  22.032  0.00  0.00    +0.000 A 
ATOM     27  C   UNL     1      -2.632  14.002  20.876  0.00  0.00    +0.000 A 
ENDBRANCH  11  22
TORSDOF 2
ENDMDL
MODEL 2
REMARK VINA RESULT:      -7.3      3.208      7.121
REMARK  Name = 
REMARK  2 active torsions:
REMARK  status: ('A' for Active; 'I' for Inactive)
REMARK    1  A    between atoms: C_2  and  C_3
REMARK    2  A    between atoms: C_21  and  C_22
REMARK                            x       y       z     vdW  Elec       q    Type
REMARK                         _______ _______ _______ _____ _____    ______ ____
ROOT
ATOM      1  O   UNL     1       1.866  12.641  21.090  0.00  0.00    +0.000 OA
ATOM      2  C   UNL     1       1.353  12.899  20.000  0.00  0.00    +0.000 C 
ATOM      3  N   UNL     1       0.743  11.914  19.247  0.00  0.00    +0.000 N 
ATOM      4  C   UNL     1      -0.086  11.922  18.056  0.00  0.00    +0.000 C 
ATOM      5  C   UNL     1      -0.992  10.883  18.758  0.00  0.00    +0.000 C 
ATOM      6  C   UNL     1      -1.370   9.658  17.912  0.00  0.00    +0.000 C 
ATOM      7  C   UNL     1      -2.397  10.020  16.847  0.00  0.00    +0.000 C 
ATOM      8  C   UNL     1      -3.642  10.637  17.473  0.00  0.00    +0.000 C 
ATOM      9  C   UNL     1      -3.281  11.862  18.309  0.00  0.00    +0.000 C 
ATOM     10  C   UNL     1      -2.247  11.525  19.388  0.00  0.00    +0.000 C 
ATOM     11  C   UNL     1       0.197  10.652  19.769  0.00  0.00    +0.000 C 
ENDROOT
BRANCH   2  12
ATOM     12  C   UNL     1       1.325  14.315  19.504  0.00  0.00    +0.000 A 
ATOM     13  N   UNL     1       2.439  14.821  18.934  0.00  0.00    +0.000 NA
ATOM     14  N   UNL     1       2.372  16.037  18.320  0.00  0.00    +0.000 NA
ATOM     15  C   UNL     1       1.210  16.706  18.303  0.00  0.00    +0.000 A 
ATOM     16  C   UNL     1       1.088  17.931  17.655  0.00  0.00    +0.000 A 
ATOM     17  C   UNL     1      -0.121  18.625  17.643  0.00  0.00    +0.000 A 
ATOM     18  C   UNL     1      -1.224  18.081  18.286  0.00  0.00    +0.000 A 
ATOM     19  C   UNL     1      -1.111  16.847  18.929  0.00  0.00    +0.000 A 
ATOM     20  C   UNL     1       0.088  16.143  18.943  0.00  0.00    +0.000 A 
ATOM     21  N   UNL     1       0.137  14.949  19.548  0.00  0.00    +0.000 NA
ENDBRANCH   2  12
BRANCH  11  22
ATOM     22  C   UNL     1       1.096   9.343  19.600  0.00  0.00    +0.000 A 
ATOM     23  C   UNL     1       1.817   9.054  18.422  0.00  0.00    +0.000 A 
ATOM     24  C   UNL     1       2.501   7.849  18.248  0.00  0.00    +0.000 A 
ATOM     25  C   UNL     1       2.500   6.895  19.259  0.00  0.00    +0.000 A 
ATOM     26  C   UNL     1       1.833   7.158  20.450  0.00  0.00    +0.000 A 
ATOM     27  C   UNL     1       1.150   8.366  20.616  0.00  0.00    +0.000 A 
ENDBRANCH  11  22
TORSDOF 2
ENDMDL
MODEL 3
REMARK VINA RESULT:      -7.1      2.241      8.815
REMARK  Name = 
REMARK  2 active torsions:
REMARK  status: ('A' for Active; 'I' for Inactive)
REMARK    1  A    between atoms: C_2  and  C_3
REMARK    2  A    between atoms: C_21  and  C_22
REMARK                            x       y       z     vdW  Elec       q    Type
REMARK                         _______ _______ _______ _____ _____    ______ ____
ROOT
ATOM      1  O   UNL     1       3.669   8.711  18.136  0.00  0.00    +0.000 OA
ATOM      2  C   UNL     1       2.607   8.090  18.200  0.00  0.00    +0.000 C 
ATOM      3  N   UNL     1       2.570   6.720  18.026  0.00  0.00    +0.000 N 
ATOM      4  C   UNL     1       1.549   5.706  18.217  0.00  0.00    +0.000 C 
ATOM      5  C   UNL     1       2.639   4.827  18.876  0.00  0.00    +0.000 C 
ATOM      6  C   UNL     1       2.704   3.374  18.380  0.00  0.00    +0.000 C 
ATOM      7  C   UNL     1       1.540   2.555  18.920  0.00  0.00    +0.000 C 
ATOM      8  C   UNL     1       1.501   2.595  20.443  0.00  0.00    +0.000 C 
ATOM      9  C   UNL     1       1.425   4.033  20.949  0.00  0.00    +0.000 C 
ATOM     10  C   UNL     1       2.586   4.879  20.418  0.00  0.00    +0.000 C 
ATOM     11  C   UNL     1       3.698   5.800  18.228  0.00  0.00    +0.000 C 
ENDROOT
BRANCH   2  12
ATOM     12  C   UNL     1       1.338   8.814  18.542  0.00  0.00    +0.000 A 
ATOM     13  N   UNL     1       1.227   9.381  19.762  0.00  0.00    +0.000 NA
ATOM     14  N   UNL     1       0.161  10.190  20.019  0.00  0.00    +0.000 NA
ATOM     15  C   UNL     1      -0.758  10.398  19.064  0.00  0.00    +0.000 A 
ATOM     16  C   UNL     1      -1.841  11.246  19.272  0.00  0.00    +0.000 A 
ATOM     17  C   UNL     1      -2.794  11.457  18.276  0.00  0.00    +0.000 A 
ATOM     18  C   UNL     1      -2.659  10.810  17.056  0.00  0.00    +0.000 A 
ATOM     19  C   UNL     1      -1.568   9.966  16.838  0.00  0.00    +0.000 A 
ATOM     20  C   UNL     1      -0.607   9.753  17.821  0.00  0.00    +0.000 A 
ATOM     21  N   UNL     1       0.436   8.957  17.551  0.00  0.00    +0.000 NA
ENDBRANCH   2  12
BRANCH  11  22
ATOM     22  C   UNL     1       4.483   5.311  16.926  0.00  0.00    +0.000 A 
ATOM     23  C   UNL     1       4.854   3.967  16.712  0.00  0.00    +0.000 A 
ATOM     24  C   UNL     1       5.643   3.577  15.628  0.00  0.00    +0.000 A 
ATOM     25  C   UNL     1       6.075   4.524  14.707  0.00  0.00    +0.000 A 
ATOM     26  C   UNL     1       5.700   5.853  14.859  0.00  0.00    +0.000 A 
ATOM     27  C   UNL     1       4.911   6.235  15.949  0.00  0.00    +0.000 A 
ENDBRANCH  11  22
TORSDOF 2
ENDMDL
MODEL 4
REMARK VINA RESULT:      -6.9      0.978      1.057
REMARK  Name = 
REMARK  2 active torsions:
REMARK  status: ('A' for Active; 'I' for Inactive)
REMARK    1  A    between atoms: C_2  and  C_3
REMARK    2  A    between atoms: C_21  and  C_22
REMARK                            x       y       z     vdW  Elec       q    Type
REMARK                         _______ _______ _______ _____ _____    ______ ____
ROOT
ATOM      1  O   UNL     1       1.938  12.048  18.992  0.00  0.00    +0.000 OA
ATOM      2  C   UNL     1       1.107  11.139  19.030  0.00  0.00    +0.000 C 
ATOM      3  N   UNL     1      -0.226  11.401  19.284  0.00  0.00    +0.000 N 
ATOM      4  C   UNL     1      -1.441  10.611  19.215  0.00  0.00    +0.000 C 
ATOM      5  C   UNL     1      -2.117  11.828  18.539  0.00  0.00    +0.000 C 
ATOM      6  C   UNL     1      -3.487  12.224  19.112  0.00  0.00    +0.000 C 
ATOM      7  C   UNL     1      -4.565  11.234  18.693  0.00  0.00    +0.000 C 
ATOM      8  C   UNL     1      -4.639  11.112  17.175  0.00  0.00    +0.000 C 
ATOM      9  C   UNL     1      -3.286  10.709  16.595  0.00  0.00    +0.000 C 
ATOM     10  C   UNL     1      -2.183  11.689  17.003  0.00  0.00    +0.000 C 
ATOM     11  C   UNL     1      -0.903  12.688  19.064  0.00  0.00    +0.000 C 
ENDROOT
BRANCH   2  12
ATOM     12  C   UNL     1       1.525   9.730  18.728  0.00  0.00    +0.000 A 
ATOM     13  N   UNL     1       2.109   9.472  17.539  0.00  0.00    +0.000 NA
ATOM     14  N   UNL     1       2.655   8.241  17.325  0.00  0.00    +0.000 NA
ATOM     15  C   UNL     1       2.591   7.313  18.292  0.00  0.00    +0.000 A 
ATOM     16  C   UNL     1       3.168   6.057  18.130  0.00  0.00    +0.000 A 
ATOM     17  C   UNL     1       3.097   5.094  19.136  0.00  0.00    +0.000 A 
ATOM     18  C   UNL     1       2.441   5.396  20.321  0.00  0.00    +0.000 A 
ATOM     19  C   UNL     1       1.870   6.658  20.494  0.00  0.00    +0.000 A 
ATOM     20  C   UNL     1       1.940   7.628  19.500  0.00  0.00    +0.000 A 
ATOM     21  N   UNL     1       1.401   8.834  19.726  0.00  0.00    +0.000 NA
ENDBRANCH   2  12
BRANCH  11  22
ATOM     22  C   UNL     1      -1.127  13.622  20.339  0.00  0.00    +0.000 A 
ATOM     23  C   UNL     1      -1.125  13.129  21.661  0.00  0.00    +0.000 A 
ATOM     24  C   UNL     1      -1.440  13.938  22.755  0.00  0.00    +0.000 A 
ATOM     25  C   UNL     1      -1.753  15.278  22.563  0.00  0.00    +0.000 A 
ATOM     26  C   UNL     1      -1.728  15.812  21.280  0.00  0.00    +0.000 A 
ATOM     27  C   UNL     1      -1.413  14.996  20.190  0.00  0.00    +0.000 A 
ENDBRANCH  11  22
TORSDOF 2
ENDMDL
MODEL 5
REMARK VINA RESULT:      -6.9      2.584      3.289
REMARK  Name = 
REMARK  2 active torsions:
REMARK  status: ('A' for Active; 'I' for Inactive)
REMARK    1  A    between atoms: C_2  and  C_3
REMARK    2  A    between atoms: C_21  and  C_22
REMARK                            x       y       z     vdW  Elec       q    Type
REMARK                         _______ _______ _______ _____ _____    ______ ____
ROOT
ATOM      1  O   UNL     1       0.800   9.750  22.873  0.00  0.00    +0.000 OA
ATOM      2  C   UNL     1       0.653   9.982  21.672  0.00  0.00    +0.000 C 
ATOM      3  N   UNL     1       0.136  11.187  21.237  0.00  0.00    +0.000 N 
ATOM      4  C   UNL     1       0.013  11.822  19.938  0.00  0.00    +0.000 C 
ATOM      5  C   UNL     1       0.482  13.136  20.608  0.00  0.00    +0.000 C 
ATOM      6  C   UNL     1      -0.361  14.379  20.286  0.00  0.00    +0.000 C 
ATOM      7  C   UNL     1      -0.104  14.865  18.866  0.00  0.00    +0.000 C 
ATOM      8  C   UNL     1       1.376  15.156  18.645  0.00  0.00    +0.000 C 
ATOM      9  C   UNL     1       2.224  13.925  18.952  0.00  0.00    +0.000 C 
ATOM     10  C   UNL     1       1.983  13.414  20.376  0.00  0.00    +0.000 C 
ATOM     11  C   UNL     1       0.154  12.450  21.990  0.00  0.00    +0.000 C 
ENDROOT
BRANCH   2  12
ATOM     12  C   UNL     1       1.103   8.975  20.656  0.00  0.00    +0.000 A 
ATOM     13  N   UNL     1       1.452   9.411  19.427  0.00  0.00    +0.000 NA
ATOM     14  N   UNL     1       2.031   8.536  18.556  0.00  0.00    +0.000 NA
ATOM     15  C   UNL     1       2.233   7.264  18.932  0.00  0.00    +0.000 A 
ATOM     16  C   UNL     1       2.855   6.349  18.089  0.00  0.00    +0.000 A 
ATOM     17  C   UNL     1       3.059   5.027  18.484  0.00  0.00    +0.000 A 
ATOM     18  C   UNL     1       2.636   4.618  19.741  0.00  0.00    +0.000 A 
ATOM     19  C   UNL     1       2.021   5.536  20.595  0.00  0.00    +0.000 A 
ATOM     20  C   UNL     1       1.817   6.858  20.216  0.00  0.00    +0.000 A 
ATOM     21  N   UNL     1       1.249   7.706  21.083  0.00  0.00    +0.000 NA
ENDBRANCH   2  12
BRANCH  11  22
ATOM     22  C   UNL     1      -1.188  12.867  22.748  0.00  0.00    +0.000 A 
ATOM     23  C   UNL     1      -1.304  14.050  23.509  0.00  0.00    +0.000 A 
ATOM     24  C   UNL     1      -2.445  14.340  24.260  0.00  0.00    +0.000 A 
ATOM     25  C   UNL     1      -3.520  13.459  24.263  0.00  0.00    +0.000 A 
ATOM     26  C   UNL     1      -3.461  12.301  23.495  0.00  0.00    +0.000 A 
ATOM     27  C   UNL     1      -2.315  12.018  22.747  0.00  0.00    +0.000 A 
ENDBRANCH  11  22
TORSDOF 2
ENDMDL
MODEL 6
REMARK VINA RESULT:      -6.9      3.363      8.438
REMARK  Name = 
REMARK  2 active torsions:
REMARK  status: ('A' for Active; 'I' for Inactive)
REMARK    1  A    between atoms: C_2  and  C_3
REMARK    2  A    between atoms: C_21  and  C_22
REMARK                            x       y       z     vdW  Elec       q    Type
REMARK                         _______ _______ _______ _____ _____    ______ ____
ROOT
ATOM      1  O   UNL     1       0.620   7.755  17.342  0.00  0.00    +0.000 OA
ATOM      2  C   UNL     1       1.581   8.077  18.044  0.00  0.00    +0.000 C 
ATOM      3  N   UNL     1       2.515   7.143  18.448  0.00  0.00    +0.000 N 
ATOM      4  C   UNL     1       3.811   7.226  19.096  0.00  0.00    +0.000 C 
ATOM      5  C   UNL     1       4.312   6.168  18.084  0.00  0.00    +0.000 C 
ATOM      6  C   UNL     1       5.096   4.994  18.691  0.00  0.00    +0.000 C 
ATOM      7  C   UNL     1       6.492   5.428  19.120  0.00  0.00    +0.000 C 
ATOM      8  C   UNL     1       7.261   6.034  17.952  0.00  0.00    +0.000 C 
ATOM      9  C   UNL     1       6.497   7.208  17.347  0.00  0.00    +0.000 C 
ATOM     10  C   UNL     1       5.088   6.798  16.908  0.00  0.00    +0.000 C 
ATOM     11  C   UNL     1       2.795   5.866  17.776  0.00  0.00    +0.000 C 
ENDROOT
BRANCH   2  12
ATOM     12  C   UNL     1       1.787   9.517  18.413  0.00  0.00    +0.000 A 
ATOM     13  N   UNL     1       2.497  10.302  17.576  0.00  0.00    +0.000 NA
ATOM     14  N   UNL     1       2.538  11.645  17.807  0.00  0.00    +0.000 NA
ATOM     15  C   UNL     1       1.884  12.155  18.861  0.00  0.00    +0.000 A 
ATOM     16  C   UNL     1       1.869  13.524  19.112  0.00  0.00    +0.000 A 
ATOM     17  C   UNL     1       1.190  14.049  20.211  0.00  0.00    +0.000 A 
ATOM     18  C   UNL     1       0.516  13.191  21.069  0.00  0.00    +0.000 A 
ATOM     19  C   UNL     1       0.519  11.818  20.816  0.00  0.00    +0.000 A 
ATOM     20  C   UNL     1       1.187  11.283  19.720  0.00  0.00    +0.000 A 
ATOM     21  N   UNL     1       1.135   9.962  19.505  0.00  0.00    +0.000 NA
ENDBRANCH   2  12
BRANCH  11  22
ATOM     22  C   UNL     1       2.138   4.552  18.402  0.00  0.00    +0.000 A 
ATOM     23  C   UNL     1       1.546   4.526  19.683  0.00  0.00    +0.000 A 
ATOM     24  C   UNL     1       1.084   3.343  20.263  0.00  0.00    +0.000 A 
ATOM     25  C   UNL     1       1.184   2.142  19.570  0.00  0.00    +0.000 A 
ATOM     26  C   UNL     1       1.726   2.131  18.290  0.00  0.00    +0.000 A 
ATOM     27  C   UNL     1       2.187   3.319  17.717  0.00  0.00    +0.000 A 
ENDBRANCH  11  22
TORSDOF 2
ENDMDL
MODEL 7
REMARK VINA RESULT:      -6.8      1.105      1.793
REMARK  Name = 
REMARK  2 active torsions:
REMARK  status: ('A' for Active; 'I' for Inactive)
REMARK    1  A    between atoms: C_2  and  C_3
REMARK    2  A    between atoms: C_21  and  C_22
REMARK                            x       y       z     vdW  Elec       q    Type
REMARK                         _______ _______ _______ _____ _____    ______ ____
ROOT
ATOM      1  O   UNL     1       0.735  12.228  21.249  0.00  0.00    +0.000 OA
ATOM      2  C   UNL     1       0.153  11.259  20.759  0.00  0.00    +0.000 C 
ATOM      3  N   UNL     1      -1.167  11.346  20.362  0.00  0.00    +0.000 N 
ATOM      4  C   UNL     1      -2.053  10.479  19.607  0.00  0.00    +0.000 C 
ATOM      5  C   UNL     1      -2.537  11.740  18.851  0.00  0.00    +0.000 C 
ATOM      6  C   UNL     1      -4.061  11.892  18.729  0.00  0.00    +0.000 C 
ATOM      7  C   UNL     1      -4.631  10.911  17.712  0.00  0.00    +0.000 C 
ATOM      8  C   UNL     1      -3.969  11.084  16.351  0.00  0.00    +0.000 C 
ATOM      9  C   UNL     1      -2.455  10.926  16.458  0.00  0.00    +0.000 C 
ATOM     10  C   UNL     1      -1.856  11.901  17.476  0.00  0.00    +0.000 C 
ATOM     11  C   UNL     1      -1.876  12.585  20.008  0.00  0.00    +0.000 C 
ENDROOT
BRANCH   2  12
ATOM     12  C   UNL     1       0.901   9.981  20.520  0.00  0.00    +0.000 A 
ATOM     13  N   UNL     1       0.865   9.025  21.472  0.00  0.00    +0.000 NA
ATOM     14  N   UNL     1       1.386   7.796  21.194  0.00  0.00    +0.000 NA
ATOM     15  C   UNL     1       1.930   7.565  19.990  0.00  0.00    +0.000 A 
ATOM     16  C   UNL     1       2.439   6.315  19.651  0.00  0.00    +0.000 A 
ATOM     17  C   UNL     1       3.006   6.082  18.399  0.00  0.00    +0.000 A 
ATOM     18  C   UNL     1       3.062   7.114  17.473  0.00  0.00    +0.000 A 
ATOM     19  C   UNL     1       2.543   8.367  17.804  0.00  0.00    +0.000 A 
ATOM     20  C   UNL     1       1.970   8.611  19.047  0.00  0.00    +0.000 A 
ATOM     21  N   UNL     1       1.460   9.823  19.304  0.00  0.00    +0.000 NA
ENDBRANCH   2  12
BRANCH  11  22
ATOM     22  C   UNL     1      -2.825  13.226  21.121  0.00  0.00    +0.000 A 
ATOM     23  C   UNL     1      -3.265  12.514  22.256  0.00  0.00    +0.000 A 
ATOM     24  C   UNL     1      -4.189  13.049  23.156  0.00  0.00    +0.000 A 
ATOM     25  C   UNL     1      -4.693  14.329  22.957  0.00  0.00    +0.000 A 
ATOM     26  C   UNL     1      -4.256  15.079  21.871  0.00  0.00    +0.000 A 
ATOM     27  C   UNL     1      -3.332  14.534  20.975  0.00  0.00    +0.000 A 
ENDBRANCH  11  22
TORSDOF 2
ENDMDL
MODEL 8
REMARK VINA RESULT:      -6.7      1.451      1.883
REMARK  Name = 
REMARK  2 active torsions:
REMARK  status: ('A' for Active; 'I' for Inactive)
REMARK    1  A    between atoms: C_2  and  C_3
REMARK    2  A    between atoms: C_21  and  C_22
REMARK                            x       y       z     vdW  Elec       q    Type
REMARK                         _______ _______ _______ _____ _____    ______ ____
ROOT
ATOM      1  O   UNL     1       2.271  11.690  18.376  0.00  0.00    +0.000 OA
ATOM      2  C   UNL     1       1.401  10.857  18.636  0.00  0.00    +0.000 C 
ATOM      3  N   UNL     1       0.114  11.246  18.956  0.00  0.00    +0.000 N 
ATOM      4  C   UNL     1      -1.141  10.537  19.125  0.00  0.00    +0.000 C 
ATOM      5  C   UNL     1      -1.815  11.671  18.316  0.00  0.00    +0.000 C 
ATOM      6  C   UNL     1      -3.102  12.245  18.929  0.00  0.00    +0.000 C 
ATOM      7  C   UNL     1      -4.265  11.274  18.777  0.00  0.00    +0.000 C 
ATOM      8  C   UNL     1      -4.490  10.913  17.313  0.00  0.00    +0.000 C 
ATOM      9  C   UNL     1      -3.222  10.331  16.695  0.00  0.00    +0.000 C 
ATOM     10  C   UNL     1      -2.035  11.289  16.836  0.00  0.00    +0.000 C 
ATOM     11  C   UNL     1      -0.514  12.521  18.582  0.00  0.00    +0.000 C 
ENDROOT
BRANCH   2  12
ATOM     12  C   UNL     1       1.715   9.393  18.540  0.00  0.00    +0.000 A 
ATOM     13  N   UNL     1       2.327   8.937  17.427  0.00  0.00    +0.000 NA
ATOM     14  N   UNL     1       2.779   7.651  17.402  0.00  0.00    +0.000 NA
ATOM     15  C   UNL     1       2.598   6.866  18.475  0.00  0.00    +0.000 A 
ATOM     16  C   UNL     1       3.077   5.560  18.506  0.00  0.00    +0.000 A 
ATOM     17  C   UNL     1       2.884   4.747  19.622  0.00  0.00    +0.000 A 
ATOM     18  C   UNL     1       2.204   5.250  20.722  0.00  0.00    +0.000 A 
ATOM     19  C   UNL     1       1.732   6.564  20.701  0.00  0.00    +0.000 A 
ATOM     20  C   UNL     1       1.923   7.387  19.596  0.00  0.00    +0.000 A 
ATOM     21  N   UNL     1       1.476   8.649  19.637  0.00  0.00    +0.000 NA
ENDBRANCH   2  12
BRANCH  11  22
ATOM     22  C   UNL     1      -0.566  13.663  19.698  0.00  0.00    +0.000 A 
ATOM     23  C   UNL     1      -0.641  15.037  19.386  0.00  0.00    +0.000 A 
ATOM     24  C   UNL     1      -0.566  16.026  20.369  0.00  0.00    +0.000 A 
ATOM     25  C   UNL     1      -0.429  15.670  21.706  0.00  0.00    +0.000 A 
ATOM     26  C   UNL     1      -0.390  14.326  22.059  0.00  0.00    +0.000 A 
ATOM     27  C   UNL     1      -0.465  13.343  21.068  0.00  0.00    +0.000 A 
ENDBRANCH  11  22
TORSDOF 2
ENDMDL
MODEL 9
REMARK VINA RESULT:      -6.7      2.979      9.675
REMARK  Name = 
REMARK  2 active torsions:
REMARK  status: ('A' for Active; 'I' for Inactive)
REMARK    1  A    between atoms: C_2  and  C_3
REMARK    2  A    between atoms: C_21  and  C_22
REMARK                            x       y       z     vdW  Elec       q    Type
REMARK                         _______ _______ _______ _____ _____    ______ ____
ROOT
ATOM      1  O   UNL     1       4.847   7.999  17.619  0.00  0.00    +0.000 OA
ATOM      2  C   UNL     1       3.848   7.305  17.813  0.00  0.00    +0.000 C 
ATOM      3  N   UNL     1       3.830   5.968  17.465  0.00  0.00    +0.000 N 
ATOM      4  C   UNL     1       2.915   4.870  17.719  0.00  0.00    +0.000 C 
ATOM      5  C   UNL     1       4.154   3.992  18.018  0.00  0.00    +0.000 C 
ATOM      6  C   UNL     1       4.172   2.620  17.326  0.00  0.00    +0.000 C 
ATOM      7  C   UNL     1       3.181   1.663  17.976  0.00  0.00    +0.000 C 
ATOM      8  C   UNL     1       3.462   1.511  19.466  0.00  0.00    +0.000 C 
ATOM      9  C   UNL     1       3.435   2.866  20.167  0.00  0.00    +0.000 C 
ATOM     10  C   UNL     1       4.424   3.849  19.531  0.00  0.00    +0.000 C 
ATOM     11  C   UNL     1       5.012   5.108  17.307  0.00  0.00    +0.000 C 
ENDROOT
BRANCH   2  12
ATOM     12  C   UNL     1       2.651   7.892  18.500  0.00  0.00    +0.000 A 
ATOM     13  N   UNL     1       2.402   7.538  19.779  0.00  0.00    +0.000 NA
ATOM     14  N   UNL     1       1.429   8.198  20.469  0.00  0.00    +0.000 NA
ATOM     15  C   UNL     1       0.735   9.173  19.864  0.00  0.00    +0.000 A 
ATOM     16  C   UNL     1      -0.240   9.897  20.544  0.00  0.00    +0.000 A 
ATOM     17  C   UNL     1      -0.961  10.908  19.910  0.00  0.00    +0.000 A 
ATOM     18  C   UNL     1      -0.700  11.199  18.579  0.00  0.00    +0.000 A 
ATOM     19  C   UNL     1       0.285  10.483  17.895  0.00  0.00    +0.000 A 
ATOM     20  C   UNL     1       1.015   9.477  18.518  0.00  0.00    +0.000 A 
ATOM     21  N   UNL     1       1.970   8.840  17.826  0.00  0.00    +0.000 NA
ENDBRANCH   2  12
BRANCH  11  22
ATOM     22  C   UNL     1       5.526   4.840  15.819  0.00  0.00    +0.000 A 
ATOM     23  C   UNL     1       4.728   4.225  14.831  0.00  0.00    +0.000 A 
ATOM     24  C   UNL     1       5.232   3.891  13.572  0.00  0.00    +0.000 A 
ATOM     25  C   UNL     1       6.554   4.177  13.253  0.00  0.00    +0.000 A 
ATOM     26  C   UNL     1       7.363   4.817  14.185  0.00  0.00    +0.000 A 
ATOM     27  C   UNL     1       6.851   5.147  15.443  0.00  0.00    +0.000 A 
ENDBRANCH  11  22
TORSDOF 2
ENDMDL
