MODEL 1
REMARK VINA RESULT:      -9.6      0.000      0.000
REMARK  Name = 
REMARK  6 active torsions:
REMARK  status: ('A' for Active; 'I' for Inactive)
REMARK    1  A    between atoms: C_1  and  C_2
REMARK    2  A    between atoms: C_7  and  C_8
REMARK    3  A    between atoms: N_10  and  C_11
REMARK    4  A    between atoms: C_15  and  S_16
REMARK    5  A    between atoms: S_16  and  C_19
REMARK    6  A    between atoms: C_25  and  C_26
REMARK                            x       y       z     vdW  Elec       q    Type
REMARK                         _______ _______ _______ _____ _____    ______ ____
ROOT
ATOM      1  C   UNL     1       1.845   8.851  18.519  0.00  0.00    +0.000 C 
ATOM      2  O   UNL     1       1.762   8.927  17.293  0.00  0.00    +0.000 OA
ATOM      3  N   UNL     1       2.225   7.714  19.201  0.00  0.00    +0.000 N 
ATOM      4  H   UNL     1       1.961   7.658  20.173  0.00  0.00    +0.000 HD
ENDROOT
BRANCH   1  11
ATOM      5  C   UNL     1      -1.767  13.719  23.674  0.00  0.00    +0.000 C 
ATOM      6  C   UNL     1      -1.157  12.622  22.855  0.00  0.00    +0.000 A 
ATOM      7  C   UNL     1      -1.338  11.279  23.189  0.00  0.00    +0.000 A 
ATOM      8  C   UNL     1      -0.791  10.281  22.384  0.00  0.00    +0.000 A 
ATOM      9  C   UNL     1      -0.027  10.620  21.253  0.00  0.00    +0.000 A 
ATOM     10  C   UNL     1       0.550   9.651  20.424  0.00  0.00    +0.000 A 
ATOM     11  C   UNL     1       1.349  10.011  19.319  0.00  0.00    +0.000 A 
ATOM     12  C   UNL     1       1.537  11.377  19.090  0.00  0.00    +0.000 A 
ATOM     13  C   UNL     1       2.378  12.027  18.038  0.00  0.00    +0.000 C 
ATOM     14  N   UNL     1       0.947  12.324  19.882  0.00  0.00    +0.000 NA
ATOM     15  C   UNL     1       0.183  11.963  20.924  0.00  0.00    +0.000 A 
ATOM     16  C   UNL     1      -0.405  12.941  21.714  0.00  0.00    +0.000 A 
ENDBRANCH   1  11
BRANCH   3  17
ATOM     17  C   UNL     1       2.623   6.494  18.598  0.00  0.00    +0.000 A 
ATOM     18  C   UNL     1       2.175   5.208  18.991  0.00  0.00    +0.000 A 
ATOM     19  C   UNL     1       2.720   4.076  18.403  0.00  0.00    +0.000 A 
ATOM     20  C   UNL     1       3.743   4.184  17.462  0.00  0.00    +0.000 A 
ATOM     21  C   UNL     1       4.202   5.451  17.087  0.00  0.00    +0.000 A 
ATOM     22  C   UNL     1       3.592   6.600  17.591  0.00  0.00    +0.000 A 
BRANCH  21  23
ATOM     23  S   UNL     1       5.575   5.565  15.940  0.00  0.00    +0.000 S 
ATOM     24  O   UNL     1       5.681   4.268  15.298  0.00  0.00    +0.000 OA
ATOM     25  O   UNL     1       5.357   6.758  15.155  0.00  0.00    +0.000 OA
BRANCH  23  26
ATOM     26  C   UNL     1       7.047   5.789  16.928  0.00  0.00    +0.000 C 
ATOM     27  C   UNL     1       7.092   4.996  18.232  0.00  0.00    +0.000 C 
ATOM     28  C   UNL     1       7.933   5.824  19.203  0.00  0.00    +0.000 C 
ATOM     29  C   UNL     1       8.142   7.196  18.575  0.00  0.00    +0.000 C 
ATOM     30  C   UNL     1       7.266   7.251  17.330  0.00  0.00    +0.000 C 
ENDBRANCH  23  26
ENDBRANCH  21  23
ENDBRANCH   3  17
TORSDOF 4
ENDMDL
MODEL 2
REMARK VINA RESULT:      -9.4      2.249      2.936
REMARK  Name = 
REMARK  6 active torsions:
REMARK  status: ('A' for Active; 'I' for Inactive)
REMARK    1  A    between atoms: C_1  and  C_2
REMARK    2  A    between atoms: C_7  and  C_8
REMARK    3  A    between atoms: N_10  and  C_11
REMARK    4  A    between atoms: C_15  and  S_16
REMARK    5  A    between atoms: S_16  and  C_19
REMARK    6  A    between atoms: C_25  and  C_26
REMARK                            x       y       z     vdW  Elec       q    Type
REMARK                         _______ _______ _______ _____ _____    ______ ____
ROOT
ATOM      1  C   UNL     1       2.248   6.977  19.620  0.00  0.00    +0.000 C 
ATOM      2  O   UNL     1       2.732   6.343  20.558  0.00  0.00    +0.000 OA
ATOM      3  N   UNL     1       2.441   6.663  18.290  0.00  0.00    +0.000 N 
ATOM      4  H   UNL     1       2.277   7.398  17.620  0.00  0.00    +0.000 HD
ENDROOT
BRANCH   1  11
ATOM      5  C   UNL     1      -2.068  12.845  22.821  0.00  0.00    +0.000 C 
ATOM      6  C   UNL     1      -1.269  11.636  22.441  0.00  0.00    +0.000 A 
ATOM      7  C   UNL     1      -1.093  10.572  23.327  0.00  0.00    +0.000 A 
ATOM      8  C   UNL     1      -0.378   9.444  22.928  0.00  0.00    +0.000 A 
ATOM      9  C   UNL     1       0.199   9.385  21.648  0.00  0.00    +0.000 A 
ATOM     10  C   UNL     1       0.935   8.277  21.210  0.00  0.00    +0.000 A 
ATOM     11  C   UNL     1       1.542   8.254  19.938  0.00  0.00    +0.000 A 
ATOM     12  C   UNL     1       1.376   9.387  19.136  0.00  0.00    +0.000 A 
ATOM     13  C   UNL     1       1.958   9.649  17.783  0.00  0.00    +0.000 C 
ATOM     14  N   UNL     1       0.631  10.456  19.550  0.00  0.00    +0.000 NA
ATOM     15  C   UNL     1       0.053  10.457  20.761  0.00  0.00    +0.000 A 
ATOM     16  C   UNL     1      -0.699  11.553  21.162  0.00  0.00    +0.000 A 
ENDBRANCH   1  11
BRANCH   3  17
ATOM     17  C   UNL     1       3.173   5.546  17.814  0.00  0.00    +0.000 A 
ATOM     18  C   UNL     1       2.874   4.192  18.111  0.00  0.00    +0.000 A 
ATOM     19  C   UNL     1       3.728   3.185  17.682  0.00  0.00    +0.000 A 
ATOM     20  C   UNL     1       4.906   3.492  17.002  0.00  0.00    +0.000 A 
ATOM     21  C   UNL     1       5.214   4.828  16.726  0.00  0.00    +0.000 A 
ATOM     22  C   UNL     1       4.315   5.842  17.057  0.00  0.00    +0.000 A 
BRANCH  21  23
ATOM     23  S   UNL     1       6.774   5.205  15.928  0.00  0.00    +0.000 S 
ATOM     24  O   UNL     1       7.052   6.601  16.208  0.00  0.00    +0.000 OA
ATOM     25  O   UNL     1       7.703   4.175  16.333  0.00  0.00    +0.000 OA
BRANCH  23  26
ATOM     26  C   UNL     1       6.493   5.063  14.168  0.00  0.00    +0.000 C 
ATOM     27  C   UNL     1       5.742   3.812  13.720  0.00  0.00    +0.000 C 
ATOM     28  C   UNL     1       6.244   3.499  12.311  0.00  0.00    +0.000 C 
ATOM     29  C   UNL     1       7.459   4.381  12.049  0.00  0.00    +0.000 C 
ATOM     30  C   UNL     1       7.797   5.069  13.365  0.00  0.00    +0.000 C 
ENDBRANCH  23  26
ENDBRANCH  21  23
ENDBRANCH   3  17
TORSDOF 4
ENDMDL
MODEL 3
REMARK VINA RESULT:      -9.1      1.266      1.387
REMARK  Name = 
REMARK  6 active torsions:
REMARK  status: ('A' for Active; 'I' for Inactive)
REMARK    1  A    between atoms: C_1  and  C_2
REMARK    2  A    between atoms: C_7  and  C_8
REMARK    3  A    between atoms: N_10  and  C_11
REMARK    4  A    between atoms: C_15  and  S_16
REMARK    5  A    between atoms: S_16  and  C_19
REMARK    6  A    between atoms: C_25  and  C_26
REMARK                            x       y       z     vdW  Elec       q    Type
REMARK                         _______ _______ _______ _____ _____    ______ ____
ROOT
ATOM      1  C   UNL     1       1.846   7.108  19.810  0.00  0.00    +0.000 C 
ATOM      2  O   UNL     1       2.177   6.423  20.777  0.00  0.00    +0.000 OA
ATOM      3  N   UNL     1       2.104   6.773  18.497  0.00  0.00    +0.000 N 
ATOM      4  H   UNL     1       2.080   7.523  17.823  0.00  0.00    +0.000 HD
ENDROOT
BRANCH   1  11
ATOM      5  C   UNL     1      -1.945  13.459  22.746  0.00  0.00    +0.000 C 
ATOM      6  C   UNL     1      -1.268  12.163  22.415  0.00  0.00    +0.000 A 
ATOM      7  C   UNL     1      -1.261  11.096  23.315  0.00  0.00    +0.000 A 
ATOM      8  C   UNL     1      -0.658   9.891  22.960  0.00  0.00    +0.000 A 
ATOM      9  C   UNL     1      -0.024   9.753  21.713  0.00  0.00    +0.000 A 
ATOM     10  C   UNL     1       0.605   8.565  21.321  0.00  0.00    +0.000 A 
ATOM     11  C   UNL     1       1.273   8.461  20.084  0.00  0.00    +0.000 A 
ATOM     12  C   UNL     1       1.278   9.596  19.268  0.00  0.00    +0.000 A 
ATOM     13  C   UNL     1       1.957   9.776  17.947  0.00  0.00    +0.000 C 
ATOM     14  N   UNL     1       0.637  10.746  19.637  0.00  0.00    +0.000 NA
ATOM     15  C   UNL     1      -0.001  10.825  20.814  0.00  0.00    +0.000 A 
ATOM     16  C   UNL     1      -0.644  12.003  21.169  0.00  0.00    +0.000 A 
ENDBRANCH   1  11
BRANCH   3  17
ATOM     17  C   UNL     1       2.735   5.577  18.069  0.00  0.00    +0.000 A 
ATOM     18  C   UNL     1       2.428   4.279  18.552  0.00  0.00    +0.000 A 
ATOM     19  C   UNL     1       3.189   3.193  18.144  0.00  0.00    +0.000 A 
ATOM     20  C   UNL     1       4.286   3.367  17.301  0.00  0.00    +0.000 A 
ATOM     21  C   UNL     1       4.603   4.649  16.841  0.00  0.00    +0.000 A 
ATOM     22  C   UNL     1       3.786   5.734  17.156  0.00  0.00    +0.000 A 
BRANCH  21  23
ATOM     23  S   UNL     1       6.067   4.862  15.828  0.00  0.00    +0.000 S 
ATOM     24  O   UNL     1       6.435   3.540  15.356  0.00  0.00    +0.000 OA
ATOM     25  O   UNL     1       5.769   5.920  14.891  0.00  0.00    +0.000 OA
BRANCH  23  26
ATOM     26  C   UNL     1       7.368   5.414  16.923  0.00  0.00    +0.000 C 
ATOM     27  C   UNL     1       7.387   4.763  18.303  0.00  0.00    +0.000 C 
ATOM     28  C   UNL     1       7.977   5.803  19.255  0.00  0.00    +0.000 C 
ATOM     29  C   UNL     1       8.043   7.127  18.503  0.00  0.00    +0.000 C 
ATOM     30  C   UNL     1       7.314   6.922  17.181  0.00  0.00    +0.000 C 
ENDBRANCH  23  26
ENDBRANCH  21  23
ENDBRANCH   3  17
TORSDOF 4
ENDMDL
MODEL 4
REMARK VINA RESULT:      -9.1      3.594      9.296
REMARK  Name = 
REMARK  6 active torsions:
REMARK  status: ('A' for Active; 'I' for Inactive)
REMARK    1  A    between atoms: C_1  and  C_2
REMARK    2  A    between atoms: C_7  and  C_8
REMARK    3  A    between atoms: N_10  and  C_11
REMARK    4  A    between atoms: C_15  and  S_16
REMARK    5  A    between atoms: S_16  and  C_19
REMARK    6  A    between atoms: C_25  and  C_26
REMARK                            x       y       z     vdW  Elec       q    Type
REMARK                         _______ _______ _______ _____ _____    ______ ____
ROOT
ATOM      1  C   UNL     1       1.982   6.786  20.116  0.00  0.00    +0.000 C 
ATOM      2  O   UNL     1       1.376   6.227  21.030  0.00  0.00    +0.000 OA
ATOM      3  N   UNL     1       1.867   8.127  19.814  0.00  0.00    +0.000 N 
ATOM      4  H   UNL     1       2.144   8.411  18.887  0.00  0.00    +0.000 HD
ENDROOT
BRANCH   1  11
ATOM      5  C   UNL     1       6.368   3.800  14.186  0.00  0.00    +0.000 C 
ATOM      6  C   UNL     1       5.621   4.582  15.223  0.00  0.00    +0.000 A 
ATOM      7  C   UNL     1       5.600   5.977  15.207  0.00  0.00    +0.000 A 
ATOM      8  C   UNL     1       4.862   6.674  16.163  0.00  0.00    +0.000 A 
ATOM      9  C   UNL     1       4.165   5.980  17.167  0.00  0.00    +0.000 A 
ATOM     10  C   UNL     1       3.422   6.639  18.154  0.00  0.00    +0.000 A 
ATOM     11  C   UNL     1       2.765   5.926  19.178  0.00  0.00    +0.000 A 
ATOM     12  C   UNL     1       2.889   4.534  19.162  0.00  0.00    +0.000 A 
ATOM     13  C   UNL     1       2.352   3.551  20.154  0.00  0.00    +0.000 C 
ATOM     14  N   UNL     1       3.589   3.888  18.181  0.00  0.00    +0.000 NA
ATOM     15  C   UNL     1       4.201   4.581  17.209  0.00  0.00    +0.000 A 
ATOM     16  C   UNL     1       4.907   3.905  16.224  0.00  0.00    +0.000 A 
ENDBRANCH   1  11
BRANCH   3  17
ATOM     17  C   UNL     1       1.083   9.062  20.538  0.00  0.00    +0.000 A 
ATOM     18  C   UNL     1       0.897   9.050  21.944  0.00  0.00    +0.000 A 
ATOM     19  C   UNL     1       0.015   9.946  22.531  0.00  0.00    +0.000 A 
ATOM     20  C   UNL     1      -0.729  10.830  21.751  0.00  0.00    +0.000 A 
ATOM     21  C   UNL     1      -0.562  10.830  20.362  0.00  0.00    +0.000 A 
ATOM     22  C   UNL     1       0.396  10.009  19.767  0.00  0.00    +0.000 A 
BRANCH  21  23
ATOM     23  S   UNL     1      -1.590  11.913  19.372  0.00  0.00    +0.000 S 
ATOM     24  O   UNL     1      -2.500  12.570  20.292  0.00  0.00    +0.000 OA
ATOM     25  O   UNL     1      -0.694  12.689  18.546  0.00  0.00    +0.000 OA
BRANCH  23  26
ATOM     26  C   UNL     1      -2.574  10.858  18.317  0.00  0.00    +0.000 C 
ATOM     27  C   UNL     1      -1.854  10.293  17.095  0.00  0.00    +0.000 C 
ATOM     28  C   UNL     1      -2.924  10.108  16.020  0.00  0.00    +0.000 C 
ATOM     29  C   UNL     1      -4.188  10.807  16.505  0.00  0.00    +0.000 C 
ATOM     30  C   UNL     1      -3.814  11.572  17.768  0.00  0.00    +0.000 C 
ENDBRANCH  23  26
ENDBRANCH  21  23
ENDBRANCH   3  17
TORSDOF 4
ENDMDL
MODEL 5
REMARK VINA RESULT:      -8.9      1.200      2.173
REMARK  Name = 
REMARK  6 active torsions:
REMARK  status: ('A' for Active; 'I' for Inactive)
REMARK    1  A    between atoms: C_1  and  C_2
REMARK    2  A    between atoms: C_7  and  C_8
REMARK    3  A    between atoms: N_10  and  C_11
REMARK    4  A    between atoms: C_15  and  S_16
REMARK    5  A    between atoms: S_16  and  C_19
REMARK    6  A    between atoms: C_25  and  C_26
REMARK                            x       y       z     vdW  Elec       q    Type
REMARK                         _______ _______ _______ _____ _____    ______ ____
ROOT
ATOM      1  C   UNL     1       1.611   8.836  18.636  0.00  0.00    +0.000 C 
ATOM      2  O   UNL     1       1.153   8.783  17.495  0.00  0.00    +0.000 OA
ATOM      3  N   UNL     1       2.311   7.811  19.240  0.00  0.00    +0.000 N 
ATOM      4  H   UNL     1       2.363   7.827  20.247  0.00  0.00    +0.000 HD
ENDROOT
BRANCH   1  11
ATOM      5  C   UNL     1       0.247  16.091  21.606  0.00  0.00    +0.000 C 
ATOM      6  C   UNL     1       0.517  14.838  20.828  0.00  0.00    +0.000 A 
ATOM      7  C   UNL     1       0.799  14.877  19.462  0.00  0.00    +0.000 A 
ATOM      8  C   UNL     1       1.085  13.698  18.777  0.00  0.00    +0.000 A 
ATOM      9  C   UNL     1       1.056  12.462  19.446  0.00  0.00    +0.000 A 
ATOM     10  C   UNL     1       1.325  11.252  18.794  0.00  0.00    +0.000 A 
ATOM     11  C   UNL     1       1.248  10.019  19.473  0.00  0.00    +0.000 A 
ATOM     12  C   UNL     1       0.893  10.060  20.825  0.00  0.00    +0.000 A 
ATOM     13  C   UNL     1       0.682   8.908  21.756  0.00  0.00    +0.000 C 
ATOM     14  N   UNL     1       0.662  11.243  21.469  0.00  0.00    +0.000 NA
ATOM     15  C   UNL     1       0.747  12.408  20.810  0.00  0.00    +0.000 A 
ATOM     16  C   UNL     1       0.508  13.598  21.484  0.00  0.00    +0.000 A 
ENDBRANCH   1  11
BRANCH   3  17
ATOM     17  C   UNL     1       2.649   6.580  18.623  0.00  0.00    +0.000 A 
ATOM     18  C   UNL     1       2.137   5.313  19.003  0.00  0.00    +0.000 A 
ATOM     19  C   UNL     1       2.625   4.162  18.403  0.00  0.00    +0.000 A 
ATOM     20  C   UNL     1       3.652   4.229  17.462  0.00  0.00    +0.000 A 
ATOM     21  C   UNL     1       4.173   5.476  17.100  0.00  0.00    +0.000 A 
ATOM     22  C   UNL     1       3.621   6.648  17.616  0.00  0.00    +0.000 A 
BRANCH  21  23
ATOM     23  S   UNL     1       5.550   5.533  15.953  0.00  0.00    +0.000 S 
ATOM     24  O   UNL     1       5.636   4.216  15.350  0.00  0.00    +0.000 OA
ATOM     25  O   UNL     1       5.354   6.706  15.133  0.00  0.00    +0.000 OA
BRANCH  23  26
ATOM     26  C   UNL     1       7.024   5.761  16.938  0.00  0.00    +0.000 C 
ATOM     27  C   UNL     1       7.072   4.973  18.244  0.00  0.00    +0.000 C 
ATOM     28  C   UNL     1       7.914   5.805  19.211  0.00  0.00    +0.000 C 
ATOM     29  C   UNL     1       8.121   7.175  18.577  0.00  0.00    +0.000 C 
ATOM     30  C   UNL     1       7.242   7.225  17.334  0.00  0.00    +0.000 C 
ENDBRANCH  23  26
ENDBRANCH  21  23
ENDBRANCH   3  17
TORSDOF 4
ENDMDL
MODEL 6
REMARK VINA RESULT:      -8.8      2.639      3.710
REMARK  Name = 
REMARK  6 active torsions:
REMARK  status: ('A' for Active; 'I' for Inactive)
REMARK    1  A    between atoms: C_1  and  C_2
REMARK    2  A    between atoms: C_7  and  C_8
REMARK    3  A    between atoms: N_10  and  C_11
REMARK    4  A    between atoms: C_15  and  S_16
REMARK    5  A    between atoms: S_16  and  C_19
REMARK    6  A    between atoms: C_25  and  C_26
REMARK                            x       y       z     vdW  Elec       q    Type
REMARK                         _______ _______ _______ _____ _____    ______ ____
ROOT
ATOM      1  C   UNL     1       1.580   9.029  18.491  0.00  0.00    +0.000 C 
ATOM      2  O   UNL     1       1.502   8.457  17.404  0.00  0.00    +0.000 OA
ATOM      3  N   UNL     1       1.849   8.392  19.685  0.00  0.00    +0.000 N 
ATOM      4  H   UNL     1       1.585   8.876  20.529  0.00  0.00    +0.000 HD
ENDROOT
BRANCH   1  11
ATOM      5  C   UNL     1       1.414  16.981  18.733  0.00  0.00    +0.000 C 
ATOM      6  C   UNL     1       1.680  15.510  18.617  0.00  0.00    +0.000 A 
ATOM      7  C   UNL     1       2.956  15.022  18.334  0.00  0.00    +0.000 A 
ATOM      8  C   UNL     1       3.178  13.647  18.273  0.00  0.00    +0.000 A 
ATOM      9  C   UNL     1       2.115  12.747  18.460  0.00  0.00    +0.000 A 
ATOM     10  C   UNL     1       2.291  11.359  18.395  0.00  0.00    +0.000 A 
ATOM     11  C   UNL     1       1.204  10.474  18.542  0.00  0.00    +0.000 A 
ATOM     12  C   UNL     1      -0.055  11.043  18.756  0.00  0.00    +0.000 A 
ATOM     13  C   UNL     1      -1.372  10.345  18.883  0.00  0.00    +0.000 C 
ATOM     14  N   UNL     1      -0.221  12.398  18.852  0.00  0.00    +0.000 NA
ATOM     15  C   UNL     1       0.826  13.225  18.717  0.00  0.00    +0.000 A 
ATOM     16  C   UNL     1       0.634  14.596  18.816  0.00  0.00    +0.000 A 
ENDBRANCH   1  11
BRANCH   3  17
ATOM     17  C   UNL     1       2.125   7.008  19.827  0.00  0.00    +0.000 A 
ATOM     18  C   UNL     1       1.317   6.088  20.543  0.00  0.00    +0.000 A 
ATOM     19  C   UNL     1       1.744   4.779  20.713  0.00  0.00    +0.000 A 
ATOM     20  C   UNL     1       2.985   4.366  20.229  0.00  0.00    +0.000 A 
ATOM     21  C   UNL     1       3.793   5.277  19.541  0.00  0.00    +0.000 A 
ATOM     22  C   UNL     1       3.333   6.566  19.271  0.00  0.00    +0.000 A 
BRANCH  21  23
ATOM     23  S   UNL     1       5.420   4.749  19.004  0.00  0.00    +0.000 S 
ATOM     24  O   UNL     1       6.373   5.619  19.667  0.00  0.00    +0.000 OA
ATOM     25  O   UNL     1       5.473   3.319  19.198  0.00  0.00    +0.000 OA
BRANCH  23  26
ATOM     26  C   UNL     1       5.515   5.095  17.253  0.00  0.00    +0.000 C 
ATOM     27  C   UNL     1       4.923   4.027  16.338  0.00  0.00    +0.000 C 
ATOM     28  C   UNL     1       5.717   4.097  15.034  0.00  0.00    +0.000 C 
ATOM     29  C   UNL     1       6.925   4.993  15.280  0.00  0.00    +0.000 C 
ATOM     30  C   UNL     1       6.957   5.292  16.774  0.00  0.00    +0.000 C 
ENDBRANCH  23  26
ENDBRANCH  21  23
ENDBRANCH   3  17
TORSDOF 4
ENDMDL
MODEL 7
REMARK VINA RESULT:      -8.8      3.162      4.520
REMARK  Name = 
REMARK  6 active torsions:
REMARK  status: ('A' for Active; 'I' for Inactive)
REMARK    1  A    between atoms: C_1  and  C_2
REMARK    2  A    between atoms: C_7  and  C_8
REMARK    3  A    between atoms: N_10  and  C_11
REMARK    4  A    between atoms: C_15  and  S_16
REMARK    5  A    between atoms: S_16  and  C_19
REMARK    6  A    between atoms: C_25  and  C_26
REMARK                            x       y       z     vdW  Elec       q    Type
REMARK                         _______ _______ _______ _____ _____    ______ ____
ROOT
ATOM      1  C   UNL     1       1.606   9.178  18.164  0.00  0.00    +0.000 C 
ATOM      2  O   UNL     1       2.509   9.827  17.636  0.00  0.00    +0.000 OA
ATOM      3  N   UNL     1       1.667   7.821  18.408  0.00  0.00    +0.000 N 
ATOM      4  H   UNL     1       0.789   7.343  18.543  0.00  0.00    +0.000 HD
ENDROOT
BRANCH   1  11
ATOM      5  C   UNL     1      -5.716  12.264  17.755  0.00  0.00    +0.000 C 
ATOM      6  C   UNL     1      -4.406  11.546  17.639  0.00  0.00    +0.000 A 
ATOM      7  C   UNL     1      -4.151  10.663  16.589  0.00  0.00    +0.000 A 
ATOM      8  C   UNL     1      -2.907  10.042  16.488  0.00  0.00    +0.000 A 
ATOM      9  C   UNL     1      -1.917  10.272  17.458  0.00  0.00    +0.000 A 
ATOM     10  C   UNL     1      -0.659   9.661  17.402  0.00  0.00    +0.000 A 
ATOM     11  C   UNL     1       0.306   9.871  18.408  0.00  0.00    +0.000 A 
ATOM     12  C   UNL     1      -0.051  10.718  19.462  0.00  0.00    +0.000 A 
ATOM     13  C   UNL     1       0.750  11.062  20.678  0.00  0.00    +0.000 C 
ATOM     14  N   UNL     1      -1.268  11.340  19.500  0.00  0.00    +0.000 NA
ATOM     15  C   UNL     1      -2.171  11.135  18.530  0.00  0.00    +0.000 A 
ATOM     16  C   UNL     1      -3.400  11.776  18.590  0.00  0.00    +0.000 A 
ENDBRANCH   1  11
BRANCH   3  17
ATOM     17  C   UNL     1       2.786   6.992  18.138  0.00  0.00    +0.000 A 
ATOM     18  C   UNL     1       4.065   7.459  17.740  0.00  0.00    +0.000 A 
ATOM     19  C   UNL     1       5.054   6.550  17.391  0.00  0.00    +0.000 A 
ATOM     20  C   UNL     1       4.792   5.180  17.381  0.00  0.00    +0.000 A 
ATOM     21  C   UNL     1       3.525   4.719  17.753  0.00  0.00    +0.000 A 
ATOM     22  C   UNL     1       2.554   5.612  18.206  0.00  0.00    +0.000 A 
BRANCH  21  23
ATOM     23  S   UNL     1       3.184   2.962  17.650  0.00  0.00    +0.000 S 
ATOM     24  O   UNL     1       2.115   2.808  16.682  0.00  0.00    +0.000 OA
ATOM     25  O   UNL     1       4.456   2.308  17.449  0.00  0.00    +0.000 OA
BRANCH  23  26
ATOM     26  C   UNL     1       2.533   2.475  19.241  0.00  0.00    +0.000 C 
ATOM     27  C   UNL     1       1.137   2.999  19.569  0.00  0.00    +0.000 C 
ATOM     28  C   UNL     1       1.085   3.144  21.090  0.00  0.00    +0.000 C 
ATOM     29  C   UNL     1       2.505   2.975  21.616  0.00  0.00    +0.000 C 
ATOM     30  C   UNL     1       3.424   2.928  20.402  0.00  0.00    +0.000 C 
ENDBRANCH  23  26
ENDBRANCH  21  23
ENDBRANCH   3  17
TORSDOF 4
ENDMDL
MODEL 8
REMARK VINA RESULT:      -8.7      1.985      2.565
REMARK  Name = 
REMARK  6 active torsions:
REMARK  status: ('A' for Active; 'I' for Inactive)
REMARK    1  A    between atoms: C_1  and  C_2
REMARK    2  A    between atoms: C_7  and  C_8
REMARK    3  A    between atoms: N_10  and  C_11
REMARK    4  A    between atoms: C_15  and  S_16
REMARK    5  A    between atoms: S_16  and  C_19
REMARK    6  A    between atoms: C_25  and  C_26
REMARK                            x       y       z     vdW  Elec       q    Type
REMARK                         _______ _______ _______ _____ _____    ______ ____
ROOT
ATOM      1  C   UNL     1       1.873   7.461  20.005  0.00  0.00    +0.000 C 
ATOM      2  O   UNL     1       2.641   7.360  19.049  0.00  0.00    +0.000 OA
ATOM      3  N   UNL     1       1.474   6.402  20.794  0.00  0.00    +0.000 N 
ATOM      4  H   UNL     1       0.628   6.526  21.329  0.00  0.00    +0.000 HD
ENDROOT
BRANCH   1  11
ATOM      5  C   UNL     1      -2.357  13.650  22.672  0.00  0.00    +0.000 C 
ATOM      6  C   UNL     1      -1.593  12.391  22.395  0.00  0.00    +0.000 A 
ATOM      7  C   UNL     1      -1.523  11.361  23.335  0.00  0.00    +0.000 A 
ATOM      8  C   UNL     1      -0.838  10.186  23.030  0.00  0.00    +0.000 A 
ATOM      9  C   UNL     1      -0.185  10.044  21.794  0.00  0.00    +0.000 A 
ATOM     10  C   UNL     1       0.525   8.887  21.451  0.00  0.00    +0.000 A 
ATOM     11  C   UNL     1       1.209   8.781  20.223  0.00  0.00    +0.000 A 
ATOM     12  C   UNL     1       1.146   9.883  19.365  0.00  0.00    +0.000 A 
ATOM     13  C   UNL     1       1.824  10.059  18.043  0.00  0.00    +0.000 C 
ATOM     14  N   UNL     1       0.427  11.001  19.685  0.00  0.00    +0.000 NA
ATOM     15  C   UNL     1      -0.225  11.081  20.855  0.00  0.00    +0.000 A 
ATOM     16  C   UNL     1      -0.948  12.226  21.160  0.00  0.00    +0.000 A 
ENDBRANCH   1  11
BRANCH   3  17
ATOM     17  C   UNL     1       1.926   5.065  20.656  0.00  0.00    +0.000 A 
ATOM     18  C   UNL     1       2.152   4.168  21.731  0.00  0.00    +0.000 A 
ATOM     19  C   UNL     1       2.704   2.919  21.484  0.00  0.00    +0.000 A 
ATOM     20  C   UNL     1       3.086   2.551  20.195  0.00  0.00    +0.000 A 
ATOM     21  C   UNL     1       2.883   3.441  19.136  0.00  0.00    +0.000 A 
ATOM     22  C   UNL     1       2.234   4.657  19.351  0.00  0.00    +0.000 A 
BRANCH  21  23
ATOM     23  S   UNL     1       3.460   2.981  17.502  0.00  0.00    +0.000 S 
ATOM     24  O   UNL     1       4.079   1.676  17.638  0.00  0.00    +0.000 OA
ATOM     25  O   UNL     1       2.346   3.176  16.603  0.00  0.00    +0.000 OA
BRANCH  23  26
ATOM     26  C   UNL     1       4.753   4.139  17.074  0.00  0.00    +0.000 C 
ATOM     27  C   UNL     1       5.571   3.783  15.835  0.00  0.00    +0.000 C 
ATOM     28  C   UNL     1       6.963   4.371  16.063  0.00  0.00    +0.000 C 
ATOM     29  C   UNL     1       7.040   4.819  17.517  0.00  0.00    +0.000 C 
ATOM     30  C   UNL     1       5.773   4.320  18.201  0.00  0.00    +0.000 C 
ENDBRANCH  23  26
ENDBRANCH  21  23
ENDBRANCH   3  17
TORSDOF 4
ENDMDL
MODEL 9
REMARK VINA RESULT:      -8.6      2.127      2.835
REMARK  Name = 
REMARK  6 active torsions:
REMARK  status: ('A' for Active; 'I' for Inactive)
REMARK    1  A    between atoms: C_1  and  C_2
REMARK    2  A    between atoms: C_7  and  C_8
REMARK    3  A    between atoms: N_10  and  C_11
REMARK    4  A    between atoms: C_15  and  S_16
REMARK    5  A    between atoms: S_16  and  C_19
REMARK    6  A    between atoms: C_25  and  C_26
REMARK                            x       y       z     vdW  Elec       q    Type
REMARK                         _______ _______ _______ _____ _____    ______ ____
ROOT
ATOM      1  C   UNL     1       1.862   7.063  20.011  0.00  0.00    +0.000 C 
ATOM      2  O   UNL     1       1.522   6.173  20.790  0.00  0.00    +0.000 OA
ATOM      3  N   UNL     1       2.887   6.941  19.095  0.00  0.00    +0.000 N 
ATOM      4  H   UNL     1       3.283   7.798  18.739  0.00  0.00    +0.000 HD
ENDROOT
BRANCH   1  11
ATOM      5  C   UNL     1      -2.154  13.478  22.467  0.00  0.00    +0.000 C 
ATOM      6  C   UNL     1      -1.425  12.189  22.235  0.00  0.00    +0.000 A 
ATOM      7  C   UNL     1      -1.346  11.210  23.227  0.00  0.00    +0.000 A 
ATOM      8  C   UNL     1      -0.695  10.005  22.966  0.00  0.00    +0.000 A 
ATOM      9  C   UNL     1      -0.085   9.783  21.719  0.00  0.00    +0.000 A 
ATOM     10  C   UNL     1       0.590   8.594  21.418  0.00  0.00    +0.000 A 
ATOM     11  C   UNL     1       1.232   8.407  20.177  0.00  0.00    +0.000 A 
ATOM     12  C   UNL     1       1.164   9.462  19.262  0.00  0.00    +0.000 A 
ATOM     13  C   UNL     1       1.803   9.552  17.913  0.00  0.00    +0.000 C 
ATOM     14  N   UNL     1       0.478  10.611  19.544  0.00  0.00    +0.000 NA
ATOM     15  C   UNL     1      -0.134  10.769  20.727  0.00  0.00    +0.000 A 
ATOM     16  C   UNL     1      -0.824  11.944  20.991  0.00  0.00    +0.000 A 
ENDBRANCH   1  11
BRANCH   3  17
ATOM     17  C   UNL     1       3.656   5.770  18.882  0.00  0.00    +0.000 A 
ATOM     18  C   UNL     1       3.491   4.550  19.586  0.00  0.00    +0.000 A 
ATOM     19  C   UNL     1       4.378   3.504  19.373  0.00  0.00    +0.000 A 
ATOM     20  C   UNL     1       5.462   3.653  18.509  0.00  0.00    +0.000 A 
ATOM     21  C   UNL     1       5.639   4.862  17.829  0.00  0.00    +0.000 A 
ATOM     22  C   UNL     1       4.699   5.885  17.952  0.00  0.00    +0.000 A 
BRANCH  21  23
ATOM     23  S   UNL     1       7.086   5.061  16.790  0.00  0.00    +0.000 S 
ATOM     24  O   UNL     1       7.152   6.469  16.445  0.00  0.00    +0.000 OA
ATOM     25  O   UNL     1       8.181   4.423  17.483  0.00  0.00    +0.000 OA
BRANCH  23  26
ATOM     26  C   UNL     1       6.758   4.160  15.282  0.00  0.00    +0.000 C 
ATOM     27  C   UNL     1       7.489   4.667  14.041  0.00  0.00    +0.000 C 
ATOM     28  C   UNL     1       6.584   4.339  12.853  0.00  0.00    +0.000 C 
ATOM     29  C   UNL     1       5.235   3.904  13.410  0.00  0.00    +0.000 C 
ATOM     30  C   UNL     1       5.272   4.161  14.911  0.00  0.00    +0.000 C 
ENDBRANCH  23  26
ENDBRANCH  21  23
ENDBRANCH   3  17
TORSDOF 4
ENDMDL
