MODEL 1
REMARK VINA RESULT:      -6.4      0.000      0.000
REMARK  Name = 
REMARK  2 active torsions:
REMARK  status: ('A' for Active; 'I' for Inactive)
REMARK    1  A    between atoms: C_2  and  C_25
REMARK    2  A    between atoms: C_7  and  C_8
REMARK                            x       y       z     vdW  Elec       q    Type
REMARK                         _______ _______ _______ _____ _____    ______ ____
ROOT
ATOM      1  C   UNL     1      -4.217  13.557  21.640  0.00  0.00    +0.000 C 
ATOM      2  C   UNL     1      -4.597  12.879  22.978  0.00  0.00    +0.000 C 
ATOM      3  C   UNL     1      -6.035  13.171  23.395  0.00  0.00    +0.000 C 
ATOM      4  C   UNL     1      -6.992  12.784  22.281  0.00  0.00    +0.000 C 
ATOM      5  C   UNL     1      -6.624  13.497  20.983  0.00  0.00    +0.000 C 
ATOM      6  N   UNL     1      -5.235  13.177  20.609  0.00  0.00    +0.000 N 
ATOM      7  C   UNL     1      -4.973  12.570  19.394  0.00  0.00    +0.000 A 
ATOM      8  C   UNL     1      -5.843  12.681  18.310  0.00  0.00    +0.000 A 
ATOM      9  C   UNL     1      -5.547  12.068  17.094  0.00  0.00    +0.000 A 
ATOM     10  C   UNL     1      -4.366  11.384  16.939  0.00  0.00    +0.000 A 
ATOM     11  N   UNL     1      -4.051  10.854  15.734  0.00  0.00    +0.000 NA
ATOM     12  C   UNL     1      -2.847  10.259  15.657  0.00  0.00    +0.000 A 
ATOM     13  C   UNL     1      -2.005  10.189  16.745  0.00  0.00    +0.000 A 
ATOM     14  N   UNL     1      -2.333  10.695  17.954  0.00  0.00    +0.000 NA
ATOM     15  C   UNL     1      -3.519  11.313  18.065  0.00  0.00    +0.000 A 
ATOM     16  N   UNL     1      -3.843  11.858  19.242  0.00  0.00    +0.000 NA
ENDROOT
BRANCH   1  23
ATOM     17  O   UNL     1      -0.775  15.810  19.031  0.00  0.00    +0.000 OA
ATOM     18  C   UNL     1      -0.040  15.167  19.801  0.00  0.00    +0.000 C 
ATOM     19  N   UNL     1      -0.566  14.695  21.011  0.00  0.00    +0.000 N 
ATOM     20  C   UNL     1       0.135  13.891  22.005  0.00  0.00    +0.000 C 
ATOM     21  C   UNL     1      -0.415  12.470  21.984  0.00  0.00    +0.000 C 
ATOM     22  C   UNL     1      -1.916  12.499  22.283  0.00  0.00    +0.000 C 
ATOM     23  C   UNL     1      -2.695  13.413  21.299  0.00  0.00    +0.000 C 
ATOM     24  C   UNL     1      -2.014  14.808  21.261  0.00  0.00    +0.000 C 
BRANCH  18  25
ATOM     25  C   UNL     1       1.451  14.953  19.403  0.00  0.00    +0.000 C 
ATOM     26  F   UNL     1       1.857  15.514  18.232  0.00  0.00    +0.000 F 
ATOM     27  F   UNL     1       2.300  15.459  20.348  0.00  0.00    +0.000 F 
ATOM     28  F   UNL     1       1.757  13.625  19.301  0.00  0.00    +0.000 F 
ENDBRANCH  18  25
ENDBRANCH   1  23
TORSDOF 2
ENDMDL
MODEL 2
REMARK VINA RESULT:      -6.4      2.871      5.451
REMARK  Name = 
REMARK  2 active torsions:
REMARK  status: ('A' for Active; 'I' for Inactive)
REMARK    1  A    between atoms: C_2  and  C_25
REMARK    2  A    between atoms: C_7  and  C_8
REMARK                            x       y       z     vdW  Elec       q    Type
REMARK                         _______ _______ _______ _____ _____    ______ ____
ROOT
ATOM      1  C   UNL     1      -5.802  13.108  21.121  0.00  0.00    +0.000 C 
ATOM      2  C   UNL     1      -6.536  14.457  21.309  0.00  0.00    +0.000 C 
ATOM      3  C   UNL     1      -7.122  14.614  22.709  0.00  0.00    +0.000 C 
ATOM      4  C   UNL     1      -6.039  14.417  23.756  0.00  0.00    +0.000 C 
ATOM      5  C   UNL     1      -5.358  13.063  23.576  0.00  0.00    +0.000 C 
ATOM      6  N   UNL     1      -4.794  12.958  22.219  0.00  0.00    +0.000 N 
ATOM      7  C   UNL     1      -3.437  12.747  22.053  0.00  0.00    +0.000 A 
ATOM      8  C   UNL     1      -2.657  12.148  23.041  0.00  0.00    +0.000 A 
ATOM      9  C   UNL     1      -1.294  11.937  22.842  0.00  0.00    +0.000 A 
ATOM     10  C   UNL     1      -0.715  12.276  21.644  0.00  0.00    +0.000 A 
ATOM     11  N   UNL     1       0.593  12.001  21.429  0.00  0.00    +0.000 NA
ATOM     12  C   UNL     1       1.059  12.309  20.205  0.00  0.00    +0.000 A 
ATOM     13  C   UNL     1       0.251  12.880  19.248  0.00  0.00    +0.000 A 
ATOM     14  N   UNL     1      -1.048  13.179  19.472  0.00  0.00    +0.000 NA
ATOM     15  C   UNL     1      -1.554  12.868  20.676  0.00  0.00    +0.000 A 
ATOM     16  N   UNL     1      -2.847  13.117  20.904  0.00  0.00    +0.000 NA
ENDROOT
BRANCH   1  23
ATOM     17  O   UNL     1      -2.765  10.265  18.587  0.00  0.00    +0.000 OA
ATOM     18  C   UNL     1      -3.525  10.603  17.663  0.00  0.00    +0.000 C 
ATOM     19  N   UNL     1      -4.805  11.080  17.972  0.00  0.00    +0.000 N 
ATOM     20  C   UNL     1      -5.803  11.560  17.023  0.00  0.00    +0.000 C 
ATOM     21  C   UNL     1      -5.938  13.072  17.154  0.00  0.00    +0.000 C 
ATOM     22  C   UNL     1      -6.349  13.427  18.585  0.00  0.00    +0.000 C 
ATOM     23  C   UNL     1      -5.358  12.862  19.639  0.00  0.00    +0.000 C 
ATOM     24  C   UNL     1      -5.156  11.344  19.379  0.00  0.00    +0.000 C 
BRANCH  18  25
ATOM     25  C   UNL     1      -3.032  10.437  16.194  0.00  0.00    +0.000 C 
ATOM     26  F   UNL     1      -3.934   9.955  15.297  0.00  0.00    +0.000 F 
ATOM     27  F   UNL     1      -2.615  11.628  15.668  0.00  0.00    +0.000 F 
ATOM     28  F   UNL     1      -1.954   9.600  16.119  0.00  0.00    +0.000 F 
ENDBRANCH  18  25
ENDBRANCH   1  23
TORSDOF 2
ENDMDL
MODEL 3
REMARK VINA RESULT:      -6.4      1.225      1.765
REMARK  Name = 
REMARK  2 active torsions:
REMARK  status: ('A' for Active; 'I' for Inactive)
REMARK    1  A    between atoms: C_2  and  C_25
REMARK    2  A    between atoms: C_7  and  C_8
REMARK                            x       y       z     vdW  Elec       q    Type
REMARK                         _______ _______ _______ _____ _____    ______ ____
ROOT
ATOM      1  C   UNL     1      -2.411  13.445  21.823  0.00  0.00    +0.000 C 
ATOM      2  C   UNL     1      -2.364  12.734  23.197  0.00  0.00    +0.000 C 
ATOM      3  C   UNL     1      -3.554  13.091  24.081  0.00  0.00    +0.000 C 
ATOM      4  C   UNL     1      -4.855  12.808  23.350  0.00  0.00    +0.000 C 
ATOM      5  C   UNL     1      -4.896  13.552  22.019  0.00  0.00    +0.000 C 
ATOM      6  N   UNL     1      -3.740  13.168  21.190  0.00  0.00    +0.000 N 
ATOM      7  C   UNL     1      -3.945  12.598  19.947  0.00  0.00    +0.000 A 
ATOM      8  C   UNL     1      -5.119  12.805  19.223  0.00  0.00    +0.000 A 
ATOM      9  C   UNL     1      -5.292  12.228  17.967  0.00  0.00    +0.000 A 
ATOM     10  C   UNL     1      -4.283  11.484  17.408  0.00  0.00    +0.000 A 
ATOM     11  N   UNL     1      -4.429  10.988  16.157  0.00  0.00    +0.000 NA
ATOM     12  C   UNL     1      -3.365  10.328  15.665  0.00  0.00    +0.000 A 
ATOM     13  C   UNL     1      -2.214  10.163  16.402  0.00  0.00    +0.000 A 
ATOM     14  N   UNL     1      -2.079  10.636  17.661  0.00  0.00    +0.000 NA
ATOM     15  C   UNL     1      -3.113  11.317  18.178  0.00  0.00    +0.000 A 
ATOM     16  N   UNL     1      -2.984  11.829  19.407  0.00  0.00    +0.000 NA
ENDROOT
BRANCH   1  23
ATOM     17  O   UNL     1       0.586  15.952  18.914  0.00  0.00    +0.000 OA
ATOM     18  C   UNL     1       1.349  15.017  19.214  0.00  0.00    +0.000 C 
ATOM     19  N   UNL     1       1.085  14.262  20.364  0.00  0.00    +0.000 N 
ATOM     20  C   UNL     1       1.844  13.110  20.836  0.00  0.00    +0.000 C 
ATOM     21  C   UNL     1       1.020  11.845  20.629  0.00  0.00    +0.000 C 
ATOM     22  C   UNL     1      -0.301  11.964  21.394  0.00  0.00    +0.000 C 
ATOM     23  C   UNL     1      -1.106  13.227  20.984  0.00  0.00    +0.000 C 
ATOM     24  C   UNL     1      -0.181  14.470  21.088  0.00  0.00    +0.000 C 
BRANCH  18  25
ATOM     25  C   UNL     1       2.595  14.755  18.314  0.00  0.00    +0.000 C 
ATOM     26  F   UNL     1       3.797  14.673  18.946  0.00  0.00    +0.000 F 
ATOM     27  F   UNL     1       2.478  13.580  17.626  0.00  0.00    +0.000 F 
ATOM     28  F   UNL     1       2.742  15.729  17.367  0.00  0.00    +0.000 F 
ENDBRANCH  18  25
ENDBRANCH   1  23
TORSDOF 2
ENDMDL
MODEL 4
REMARK VINA RESULT:      -6.4      9.965     11.824
REMARK  Name = 
REMARK  2 active torsions:
REMARK  status: ('A' for Active; 'I' for Inactive)
REMARK    1  A    between atoms: C_2  and  C_25
REMARK    2  A    between atoms: C_7  and  C_8
REMARK                            x       y       z     vdW  Elec       q    Type
REMARK                         _______ _______ _______ _____ _____    ______ ____
ROOT
ATOM      1  C   UNL     1       8.679  13.013  23.042  0.00  0.00    +0.000 C 
ATOM      2  C   UNL     1       8.149  11.747  23.757  0.00  0.00    +0.000 C 
ATOM      3  C   UNL     1       7.956  11.959  25.256  0.00  0.00    +0.000 C 
ATOM      4  C   UNL     1       7.058  13.159  25.504  0.00  0.00    +0.000 C 
ATOM      5  C   UNL     1       7.622  14.403  24.825  0.00  0.00    +0.000 C 
ATOM      6  N   UNL     1       7.778  14.162  23.380  0.00  0.00    +0.000 N 
ATOM      7  C   UNL     1       7.112  14.965  22.473  0.00  0.00    +0.000 A 
ATOM      8  C   UNL     1       6.707  16.261  22.792  0.00  0.00    +0.000 A 
ATOM      9  C   UNL     1       6.047  17.052  21.854  0.00  0.00    +0.000 A 
ATOM     10  C   UNL     1       5.832  16.576  20.584  0.00  0.00    +0.000 A 
ATOM     11  N   UNL     1       5.257  17.377  19.656  0.00  0.00    +0.000 NA
ATOM     12  C   UNL     1       5.145  16.851  18.423  0.00  0.00    +0.000 A 
ATOM     13  C   UNL     1       5.578  15.574  18.141  0.00  0.00    +0.000 A 
ATOM     14  N   UNL     1       6.127  14.767  19.074  0.00  0.00    +0.000 NA
ATOM     15  C   UNL     1       6.273  15.264  20.312  0.00  0.00    +0.000 A 
ATOM     16  N   UNL     1       6.853  14.496  21.241  0.00  0.00    +0.000 NA
ENDROOT
BRANCH   1  23
ATOM     17  O   UNL     1      10.593  15.368  19.231  0.00  0.00    +0.000 OA
ATOM     18  C   UNL     1      10.790  14.200  18.852  0.00  0.00    +0.000 C 
ATOM     19  N   UNL     1      10.794  13.167  19.798  0.00  0.00    +0.000 N 
ATOM     20  C   UNL     1      10.962  11.744  19.526  0.00  0.00    +0.000 C 
ATOM     21  C   UNL     1       9.634  11.030  19.739  0.00  0.00    +0.000 C 
ATOM     22  C   UNL     1       9.163  11.245  21.180  0.00  0.00    +0.000 C 
ATOM     23  C   UNL     1       9.050  12.750  21.543  0.00  0.00    +0.000 C 
ATOM     24  C   UNL     1      10.386  13.456  21.184  0.00  0.00    +0.000 C 
BRANCH  18  25
ATOM     25  C   UNL     1      11.067  13.945  17.340  0.00  0.00    +0.000 C 
ATOM     26  F   UNL     1      10.238  13.072  16.707  0.00  0.00    +0.000 F 
ATOM     27  F   UNL     1      10.985  15.099  16.613  0.00  0.00    +0.000 F 
ATOM     28  F   UNL     1      12.331  13.466  17.137  0.00  0.00    +0.000 F 
ENDBRANCH  18  25
ENDBRANCH   1  23
TORSDOF 2
ENDMDL
MODEL 5
REMARK VINA RESULT:      -6.3      0.709      1.024
REMARK  Name = 
REMARK  2 active torsions:
REMARK  status: ('A' for Active; 'I' for Inactive)
REMARK    1  A    between atoms: C_2  and  C_25
REMARK    2  A    between atoms: C_7  and  C_8
REMARK                            x       y       z     vdW  Elec       q    Type
REMARK                         _______ _______ _______ _____ _____    ______ ____
ROOT
ATOM      1  C   UNL     1      -4.898  13.567  21.775  0.00  0.00    +0.000 C 
ATOM      2  C   UNL     1      -5.467  12.847  23.020  0.00  0.00    +0.000 C 
ATOM      3  C   UNL     1      -6.948  13.143  23.241  0.00  0.00    +0.000 C 
ATOM      4  C   UNL     1      -7.742  12.808  21.990  0.00  0.00    +0.000 C 
ATOM      5  C   UNL     1      -7.188  13.562  20.784  0.00  0.00    +0.000 C 
ATOM      6  N   UNL     1      -5.763  13.237  20.598  0.00  0.00    +0.000 N 
ATOM      7  C   UNL     1      -5.337  12.670  19.410  0.00  0.00    +0.000 A 
ATOM      8  C   UNL     1      -6.044  12.831  18.219  0.00  0.00    +0.000 A 
ATOM      9  C   UNL     1      -5.585  12.258  17.036  0.00  0.00    +0.000 A 
ATOM     10  C   UNL     1      -4.399  11.565  17.023  0.00  0.00    +0.000 A 
ATOM     11  N   UNL     1      -3.922  11.074  15.855  0.00  0.00    +0.000 NA
ATOM     12  C   UNL     1      -2.723  10.466  15.927  0.00  0.00    +0.000 A 
ATOM     13  C   UNL     1      -2.044  10.346  17.119  0.00  0.00    +0.000 A 
ATOM     14  N   UNL     1      -2.535  10.813  18.288  0.00  0.00    +0.000 NA
ATOM     15  C   UNL     1      -3.720  11.443  18.253  0.00  0.00    +0.000 A 
ATOM     16  N   UNL     1      -4.203  11.949  19.393  0.00  0.00    +0.000 NA
ENDROOT
BRANCH   1  23
ATOM     17  O   UNL     1      -1.130  15.748  19.590  0.00  0.00    +0.000 OA
ATOM     18  C   UNL     1      -0.507  15.129  20.470  0.00  0.00    +0.000 C 
ATOM     19  N   UNL     1      -1.192  14.691  21.611  0.00  0.00    +0.000 N 
ATOM     20  C   UNL     1      -0.633  13.917  22.713  0.00  0.00    +0.000 C 
ATOM     21  C   UNL     1      -1.179  12.496  22.659  0.00  0.00    +0.000 C 
ATOM     22  C   UNL     1      -2.707  12.531  22.752  0.00  0.00    +0.000 C 
ATOM     23  C   UNL     1      -3.344  13.415  21.646  0.00  0.00    +0.000 C 
ATOM     24  C   UNL     1      -2.660  14.810  21.660  0.00  0.00    +0.000 C 
BRANCH  18  25
ATOM     25  C   UNL     1       1.024  14.906  20.283  0.00  0.00    +0.000 C 
ATOM     26  F   UNL     1       1.463  13.619  20.323  0.00  0.00    +0.000 F 
ATOM     27  F   UNL     1       1.457  15.388  19.079  0.00  0.00    +0.000 F 
ATOM     28  F   UNL     1       1.747  15.572  21.232  0.00  0.00    +0.000 F 
ENDBRANCH  18  25
ENDBRANCH   1  23
TORSDOF 2
ENDMDL
MODEL 6
REMARK VINA RESULT:      -6.3      3.496      5.751
REMARK  Name = 
REMARK  2 active torsions:
REMARK  status: ('A' for Active; 'I' for Inactive)
REMARK    1  A    between atoms: C_2  and  C_25
REMARK    2  A    between atoms: C_7  and  C_8
REMARK                            x       y       z     vdW  Elec       q    Type
REMARK                         _______ _______ _______ _____ _____    ______ ____
ROOT
ATOM      1  C   UNL     1       0.650  13.408  20.357  0.00  0.00    +0.000 C 
ATOM      2  C   UNL     1       1.384  14.625  19.742  0.00  0.00    +0.000 C 
ATOM      3  C   UNL     1       2.688  14.234  19.054  0.00  0.00    +0.000 C 
ATOM      4  C   UNL     1       2.431  13.154  18.017  0.00  0.00    +0.000 C 
ATOM      5  C   UNL     1       1.746  11.949  18.655  0.00  0.00    +0.000 C 
ATOM      6  N   UNL     1       0.485  12.366  19.294  0.00  0.00    +0.000 N 
ATOM      7  C   UNL     1      -0.711  11.802  18.888  0.00  0.00    +0.000 A 
ATOM      8  C   UNL     1      -0.768  10.547  18.283  0.00  0.00    +0.000 A 
ATOM      9  C   UNL     1      -1.988   9.999  17.894  0.00  0.00    +0.000 A 
ATOM     10  C   UNL     1      -3.157  10.674  18.149  0.00  0.00    +0.000 A 
ATOM     11  N   UNL     1      -4.343  10.104  17.836  0.00  0.00    +0.000 NA
ATOM     12  C   UNL     1      -5.437  10.808  18.181  0.00  0.00    +0.000 A 
ATOM     13  C   UNL     1      -5.340  12.035  18.798  0.00  0.00    +0.000 A 
ATOM     14  N   UNL     1      -4.154  12.616  19.085  0.00  0.00    +0.000 NA
ATOM     15  C   UNL     1      -3.041  11.934  18.774  0.00  0.00    +0.000 A 
ATOM     16  N   UNL     1      -1.858  12.473  19.088  0.00  0.00    +0.000 NA
ENDROOT
BRANCH   1  23
ATOM     17  O   UNL     1      -2.605  11.397  23.371  0.00  0.00    +0.000 OA
ATOM     18  C   UNL     1      -2.732  12.584  23.718  0.00  0.00    +0.000 C 
ATOM     19  N   UNL     1      -1.704  13.492  23.435  0.00  0.00    +0.000 N 
ATOM     20  C   UNL     1      -1.706  14.921  23.726  0.00  0.00    +0.000 C 
ATOM     21  C   UNL     1      -1.844  15.701  22.425  0.00  0.00    +0.000 C 
ATOM     22  C   UNL     1      -0.684  15.349  21.491  0.00  0.00    +0.000 C 
ATOM     23  C   UNL     1      -0.591  13.823  21.218  0.00  0.00    +0.000 C 
ATOM     24  C   UNL     1      -0.584  13.068  22.576  0.00  0.00    +0.000 C 
BRANCH  18  25
ATOM     25  C   UNL     1      -4.018  13.000  24.496  0.00  0.00    +0.000 C 
ATOM     26  F   UNL     1      -4.901  13.794  23.833  0.00  0.00    +0.000 F 
ATOM     27  F   UNL     1      -4.746  11.909  24.881  0.00  0.00    +0.000 F 
ATOM     28  F   UNL     1      -3.712  13.669  25.647  0.00  0.00    +0.000 F 
ENDBRANCH  18  25
ENDBRANCH   1  23
TORSDOF 2
ENDMDL
MODEL 7
REMARK VINA RESULT:      -6.2      8.087     11.232
REMARK  Name = 
REMARK  2 active torsions:
REMARK  status: ('A' for Active; 'I' for Inactive)
REMARK    1  A    between atoms: C_2  and  C_25
REMARK    2  A    between atoms: C_7  and  C_8
REMARK                            x       y       z     vdW  Elec       q    Type
REMARK                         _______ _______ _______ _____ _____    ______ ____
ROOT
ATOM      1  C   UNL     1       6.839  13.540  22.801  0.00  0.00    +0.000 C 
ATOM      2  C   UNL     1       7.176  14.208  24.155  0.00  0.00    +0.000 C 
ATOM      3  C   UNL     1       7.382  13.191  25.274  0.00  0.00    +0.000 C 
ATOM      4  C   UNL     1       8.440  12.177  24.872  0.00  0.00    +0.000 C 
ATOM      5  C   UNL     1       8.064  11.502  23.556  0.00  0.00    +0.000 C 
ATOM      6  N   UNL     1       7.890  12.515  22.501  0.00  0.00    +0.000 N 
ATOM      7  C   UNL     1       8.673  12.464  21.362  0.00  0.00    +0.000 A 
ATOM      8  C   UNL     1       9.255  11.277  20.919  0.00  0.00    +0.000 A 
ATOM      9  C   UNL     1      10.030  11.253  19.762  0.00  0.00    +0.000 A 
ATOM     10  C   UNL     1      10.187  12.396  19.017  0.00  0.00    +0.000 A 
ATOM     11  N   UNL     1      10.879  12.349  17.854  0.00  0.00    +0.000 NA
ATOM     12  C   UNL     1      10.927  13.500  17.159  0.00  0.00    +0.000 A 
ATOM     13  C   UNL     1      10.320  14.647  17.619  0.00  0.00    +0.000 A 
ATOM     14  N   UNL     1       9.653  14.699  18.792  0.00  0.00    +0.000 NA
ATOM     15  C   UNL     1       9.567  13.565  19.505  0.00  0.00    +0.000 A 
ATOM     16  N   UNL     1       8.874  13.585  20.649  0.00  0.00    +0.000 NA
ENDROOT
BRANCH   1  23
ATOM     17  O   UNL     1       3.744  13.988  19.066  0.00  0.00    +0.000 OA
ATOM     18  C   UNL     1       3.997  15.191  19.249  0.00  0.00    +0.000 C 
ATOM     19  N   UNL     1       4.511  15.600  20.486  0.00  0.00    +0.000 N 
ATOM     20  C   UNL     1       4.904  16.955  20.856  0.00  0.00    +0.000 C 
ATOM     21  C   UNL     1       6.422  17.030  20.956  0.00  0.00    +0.000 C 
ATOM     22  C   UNL     1       6.916  16.027  22.002  0.00  0.00    +0.000 C 
ATOM     23  C   UNL     1       6.449  14.578  21.695  0.00  0.00    +0.000 C 
ATOM     24  C   UNL     1       4.911  14.581  21.473  0.00  0.00    +0.000 C 
BRANCH  18  25
ATOM     25  C   UNL     1       3.687  16.201  18.103  0.00  0.00    +0.000 C 
ATOM     26  F   UNL     1       2.600  17.000  18.270  0.00  0.00    +0.000 F 
ATOM     27  F   UNL     1       4.729  17.062  17.898  0.00  0.00    +0.000 F 
ATOM     28  F   UNL     1       3.494  15.561  16.911  0.00  0.00    +0.000 F 
ENDBRANCH  18  25
ENDBRANCH   1  23
TORSDOF 2
ENDMDL
MODEL 8
REMARK VINA RESULT:      -6.2      4.035      6.117
REMARK  Name = 
REMARK  2 active torsions:
REMARK  status: ('A' for Active; 'I' for Inactive)
REMARK    1  A    between atoms: C_2  and  C_25
REMARK    2  A    between atoms: C_7  and  C_8
REMARK                            x       y       z     vdW  Elec       q    Type
REMARK                         _______ _______ _______ _____ _____    ______ ____
ROOT
ATOM      1  C   UNL     1      -1.292  14.642  21.970  0.00  0.00    +0.000 C 
ATOM      2  C   UNL     1      -0.888  16.094  21.622  0.00  0.00    +0.000 C 
ATOM      3  C   UNL     1       0.608  16.342  21.788  0.00  0.00    +0.000 C 
ATOM      4  C   UNL     1       1.400  15.331  20.975  0.00  0.00    +0.000 C 
ATOM      5  C   UNL     1       1.015  13.908  21.366  0.00  0.00    +0.000 C 
ATOM      6  N   UNL     1      -0.432  13.706  21.177  0.00  0.00    +0.000 N 
ATOM      7  C   UNL     1      -0.882  12.721  20.317  0.00  0.00    +0.000 A 
ATOM      8  C   UNL     1      -0.107  11.606  20.000  0.00  0.00    +0.000 A 
ATOM      9  C   UNL     1      -0.591  10.624  19.139  0.00  0.00    +0.000 A 
ATOM     10  C   UNL     1      -1.863  10.722  18.630  0.00  0.00    +0.000 A 
ATOM     11  N   UNL     1      -2.354   9.728  17.854  0.00  0.00    +0.000 NA
ATOM     12  C   UNL     1      -3.630   9.879  17.454  0.00  0.00    +0.000 A 
ATOM     13  C   UNL     1      -4.371  10.984  17.806  0.00  0.00    +0.000 A 
ATOM     14  N   UNL     1      -3.871  11.989  18.559  0.00  0.00    +0.000 NA
ATOM     15  C   UNL     1      -2.607  11.865  18.993  0.00  0.00    +0.000 A 
ATOM     16  N   UNL     1      -2.107  12.828  19.774  0.00  0.00    +0.000 NA
ENDROOT
BRANCH   1  23
ATOM     17  O   UNL     1      -4.672  12.084  24.371  0.00  0.00    +0.000 OA
ATOM     18  C   UNL     1      -5.405  12.966  23.893  0.00  0.00    +0.000 C 
ATOM     19  N   UNL     1      -4.834  14.174  23.472  0.00  0.00    +0.000 N 
ATOM     20  C   UNL     1      -5.534  15.292  22.850  0.00  0.00    +0.000 C 
ATOM     21  C   UNL     1      -5.148  15.372  21.378  0.00  0.00    +0.000 C 
ATOM     22  C   UNL     1      -3.634  15.555  21.255  0.00  0.00    +0.000 C 
ATOM     23  C   UNL     1      -2.844  14.430  21.978  0.00  0.00    +0.000 C 
ATOM     24  C   UNL     1      -3.367  14.304  23.435  0.00  0.00    +0.000 C 
BRANCH  18  25
ATOM     25  C   UNL     1      -6.939  12.702  23.823  0.00  0.00    +0.000 C 
ATOM     26  F   UNL     1      -7.539  12.903  22.618  0.00  0.00    +0.000 F 
ATOM     27  F   UNL     1      -7.243  11.412  24.156  0.00  0.00    +0.000 F 
ATOM     28  F   UNL     1      -7.623  13.486  24.709  0.00  0.00    +0.000 F 
ENDBRANCH  18  25
ENDBRANCH   1  23
TORSDOF 2
ENDMDL
MODEL 9
REMARK VINA RESULT:      -6.1      1.273      1.522
REMARK  Name = 
REMARK  2 active torsions:
REMARK  status: ('A' for Active; 'I' for Inactive)
REMARK    1  A    between atoms: C_2  and  C_25
REMARK    2  A    between atoms: C_7  and  C_8
REMARK                            x       y       z     vdW  Elec       q    Type
REMARK                         _______ _______ _______ _____ _____    ______ ____
ROOT
ATOM      1  C   UNL     1      -5.101  13.673  22.427  0.00  0.00    +0.000 C 
ATOM      2  C   UNL     1      -5.401  12.856  23.707  0.00  0.00    +0.000 C 
ATOM      3  C   UNL     1      -6.877  12.896  24.094  0.00  0.00    +0.000 C 
ATOM      4  C   UNL     1      -7.737  12.442  22.926  0.00  0.00    +0.000 C 
ATOM      5  C   UNL     1      -7.453  13.289  21.689  0.00  0.00    +0.000 C 
ATOM      6  N   UNL     1      -6.023  13.211  21.341  0.00  0.00    +0.000 N 
ATOM      7  C   UNL     1      -5.643  12.733  20.100  0.00  0.00    +0.000 A 
ATOM      8  C   UNL     1      -6.494  12.783  18.997  0.00  0.00    +0.000 A 
ATOM      9  C   UNL     1      -6.079  12.305  17.756  0.00  0.00    +0.000 A 
ATOM     10  C   UNL     1      -4.803  11.822  17.597  0.00  0.00    +0.000 A 
ATOM     11  N   UNL     1      -4.383  11.428  16.372  0.00  0.00    +0.000 NA
ATOM     12  C   UNL     1      -3.099  11.031  16.298  0.00  0.00    +0.000 A 
ATOM     13  C   UNL     1      -2.282  11.018  17.407  0.00  0.00    +0.000 A 
ATOM     14  N   UNL     1      -2.712  11.386  18.634  0.00  0.00    +0.000 NA
ATOM     15  C   UNL     1      -3.981  11.806  18.744  0.00  0.00    +0.000 A 
ATOM     16  N   UNL     1      -4.413  12.215  19.942  0.00  0.00    +0.000 NA
ENDROOT
BRANCH   1  23
ATOM     17  O   UNL     1      -1.990  16.594  20.079  0.00  0.00    +0.000 OA
ATOM     18  C   UNL     1      -1.182  16.022  20.832  0.00  0.00    +0.000 C 
ATOM     19  N   UNL     1      -1.656  15.395  21.991  0.00  0.00    +0.000 N 
ATOM     20  C   UNL     1      -0.862  14.643  22.955  0.00  0.00    +0.000 C 
ATOM     21  C   UNL     1      -1.185  13.160  22.828  0.00  0.00    +0.000 C 
ATOM     22  C   UNL     1      -2.679  12.938  23.079  0.00  0.00    +0.000 C 
ATOM     23  C   UNL     1      -3.567  13.786  22.128  0.00  0.00    +0.000 C 
ATOM     24  C   UNL     1      -3.109  15.268  22.200  0.00  0.00    +0.000 C 
BRANCH  18  25
ATOM     25  C   UNL     1       0.333  16.066  20.470  0.00  0.00    +0.000 C 
ATOM     26  F   UNL     1       1.171  16.572  21.415  0.00  0.00    +0.000 F 
ATOM     27  F   UNL     1       0.821  14.818  20.199  0.00  0.00    +0.000 F 
ATOM     28  F   UNL     1       0.558  16.806  19.344  0.00  0.00    +0.000 F 
ENDBRANCH  18  25
ENDBRANCH   1  23
TORSDOF 2
ENDMDL
