MODEL 1
REMARK VINA RESULT:      -8.3      0.000      0.000
REMARK  Name = 
REMARK  7 active torsions:
REMARK  status: ('A' for Active; 'I' for Inactive)
REMARK    1  A    between atoms: C_1  and  N_2
REMARK    2  A    between atoms: C_6  and  C_7
REMARK    3  A    between atoms: C_7  and  C_8
REMARK    4  A    between atoms: C_8  and  C_9
REMARK    5  A    between atoms: C_13  and  N_14
REMARK    6  A    between atoms: C_22  and  C_23
REMARK    7  A    between atoms: C_23  and  C_24
REMARK                            x       y       z     vdW  Elec       q    Type
REMARK                         _______ _______ _______ _____ _____    ______ ____
ROOT
ATOM      1  N   UNL     1       6.058   5.341  15.547  0.00  0.00    +0.000 N 
ATOM      2  C   UNL     1       4.870   6.206  15.764  0.00  0.00    +0.000 C 
ATOM      3  C   UNL     1       4.099   5.428  16.790  0.00  0.00    +0.000 A 
ATOM      4  C   UNL     1       4.432   4.078  16.614  0.00  0.00    +0.000 A 
ATOM      5  C   UNL     1       4.036   3.083  17.486  0.00  0.00    +0.000 A 
ATOM      6  C   UNL     1       3.302   3.488  18.592  0.00  0.00    +0.000 A 
ATOM      7  F   UNL     1       2.968   2.583  19.520  0.00  0.00    +0.000 F 
ATOM      8  C   UNL     1       2.974   4.834  18.805  0.00  0.00    +0.000 A 
ATOM      9  C   UNL     1       3.369   5.842  17.901  0.00  0.00    +0.000 A 
ATOM     10  C   UNL     1       5.578   4.014  15.680  0.00  0.00    +0.000 C 
ATOM     11  O   UNL     1       6.093   2.976  15.302  0.00  0.00    +0.000 OA
ENDROOT
BRANCH   1  16
ATOM     12  C   UNL     1       7.809   7.632  17.780  0.00  0.00    +0.000 A 
ATOM     13  C   UNL     1       7.839   6.810  18.916  0.00  0.00    +0.000 A 
ATOM     14  C   UNL     1       7.713   5.432  18.794  0.00  0.00    +0.000 A 
ATOM     15  C   UNL     1       7.424   4.872  17.554  0.00  0.00    +0.000 A 
ATOM     16  C   UNL     1       7.124   5.715  16.471  0.00  0.00    +0.000 A 
ATOM     17  C   UNL     1       7.476   7.068  16.544  0.00  0.00    +0.000 A 
BRANCH  12  18
ATOM     18  C   UNL     1       8.013   9.121  17.909  0.00  0.00    +0.000 C 
BRANCH  18  19
ATOM     19  C   UNL     1       8.999   9.446  19.037  0.00  0.00    +0.000 C 
BRANCH  19  25
ATOM     20  C   UNL     1       9.090  11.564  21.306  0.00  0.00    +0.000 C 
ATOM     21  N   UNL     1       9.516  11.753  19.947  0.00  0.00    +0.000 N 
ATOM     22  C   UNL     1       9.997  12.906  19.406  0.00  0.00    +0.000 A 
ATOM     23  N   UNL     1      10.297  12.713  18.146  0.00  0.00    +0.000 NA
ATOM     24  N   UNL     1       9.987  11.406  17.846  0.00  0.00    +0.000 NA
ATOM     25  C   UNL     1       9.514  10.837  18.931  0.00  0.00    +0.000 A 
ENDBRANCH  19  25
ENDBRANCH  18  19
ENDBRANCH  12  18
ENDBRANCH   1  16
BRANCH   9  26
ATOM     26  C   UNL     1       3.063   7.290  18.209  0.00  0.00    +0.000 C 
ATOM     27  C   UNL     1       2.420   7.419  19.576  0.00  0.00    +0.000 C 
ATOM     28  F   UNL     1       4.186   8.066  18.200  0.00  0.00    +0.000 F 
ATOM     29  F   UNL     1       2.226   7.866  17.302  0.00  0.00    +0.000 F 
ENDBRANCH   9  26
TORSDOF 5
ENDMDL
MODEL 2
REMARK VINA RESULT:      -8.1      4.254      6.623
REMARK  Name = 
REMARK  7 active torsions:
REMARK  status: ('A' for Active; 'I' for Inactive)
REMARK    1  A    between atoms: C_1  and  N_2
REMARK    2  A    between atoms: C_6  and  C_7
REMARK    3  A    between atoms: C_7  and  C_8
REMARK    4  A    between atoms: C_8  and  C_9
REMARK    5  A    between atoms: C_13  and  N_14
REMARK    6  A    between atoms: C_22  and  C_23
REMARK    7  A    between atoms: C_23  and  C_24
REMARK                            x       y       z     vdW  Elec       q    Type
REMARK                         _______ _______ _______ _____ _____    ______ ____
ROOT
ATOM      1  N   UNL     1       3.737   4.461  19.307  0.00  0.00    +0.000 N 
ATOM      2  C   UNL     1       5.120   5.005  19.301  0.00  0.00    +0.000 C 
ATOM      3  C   UNL     1       5.500   4.879  17.855  0.00  0.00    +0.000 A 
ATOM      4  C   UNL     1       4.759   3.812  17.329  0.00  0.00    +0.000 A 
ATOM      5  C   UNL     1       4.728   3.505  15.983  0.00  0.00    +0.000 A 
ATOM      6  C   UNL     1       5.455   4.337  15.144  0.00  0.00    +0.000 A 
ATOM      7  F   UNL     1       5.391   4.146  13.820  0.00  0.00    +0.000 F 
ATOM      8  C   UNL     1       6.187   5.424  15.639  0.00  0.00    +0.000 A 
ATOM      9  C   UNL     1       6.226   5.722  17.018  0.00  0.00    +0.000 A 
ATOM     10  C   UNL     1       3.742   3.431  18.334  0.00  0.00    +0.000 C 
ATOM     11  O   UNL     1       2.948   2.516  18.190  0.00  0.00    +0.000 OA
ENDROOT
BRANCH   1  16
ATOM     12  C   UNL     1       1.975   7.532  20.184  0.00  0.00    +0.000 A 
ATOM     13  C   UNL     1       2.265   8.260  19.022  0.00  0.00    +0.000 A 
ATOM     14  C   UNL     1       2.612   7.606  17.846  0.00  0.00    +0.000 A 
ATOM     15  C   UNL     1       2.800   6.228  17.853  0.00  0.00    +0.000 A 
ATOM     16  C   UNL     1       2.777   5.536  19.075  0.00  0.00    +0.000 A 
ATOM     17  C   UNL     1       2.208   6.152  20.195  0.00  0.00    +0.000 A 
BRANCH  12  18
ATOM     18  C   UNL     1       1.535   8.242  21.440  0.00  0.00    +0.000 C 
BRANCH  18  19
ATOM     19  C   UNL     1       0.031   8.534  21.409  0.00  0.00    +0.000 C 
BRANCH  19  25
ATOM     20  C   UNL     1      -0.520  10.940  19.524  0.00  0.00    +0.000 C 
ATOM     21  N   UNL     1      -0.479  10.975  20.960  0.00  0.00    +0.000 N 
ATOM     22  C   UNL     1      -0.635  12.077  21.744  0.00  0.00    +0.000 A 
ATOM     23  N   UNL     1      -0.549  11.738  23.007  0.00  0.00    +0.000 NA
ATOM     24  N   UNL     1      -0.311  10.383  23.052  0.00  0.00    +0.000 NA
ATOM     25  C   UNL     1      -0.265   9.932  21.820  0.00  0.00    +0.000 A 
ENDBRANCH  19  25
ENDBRANCH  18  19
ENDBRANCH  12  18
ENDBRANCH   1  16
BRANCH   9  26
ATOM     26  C   UNL     1       6.963   6.950  17.501  0.00  0.00    +0.000 C 
ATOM     27  C   UNL     1       7.863   6.605  18.671  0.00  0.00    +0.000 C 
ATOM     28  F   UNL     1       7.740   7.500  16.523  0.00  0.00    +0.000 F 
ATOM     29  F   UNL     1       6.131   7.953  17.899  0.00  0.00    +0.000 F 
ENDBRANCH   9  26
TORSDOF 5
ENDMDL
MODEL 3
REMARK VINA RESULT:      -7.9      1.201      1.475
REMARK  Name = 
REMARK  7 active torsions:
REMARK  status: ('A' for Active; 'I' for Inactive)
REMARK    1  A    between atoms: C_1  and  N_2
REMARK    2  A    between atoms: C_6  and  C_7
REMARK    3  A    between atoms: C_7  and  C_8
REMARK    4  A    between atoms: C_8  and  C_9
REMARK    5  A    between atoms: C_13  and  N_14
REMARK    6  A    between atoms: C_22  and  C_23
REMARK    7  A    between atoms: C_23  and  C_24
REMARK                            x       y       z     vdW  Elec       q    Type
REMARK                         _______ _______ _______ _____ _____    ______ ____
ROOT
ATOM      1  N   UNL     1       5.944   5.857  15.721  0.00  0.00    +0.000 N 
ATOM      2  C   UNL     1       4.751   6.391  16.427  0.00  0.00    +0.000 C 
ATOM      3  C   UNL     1       4.150   5.146  17.012  0.00  0.00    +0.000 A 
ATOM      4  C   UNL     1       4.525   4.082  16.181  0.00  0.00    +0.000 A 
ATOM      5  C   UNL     1       4.288   2.758  16.496  0.00  0.00    +0.000 A 
ATOM      6  C   UNL     1       3.677   2.515  17.718  0.00  0.00    +0.000 A 
ATOM      7  F   UNL     1       3.504   1.249  18.121  0.00  0.00    +0.000 F 
ATOM      8  C   UNL     1       3.312   3.558  18.580  0.00  0.00    +0.000 A 
ATOM      9  C   UNL     1       3.543   4.908  18.243  0.00  0.00    +0.000 A 
ATOM     10  C   UNL     1       5.549   4.584  15.239  0.00  0.00    +0.000 C 
ATOM     11  O   UNL     1       6.065   3.906  14.366  0.00  0.00    +0.000 OA
ENDROOT
BRANCH   1  16
ATOM     12  C   UNL     1       8.039   7.231  18.372  0.00  0.00    +0.000 A 
ATOM     13  C   UNL     1       8.061   6.104  19.205  0.00  0.00    +0.000 A 
ATOM     14  C   UNL     1       7.797   4.840  18.691  0.00  0.00    +0.000 A 
ATOM     15  C   UNL     1       7.381   4.705  17.371  0.00  0.00    +0.000 A 
ATOM     16  C   UNL     1       7.095   5.856  16.618  0.00  0.00    +0.000 A 
ATOM     17  C   UNL     1       7.578   7.094  17.057  0.00  0.00    +0.000 A 
BRANCH  12  18
ATOM     18  C   UNL     1       8.390   8.592  18.919  0.00  0.00    +0.000 C 
BRANCH  18  19
ATOM     19  C   UNL     1       8.407   9.645  17.805  0.00  0.00    +0.000 C 
BRANCH  19  25
ATOM     20  C   UNL     1       7.679  12.589  17.134  0.00  0.00    +0.000 C 
ATOM     21  N   UNL     1       8.826  12.143  17.876  0.00  0.00    +0.000 N 
ATOM     22  C   UNL     1       9.815  12.931  18.381  0.00  0.00    +0.000 A 
ATOM     23  N   UNL     1      10.694  12.190  19.009  0.00  0.00    +0.000 NA
ATOM     24  N   UNL     1      10.282  10.881  18.897  0.00  0.00    +0.000 NA
ATOM     25  C   UNL     1       9.162  10.860  18.211  0.00  0.00    +0.000 A 
ENDBRANCH  19  25
ENDBRANCH  18  19
ENDBRANCH  12  18
ENDBRANCH   1  16
BRANCH   9  26
ATOM     26  C   UNL     1       3.206   5.998  19.234  0.00  0.00    +0.000 C 
ATOM     27  C   UNL     1       2.318   5.458  20.338  0.00  0.00    +0.000 C 
ATOM     28  F   UNL     1       4.322   6.527  19.816  0.00  0.00    +0.000 F 
ATOM     29  F   UNL     1       2.565   7.059  18.669  0.00  0.00    +0.000 F 
ENDBRANCH   9  26
TORSDOF 5
ENDMDL
MODEL 4
REMARK VINA RESULT:      -7.9      4.435      6.682
REMARK  Name = 
REMARK  7 active torsions:
REMARK  status: ('A' for Active; 'I' for Inactive)
REMARK    1  A    between atoms: C_1  and  N_2
REMARK    2  A    between atoms: C_6  and  C_7
REMARK    3  A    between atoms: C_7  and  C_8
REMARK    4  A    between atoms: C_8  and  C_9
REMARK    5  A    between atoms: C_13  and  N_14
REMARK    6  A    between atoms: C_22  and  C_23
REMARK    7  A    between atoms: C_23  and  C_24
REMARK                            x       y       z     vdW  Elec       q    Type
REMARK                         _______ _______ _______ _____ _____    ______ ____
ROOT
ATOM      1  N   UNL     1       3.028   3.940  19.018  0.00  0.00    +0.000 N 
ATOM      2  C   UNL     1       4.446   4.113  19.428  0.00  0.00    +0.000 C 
ATOM      3  C   UNL     1       5.153   4.147  18.105  0.00  0.00    +0.000 A 
ATOM      4  C   UNL     1       4.373   3.407  17.206  0.00  0.00    +0.000 A 
ATOM      5  C   UNL     1       4.629   3.355  15.850  0.00  0.00    +0.000 A 
ATOM      6  C   UNL     1       5.701   4.111  15.395  0.00  0.00    +0.000 A 
ATOM      7  F   UNL     1       5.944   4.173  14.080  0.00  0.00    +0.000 F 
ATOM      8  C   UNL     1       6.484   4.877  16.268  0.00  0.00    +0.000 A 
ATOM      9  C   UNL     1       6.225   4.913  17.654  0.00  0.00    +0.000 A 
ATOM     10  C   UNL     1       3.076   3.126  17.859  0.00  0.00    +0.000 C 
ATOM     11  O   UNL     1       2.179   2.478  17.346  0.00  0.00    +0.000 OA
ENDROOT
BRANCH   1  16
ATOM     12  C   UNL     1       2.045   7.283  20.096  0.00  0.00    +0.000 A 
ATOM     13  C   UNL     1       2.607   8.003  19.032  0.00  0.00    +0.000 A 
ATOM     14  C   UNL     1       2.870   7.379  17.818  0.00  0.00    +0.000 A 
ATOM     15  C   UNL     1       2.699   6.004  17.698  0.00  0.00    +0.000 A 
ATOM     16  C   UNL     1       2.398   5.245  18.840  0.00  0.00    +0.000 A 
ATOM     17  C   UNL     1       1.915   5.894  19.982  0.00  0.00    +0.000 A 
BRANCH  12  18
ATOM     18  C   UNL     1       1.699   7.978  21.390  0.00  0.00    +0.000 C 
BRANCH  18  19
ATOM     19  C   UNL     1       0.185   8.187  21.514  0.00  0.00    +0.000 C 
BRANCH  19  25
ATOM     20  C   UNL     1      -0.638  10.464  19.570  0.00  0.00    +0.000 C 
ATOM     21  N   UNL     1      -0.481  10.575  20.994  0.00  0.00    +0.000 N 
ATOM     22  C   UNL     1      -0.628  11.708  21.735  0.00  0.00    +0.000 A 
ATOM     23  N   UNL     1      -0.422  11.439  23.000  0.00  0.00    +0.000 NA
ATOM     24  N   UNL     1      -0.114  10.100  23.090  0.00  0.00    +0.000 NA
ATOM     25  C   UNL     1      -0.146   9.589  21.881  0.00  0.00    +0.000 A 
ENDBRANCH  19  25
ENDBRANCH  18  19
ENDBRANCH  12  18
ENDBRANCH   1  16
BRANCH   9  26
ATOM     26  C   UNL     1       7.044   5.814  18.549  0.00  0.00    +0.000 C 
ATOM     27  C   UNL     1       7.378   7.110  17.837  0.00  0.00    +0.000 C 
ATOM     28  F   UNL     1       6.386   6.128  19.703  0.00  0.00    +0.000 F 
ATOM     29  F   UNL     1       8.216   5.249  18.952  0.00  0.00    +0.000 F 
ENDBRANCH   9  26
TORSDOF 5
ENDMDL
MODEL 5
REMARK VINA RESULT:      -7.9      0.592      1.143
REMARK  Name = 
REMARK  7 active torsions:
REMARK  status: ('A' for Active; 'I' for Inactive)
REMARK    1  A    between atoms: C_1  and  N_2
REMARK    2  A    between atoms: C_6  and  C_7
REMARK    3  A    between atoms: C_7  and  C_8
REMARK    4  A    between atoms: C_8  and  C_9
REMARK    5  A    between atoms: C_13  and  N_14
REMARK    6  A    between atoms: C_22  and  C_23
REMARK    7  A    between atoms: C_23  and  C_24
REMARK                            x       y       z     vdW  Elec       q    Type
REMARK                         _______ _______ _______ _____ _____    ______ ____
ROOT
ATOM      1  N   UNL     1       6.081   5.398  15.558  0.00  0.00    +0.000 N 
ATOM      2  C   UNL     1       4.878   6.245  15.762  0.00  0.00    +0.000 C 
ATOM      3  C   UNL     1       4.111   5.459  16.785  0.00  0.00    +0.000 A 
ATOM      4  C   UNL     1       4.467   4.114  16.618  0.00  0.00    +0.000 A 
ATOM      5  C   UNL     1       4.080   3.117  17.492  0.00  0.00    +0.000 A 
ATOM      6  C   UNL     1       3.332   3.515  18.591  0.00  0.00    +0.000 A 
ATOM      7  F   UNL     1       3.005   2.609  19.520  0.00  0.00    +0.000 F 
ATOM      8  C   UNL     1       2.980   4.856  18.795  0.00  0.00    +0.000 A 
ATOM      9  C   UNL     1       3.366   5.867  17.889  0.00  0.00    +0.000 A 
ATOM     10  C   UNL     1       5.621   4.064  15.694  0.00  0.00    +0.000 C 
ATOM     11  O   UNL     1       6.156   3.033  15.324  0.00  0.00    +0.000 OA
ENDROOT
BRANCH   1  16
ATOM     12  C   UNL     1       7.728   7.694  17.865  0.00  0.00    +0.000 A 
ATOM     13  C   UNL     1       7.811   6.834  18.968  0.00  0.00    +0.000 A 
ATOM     14  C   UNL     1       7.756   5.456  18.796  0.00  0.00    +0.000 A 
ATOM     15  C   UNL     1       7.487   4.928  17.537  0.00  0.00    +0.000 A 
ATOM     16  C   UNL     1       7.133   5.794  16.489  0.00  0.00    +0.000 A 
ATOM     17  C   UNL     1       7.414   7.160  16.610  0.00  0.00    +0.000 A 
BRANCH  12  18
ATOM     18  C   UNL     1       7.853   9.186  18.049  0.00  0.00    +0.000 C 
BRANCH  18  19
ATOM     19  C   UNL     1       9.261   9.565  18.522  0.00  0.00    +0.000 C 
BRANCH  19  25
ATOM     20  C   UNL     1       9.395  12.573  17.759  0.00  0.00    +0.000 C 
ATOM     21  N   UNL     1       9.318  12.034  19.089  0.00  0.00    +0.000 N 
ATOM     22  C   UNL     1       9.330  12.747  20.249  0.00  0.00    +0.000 A 
ATOM     23  N   UNL     1       9.233  11.932  21.270  0.00  0.00    +0.000 NA
ATOM     24  N   UNL     1       9.175  10.651  20.769  0.00  0.00    +0.000 NA
ATOM     25  C   UNL     1       9.232  10.720  19.458  0.00  0.00    +0.000 A 
ENDBRANCH  19  25
ENDBRANCH  18  19
ENDBRANCH  12  18
ENDBRANCH   1  16
BRANCH   9  26
ATOM     26  C   UNL     1       3.034   7.310  18.189  0.00  0.00    +0.000 C 
ATOM     27  C   UNL     1       2.422   7.441  19.569  0.00  0.00    +0.000 C 
ATOM     28  F   UNL     1       4.138   8.112  18.142  0.00  0.00    +0.000 F 
ATOM     29  F   UNL     1       2.162   7.857  17.296  0.00  0.00    +0.000 F 
ENDBRANCH   9  26
TORSDOF 5
ENDMDL
MODEL 6
REMARK VINA RESULT:      -7.8      4.777      7.372
REMARK  Name = 
REMARK  7 active torsions:
REMARK  status: ('A' for Active; 'I' for Inactive)
REMARK    1  A    between atoms: C_1  and  N_2
REMARK    2  A    between atoms: C_6  and  C_7
REMARK    3  A    between atoms: C_7  and  C_8
REMARK    4  A    between atoms: C_8  and  C_9
REMARK    5  A    between atoms: C_13  and  N_14
REMARK    6  A    between atoms: C_22  and  C_23
REMARK    7  A    between atoms: C_23  and  C_24
REMARK                            x       y       z     vdW  Elec       q    Type
REMARK                         _______ _______ _______ _____ _____    ______ ____
ROOT
ATOM      1  N   UNL     1       2.637   7.347  19.324  0.00  0.00    +0.000 N 
ATOM      2  C   UNL     1       2.342   8.143  20.543  0.00  0.00    +0.000 C 
ATOM      3  C   UNL     1       1.237   9.042  20.069  0.00  0.00    +0.000 A 
ATOM      4  C   UNL     1       1.409   9.209  18.689  0.00  0.00    +0.000 A 
ATOM      5  C   UNL     1       0.484   9.845  17.884  0.00  0.00    +0.000 A 
ATOM      6  C   UNL     1      -0.670  10.296  18.509  0.00  0.00    +0.000 A 
ATOM      7  F   UNL     1      -1.643  10.839  17.767  0.00  0.00    +0.000 F 
ATOM      8  C   UNL     1      -0.879  10.124  19.884  0.00  0.00    +0.000 A 
ATOM      9  C   UNL     1       0.079   9.487  20.701  0.00  0.00    +0.000 A 
ATOM     10  C   UNL     1       2.434   8.240  18.241  0.00  0.00    +0.000 C 
ATOM     11  O   UNL     1       2.829   8.146  17.092  0.00  0.00    +0.000 OA
ENDROOT
BRANCH   1  16
ATOM     12  C   UNL     1       1.950   3.858  18.512  0.00  0.00    +0.000 A 
ATOM     13  C   UNL     1       1.615   3.422  19.802  0.00  0.00    +0.000 A 
ATOM     14  C   UNL     1       1.190   4.328  20.766  0.00  0.00    +0.000 A 
ATOM     15  C   UNL     1       1.222   5.691  20.493  0.00  0.00    +0.000 A 
ATOM     16  C   UNL     1       1.814   6.142  19.302  0.00  0.00    +0.000 A 
ATOM     17  C   UNL     1       2.021   5.233  18.258  0.00  0.00    +0.000 A 
BRANCH  12  18
ATOM     18  C   UNL     1       2.347   2.864  17.449  0.00  0.00    +0.000 C 
BRANCH  18  19
ATOM     19  C   UNL     1       3.721   2.255  17.751  0.00  0.00    +0.000 C 
BRANCH  19  25
ATOM     20  C   UNL     1       5.156   4.202  15.804  0.00  0.00    +0.000 C 
ATOM     21  N   UNL     1       5.348   4.125  17.226  0.00  0.00    +0.000 N 
ATOM     22  C   UNL     1       6.222   4.865  17.963  0.00  0.00    +0.000 A 
ATOM     23  N   UNL     1       6.121   4.538  19.227  0.00  0.00    +0.000 NA
ATOM     24  N   UNL     1       5.172   3.546  19.321  0.00  0.00    +0.000 NA
ATOM     25  C   UNL     1       4.715   3.299  18.115  0.00  0.00    +0.000 A 
ENDBRANCH  19  25
ENDBRANCH  18  19
ENDBRANCH  12  18
ENDBRANCH   1  16
BRANCH   9  26
ATOM     26  C   UNL     1      -0.221   9.251  22.164  0.00  0.00    +0.000 C 
ATOM     27  C   UNL     1      -0.899  10.463  22.771  0.00  0.00    +0.000 C 
ATOM     28  F   UNL     1      -1.038   8.174  22.354  0.00  0.00    +0.000 F 
ATOM     29  F   UNL     1       0.892   8.985  22.903  0.00  0.00    +0.000 F 
ENDBRANCH   9  26
TORSDOF 5
ENDMDL
MODEL 7
REMARK VINA RESULT:      -7.7      4.268      6.578
REMARK  Name = 
REMARK  7 active torsions:
REMARK  status: ('A' for Active; 'I' for Inactive)
REMARK    1  A    between atoms: C_1  and  N_2
REMARK    2  A    between atoms: C_6  and  C_7
REMARK    3  A    between atoms: C_7  and  C_8
REMARK    4  A    between atoms: C_8  and  C_9
REMARK    5  A    between atoms: C_13  and  N_14
REMARK    6  A    between atoms: C_22  and  C_23
REMARK    7  A    between atoms: C_23  and  C_24
REMARK                            x       y       z     vdW  Elec       q    Type
REMARK                         _______ _______ _______ _____ _____    ______ ____
ROOT
ATOM      1  N   UNL     1       3.646   4.485  19.260  0.00  0.00    +0.000 N 
ATOM      2  C   UNL     1       5.049   4.974  19.303  0.00  0.00    +0.000 C 
ATOM      3  C   UNL     1       5.482   4.809  17.875  0.00  0.00    +0.000 A 
ATOM      4  C   UNL     1       4.720   3.764  17.335  0.00  0.00    +0.000 A 
ATOM      5  C   UNL     1       4.732   3.436  15.994  0.00  0.00    +0.000 A 
ATOM      6  C   UNL     1       5.525   4.226  15.173  0.00  0.00    +0.000 A 
ATOM      7  F   UNL     1       5.507   4.016  13.850  0.00  0.00    +0.000 F 
ATOM      8  C   UNL     1       6.280   5.291  15.682  0.00  0.00    +0.000 A 
ATOM      9  C   UNL     1       6.274   5.609  17.056  0.00  0.00    +0.000 A 
ATOM     10  C   UNL     1       3.648   3.440  18.302  0.00  0.00    +0.000 C 
ATOM     11  O   UNL     1       2.826   2.555  18.139  0.00  0.00    +0.000 OA
ENDROOT
BRANCH   1  16
ATOM     12  C   UNL     1       1.950   7.620  20.033  0.00  0.00    +0.000 A 
ATOM     13  C   UNL     1       2.331   8.334  18.888  0.00  0.00    +0.000 A 
ATOM     14  C   UNL     1       2.720   7.664  17.734  0.00  0.00    +0.000 A 
ATOM     15  C   UNL     1       2.858   6.281  17.753  0.00  0.00    +0.000 A 
ATOM     16  C   UNL     1       2.740   5.593  18.972  0.00  0.00    +0.000 A 
ATOM     17  C   UNL     1       2.132   6.233  20.059  0.00  0.00    +0.000 A 
BRANCH  12  18
ATOM     18  C   UNL     1       1.465   8.349  21.262  0.00  0.00    +0.000 C 
BRANCH  18  19
ATOM     19  C   UNL     1      -0.046   8.594  21.196  0.00  0.00    +0.000 C 
BRANCH  19  25
ATOM     20  C   UNL     1      -1.105  10.786  23.125  0.00  0.00    +0.000 C 
ATOM     21  N   UNL     1      -0.847  10.940  21.719  0.00  0.00    +0.000 N 
ATOM     22  C   UNL     1      -1.060  12.063  20.980  0.00  0.00    +0.000 A 
ATOM     23  N   UNL     1      -0.704  11.849  19.738  0.00  0.00    +0.000 NA
ATOM     24  N   UNL     1      -0.264  10.547  19.655  0.00  0.00    +0.000 NA
ATOM     25  C   UNL     1      -0.358  10.006  20.848  0.00  0.00    +0.000 A 
ENDBRANCH  19  25
ENDBRANCH  18  19
ENDBRANCH  12  18
ENDBRANCH   1  16
BRANCH   9  26
ATOM     26  C   UNL     1       7.040   6.814  17.551  0.00  0.00    +0.000 C 
ATOM     27  C   UNL     1       7.876   6.453  18.763  0.00  0.00    +0.000 C 
ATOM     28  F   UNL     1       7.878   7.317  16.598  0.00  0.00    +0.000 F 
ATOM     29  F   UNL     1       6.234   7.857  17.900  0.00  0.00    +0.000 F 
ENDBRANCH   9  26
TORSDOF 5
ENDMDL
MODEL 8
REMARK VINA RESULT:      -7.6      4.317      6.553
REMARK  Name = 
REMARK  7 active torsions:
REMARK  status: ('A' for Active; 'I' for Inactive)
REMARK    1  A    between atoms: C_1  and  N_2
REMARK    2  A    between atoms: C_6  and  C_7
REMARK    3  A    between atoms: C_7  and  C_8
REMARK    4  A    between atoms: C_8  and  C_9
REMARK    5  A    between atoms: C_13  and  N_14
REMARK    6  A    between atoms: C_22  and  C_23
REMARK    7  A    between atoms: C_23  and  C_24
REMARK                            x       y       z     vdW  Elec       q    Type
REMARK                         _______ _______ _______ _____ _____    ______ ____
ROOT
ATOM      1  N   UNL     1       3.112   3.955  18.887  0.00  0.00    +0.000 N 
ATOM      2  C   UNL     1       4.510   4.097  19.367  0.00  0.00    +0.000 C 
ATOM      3  C   UNL     1       5.283   4.126  18.081  0.00  0.00    +0.000 A 
ATOM      4  C   UNL     1       4.534   3.408  17.139  0.00  0.00    +0.000 A 
ATOM      5  C   UNL     1       4.857   3.359  15.797  0.00  0.00    +0.000 A 
ATOM      6  C   UNL     1       5.963   4.096  15.401  0.00  0.00    +0.000 A 
ATOM      7  F   UNL     1       6.273   4.162  14.100  0.00  0.00    +0.000 F 
ATOM      8  C   UNL     1       6.718   4.842  16.317  0.00  0.00    +0.000 A 
ATOM      9  C   UNL     1       6.390   4.874  17.690  0.00  0.00    +0.000 A 
ATOM     10  C   UNL     1       3.201   3.147  17.725  0.00  0.00    +0.000 C 
ATOM     11  O   UNL     1       2.318   2.521  17.164  0.00  0.00    +0.000 OA
ENDROOT
BRANCH   1  16
ATOM     12  C   UNL     1       2.075   7.283  19.961  0.00  0.00    +0.000 A 
ATOM     13  C   UNL     1       2.741   8.022  18.972  0.00  0.00    +0.000 A 
ATOM     14  C   UNL     1       3.107   7.426  17.771  0.00  0.00    +0.000 A 
ATOM     15  C   UNL     1       2.930   6.058  17.598  0.00  0.00    +0.000 A 
ATOM     16  C   UNL     1       2.517   5.273  18.687  0.00  0.00    +0.000 A 
ATOM     17  C   UNL     1       1.939   5.900  19.797  0.00  0.00    +0.000 A 
BRANCH  12  18
ATOM     18  C   UNL     1       1.621   7.950  21.236  0.00  0.00    +0.000 C 
BRANCH  18  19
ATOM     19  C   UNL     1       0.123   8.267  21.187  0.00  0.00    +0.000 C 
BRANCH  19  25
ATOM     20  C   UNL     1      -0.869  10.469  23.140  0.00  0.00    +0.000 C 
ATOM     21  N   UNL     1      -0.585  10.636  21.741  0.00  0.00    +0.000 N 
ATOM     22  C   UNL     1      -0.740  11.780  21.019  0.00  0.00    +0.000 A 
ATOM     23  N   UNL     1      -0.375  11.572  19.778  0.00  0.00    +0.000 NA
ATOM     24  N   UNL     1       0.010  10.254  19.678  0.00  0.00    +0.000 NA
ATOM     25  C   UNL     1      -0.124   9.697  20.860  0.00  0.00    +0.000 A 
ENDBRANCH  19  25
ENDBRANCH  18  19
ENDBRANCH  12  18
ENDBRANCH   1  16
BRANCH   9  26
ATOM     26  C   UNL     1       7.182   5.752  18.630  0.00  0.00    +0.000 C 
ATOM     27  C   UNL     1       7.541   7.063  17.959  0.00  0.00    +0.000 C 
ATOM     28  F   UNL     1       6.488   6.041  19.770  0.00  0.00    +0.000 F 
ATOM     29  F   UNL     1       8.340   5.175  19.058  0.00  0.00    +0.000 F 
ENDBRANCH   9  26
TORSDOF 5
ENDMDL
MODEL 9
REMARK VINA RESULT:      -7.5      4.540      6.154
REMARK  Name = 
REMARK  7 active torsions:
REMARK  status: ('A' for Active; 'I' for Inactive)
REMARK    1  A    between atoms: C_1  and  N_2
REMARK    2  A    between atoms: C_6  and  C_7
REMARK    3  A    between atoms: C_7  and  C_8
REMARK    4  A    between atoms: C_8  and  C_9
REMARK    5  A    between atoms: C_13  and  N_14
REMARK    6  A    between atoms: C_22  and  C_23
REMARK    7  A    between atoms: C_23  and  C_24
REMARK                            x       y       z     vdW  Elec       q    Type
REMARK                         _______ _______ _______ _____ _____    ______ ____
ROOT
ATOM      1  N   UNL     1       3.271   6.167  20.181  0.00  0.00    +0.000 N 
ATOM      2  C   UNL     1       4.481   5.966  19.343  0.00  0.00    +0.000 C 
ATOM      3  C   UNL     1       4.128   4.726  18.575  0.00  0.00    +0.000 A 
ATOM      4  C   UNL     1       3.232   3.996  19.366  0.00  0.00    +0.000 A 
ATOM      5  C   UNL     1       2.565   2.873  18.915  0.00  0.00    +0.000 A 
ATOM      6  C   UNL     1       2.800   2.506  17.597  0.00  0.00    +0.000 A 
ATOM      7  F   UNL     1       2.115   1.481  17.074  0.00  0.00    +0.000 F 
ATOM      8  C   UNL     1       3.674   3.230  16.775  0.00  0.00    +0.000 A 
ATOM      9  C   UNL     1       4.362   4.367  17.250  0.00  0.00    +0.000 A 
ATOM     10  C   UNL     1       2.817   4.860  20.493  0.00  0.00    +0.000 C 
ATOM     11  O   UNL     1       2.056   4.510  21.379  0.00  0.00    +0.000 OA
ENDROOT
BRANCH   1  16
ATOM     12  C   UNL     1       1.203   9.143  19.768  0.00  0.00    +0.000 A 
ATOM     13  C   UNL     1       1.661   9.521  18.497  0.00  0.00    +0.000 A 
ATOM     14  C   UNL     1       2.256   8.591  17.654  0.00  0.00    +0.000 A 
ATOM     15  C   UNL     1       2.519   7.307  18.120  0.00  0.00    +0.000 A 
ATOM     16  C   UNL     1       2.310   7.010  19.476  0.00  0.00    +0.000 A 
ATOM     17  C   UNL     1       1.509   7.863  20.245  0.00  0.00    +0.000 A 
BRANCH  12  18
ATOM     18  C   UNL     1       0.498  10.139  20.654  0.00  0.00    +0.000 C 
BRANCH  18  19
ATOM     19  C   UNL     1       0.213  11.442  19.898  0.00  0.00    +0.000 C 
BRANCH  19  25
ATOM     20  C   UNL     1       2.529  13.070  18.623  0.00  0.00    +0.000 C 
ATOM     21  N   UNL     1       1.960  13.276  19.926  0.00  0.00    +0.000 N 
ATOM     22  C   UNL     1       2.363  14.196  20.845  0.00  0.00    +0.000 A 
ATOM     23  N   UNL     1       1.614  14.110  21.916  0.00  0.00    +0.000 NA
ATOM     24  N   UNL     1       0.708  13.096  21.702  0.00  0.00    +0.000 NA
ATOM     25  C   UNL     1       0.925  12.596  20.507  0.00  0.00    +0.000 A 
ENDBRANCH  19  25
ENDBRANCH  18  19
ENDBRANCH  12  18
ENDBRANCH   1  16
BRANCH   9  26
ATOM     26  C   UNL     1       5.234   5.164  16.308  0.00  0.00    +0.000 C 
ATOM     27  C   UNL     1       5.456   4.404  15.015  0.00  0.00    +0.000 C 
ATOM     28  F   UNL     1       4.679   6.372  15.993  0.00  0.00    +0.000 F 
ATOM     29  F   UNL     1       6.457   5.462  16.829  0.00  0.00    +0.000 F 
ENDBRANCH   9  26
TORSDOF 5
ENDMDL
