MODEL 1
REMARK VINA RESULT:      -9.3      0.000      0.000
REMARK  Name = 
REMARK  3 active torsions:
REMARK  status: ('A' for Active; 'I' for Inactive)
REMARK    1  A    between atoms: C_2  and  C_3
REMARK    2  A    between atoms: N_21  and  C_22
REMARK    3  A    between atoms: C_22  and  C_23
REMARK                            x       y       z     vdW  Elec       q    Type
REMARK                         _______ _______ _______ _____ _____    ______ ____
ROOT
ATOM      1  O   UNL     1       0.934   9.592  17.933  0.00  0.00    +0.000 OA
ATOM      2  C   UNL     1       1.235   9.093  19.018  0.00  0.00    +0.000 C 
ATOM      3  N   UNL     1       2.140   8.037  19.141  0.00  0.00    +0.000 N 
ATOM      4  C   UNL     1       2.933   7.656  17.978  0.00  0.00    +0.000 C 
ATOM      5  C   UNL     1       2.647   6.213  17.581  0.00  0.00    +0.000 C 
ATOM      6  C   UNL     1       3.007   5.295  18.771  0.00  0.00    +0.000 C 
ATOM      7  C   UNL     1       2.032   5.692  19.913  0.00  0.00    +0.000 C 
ATOM      8  C   UNL     1       2.149   4.776  21.126  0.00  0.00    +0.000 C 
ATOM      9  C   UNL     1       1.964   3.342  20.669  0.00  0.00    +0.000 C 
ATOM     10  C   UNL     1       3.010   2.993  19.618  0.00  0.00    +0.000 C 
ATOM     11  N   UNL     1       2.953   3.857  18.416  0.00  0.00    +0.000 NA
ATOM     12  C   UNL     1       2.259   7.159  20.310  0.00  0.00    +0.000 C 
ENDROOT
BRANCH   2  13
ATOM     13  C   UNL     1       0.597   9.666  20.243  0.00  0.00    +0.000 A 
ATOM     14  C   UNL     1       0.142   8.785  21.240  0.00  0.00    +0.000 A 
ATOM     15  C   UNL     1      -0.471   9.308  22.383  0.00  0.00    +0.000 A 
ATOM     16  C   UNL     1      -0.596  10.675  22.446  0.00  0.00    +0.000 A 
ATOM     17  O   UNL     1      -1.152  11.412  23.469  0.00  0.00    +0.000 OA
ATOM     18  C   UNL     1      -0.995  12.723  22.984  0.00  0.00    +0.000 A 
ATOM     19  O   UNL     1      -1.354  13.717  23.595  0.00  0.00    +0.000 OA
ATOM     20  N   UNL     1      -0.393  12.735  21.755  0.00  0.00    +0.000 N 
ATOM     21  C   UNL     1      -0.135  11.450  21.406  0.00  0.00    +0.000 A 
ATOM     22  N   UNL     1       0.452  11.021  20.293  0.00  0.00    +0.000 NA
ATOM     23  H   UNL     1      -0.185  13.554  21.210  0.00  0.00    +0.000 HD
ENDBRANCH   2  13
BRANCH  11  24
ATOM     24  C   UNL     1       4.084   3.497  17.510  0.00  0.00    +0.000 C 
BRANCH  24  25
ATOM     25  C   UNL     1       5.314   4.356  17.735  0.00  0.00    +0.000 A 
ATOM     26  C   UNL     1       5.800   4.551  19.035  0.00  0.00    +0.000 A 
ATOM     27  C   UNL     1       6.788   5.503  19.280  0.00  0.00    +0.000 A 
ATOM     28  C   UNL     1       7.313   6.250  18.226  0.00  0.00    +0.000 A 
ATOM     29  C   UNL     1       6.884   6.015  16.920  0.00  0.00    +0.000 A 
ATOM     30  C   UNL     1       5.895   5.064  16.672  0.00  0.00    +0.000 A 
ENDBRANCH  24  25
ENDBRANCH  11  24
TORSDOF 3
ENDMDL
MODEL 2
REMARK VINA RESULT:      -8.9      3.384      5.401
REMARK  Name = 
REMARK  3 active torsions:
REMARK  status: ('A' for Active; 'I' for Inactive)
REMARK    1  A    between atoms: C_2  and  C_3
REMARK    2  A    between atoms: N_21  and  C_22
REMARK    3  A    between atoms: C_22  and  C_23
REMARK                            x       y       z     vdW  Elec       q    Type
REMARK                         _______ _______ _______ _____ _____    ______ ____
ROOT
ATOM      1  O   UNL     1      -3.936  12.031  18.276  0.00  0.00    +0.000 OA
ATOM      2  C   UNL     1      -3.263  12.193  19.295  0.00  0.00    +0.000 C 
ATOM      3  N   UNL     1      -1.906  11.871  19.366  0.00  0.00    +0.000 N 
ATOM      4  C   UNL     1      -1.200  11.545  18.133  0.00  0.00    +0.000 C 
ATOM      5  C   UNL     1      -0.643  10.128  18.190  0.00  0.00    +0.000 C 
ATOM      6  C   UNL     1       0.335  10.031  19.384  0.00  0.00    +0.000 C 
ATOM      7  C   UNL     1      -0.531  10.270  20.651  0.00  0.00    +0.000 C 
ATOM      8  C   UNL     1       0.254  10.061  21.942  0.00  0.00    +0.000 C 
ATOM      9  C   UNL     1       0.879   8.680  21.909  0.00  0.00    +0.000 C 
ATOM     10  C   UNL     1       1.785   8.549  20.692  0.00  0.00    +0.000 C 
ATOM     11  N   UNL     1       1.082   8.751  19.405  0.00  0.00    +0.000 NA
ATOM     12  C   UNL     1      -1.148  11.676  20.606  0.00  0.00    +0.000 C 
ENDROOT
BRANCH   2  13
ATOM     13  C   UNL     1      -3.950  12.770  20.492  0.00  0.00    +0.000 A 
ATOM     14  C   UNL     1      -3.403  13.916  21.095  0.00  0.00    +0.000 A 
ATOM     15  C   UNL     1      -4.027  14.455  22.224  0.00  0.00    +0.000 A 
ATOM     16  C   UNL     1      -5.149  13.806  22.678  0.00  0.00    +0.000 A 
ATOM     17  O   UNL     1      -5.930  14.155  23.759  0.00  0.00    +0.000 OA
ATOM     18  C   UNL     1      -6.913  13.148  23.728  0.00  0.00    +0.000 A 
ATOM     19  O   UNL     1      -7.833  13.078  24.525  0.00  0.00    +0.000 OA
ATOM     20  N   UNL     1      -6.701  12.272  22.697  0.00  0.00    +0.000 N 
ATOM     21  C   UNL     1      -5.593  12.678  22.028  0.00  0.00    +0.000 A 
ATOM     22  N   UNL     1      -5.050  12.110  20.956  0.00  0.00    +0.000 NA
ATOM     23  H   UNL     1      -7.268  11.470  22.482  0.00  0.00    +0.000 HD
ENDBRANCH   2  13
BRANCH  11  24
ATOM     24  C   UNL     1       2.082   8.707  18.297  0.00  0.00    +0.000 C 
BRANCH  24  25
ATOM     25  C   UNL     1       2.688   7.330  18.107  0.00  0.00    +0.000 A 
ATOM     26  C   UNL     1       3.987   7.204  17.594  0.00  0.00    +0.000 A 
ATOM     27  C   UNL     1       4.472   5.955  17.213  0.00  0.00    +0.000 A 
ATOM     28  C   UNL     1       3.675   4.821  17.362  0.00  0.00    +0.000 A 
ATOM     29  C   UNL     1       2.408   4.927  17.934  0.00  0.00    +0.000 A 
ATOM     30  C   UNL     1       1.918   6.175  18.315  0.00  0.00    +0.000 A 
ENDBRANCH  24  25
ENDBRANCH  11  24
TORSDOF 3
ENDMDL
MODEL 3
REMARK VINA RESULT:      -8.8      2.859      4.727
REMARK  Name = 
REMARK  3 active torsions:
REMARK  status: ('A' for Active; 'I' for Inactive)
REMARK    1  A    between atoms: C_2  and  C_3
REMARK    2  A    between atoms: N_21  and  C_22
REMARK    3  A    between atoms: C_22  and  C_23
REMARK                            x       y       z     vdW  Elec       q    Type
REMARK                         _______ _______ _______ _____ _____    ______ ____
ROOT
ATOM      1  O   UNL     1       0.226  11.460  22.570  0.00  0.00    +0.000 OA
ATOM      2  C   UNL     1       0.283  11.396  21.342  0.00  0.00    +0.000 C 
ATOM      3  N   UNL     1       0.271  10.185  20.645  0.00  0.00    +0.000 N 
ATOM      4  C   UNL     1      -0.048   8.963  21.373  0.00  0.00    +0.000 C 
ATOM      5  C   UNL     1       1.116   7.981  21.313  0.00  0.00    +0.000 C 
ATOM      6  C   UNL     1       1.395   7.640  19.831  0.00  0.00    +0.000 C 
ATOM      7  C   UNL     1       1.843   8.974  19.173  0.00  0.00    +0.000 C 
ATOM      8  C   UNL     1       2.305   8.788  17.732  0.00  0.00    +0.000 C 
ATOM      9  C   UNL     1       3.388   7.727  17.705  0.00  0.00    +0.000 C 
ATOM     10  C   UNL     1       2.851   6.422  18.278  0.00  0.00    +0.000 C 
ATOM     11  N   UNL     1       2.377   6.541  19.676  0.00  0.00    +0.000 NA
ATOM     12  C   UNL     1       0.708  10.006  19.257  0.00  0.00    +0.000 C 
ENDROOT
BRANCH   2  13
ATOM     13  C   UNL     1       0.358  12.684  20.586  0.00  0.00    +0.000 A 
ATOM     14  C   UNL     1      -0.820  13.199  20.016  0.00  0.00    +0.000 A 
ATOM     15  C   UNL     1      -0.760  14.395  19.292  0.00  0.00    +0.000 A 
ATOM     16  C   UNL     1       0.474  14.987  19.181  0.00  0.00    +0.000 A 
ATOM     17  O   UNL     1       0.775  16.164  18.530  0.00  0.00    +0.000 OA
ATOM     18  C   UNL     1       2.161  16.261  18.756  0.00  0.00    +0.000 A 
ATOM     19  O   UNL     1       2.849  17.182  18.348  0.00  0.00    +0.000 OA
ATOM     20  N   UNL     1       2.625  15.199  19.485  0.00  0.00    +0.000 N 
ATOM     21  C   UNL     1       1.571  14.391  19.760  0.00  0.00    +0.000 A 
ATOM     22  N   UNL     1       1.588  13.258  20.455  0.00  0.00    +0.000 NA
ATOM     23  H   UNL     1       3.581  15.049  19.761  0.00  0.00    +0.000 HD
ENDBRANCH   2  13
BRANCH  11  24
ATOM     24  C   UNL     1       1.778   5.238  20.094  0.00  0.00    +0.000 C 
BRANCH  24  25
ATOM     25  C   UNL     1       2.436   4.047  19.424  0.00  0.00    +0.000 A 
ATOM     26  C   UNL     1       1.776   3.381  18.381  0.00  0.00    +0.000 A 
ATOM     27  C   UNL     1       2.264   2.165  17.905  0.00  0.00    +0.000 A 
ATOM     28  C   UNL     1       3.424   1.618  18.451  0.00  0.00    +0.000 A 
ATOM     29  C   UNL     1       4.124   2.306  19.441  0.00  0.00    +0.000 A 
ATOM     30  C   UNL     1       3.639   3.522  19.920  0.00  0.00    +0.000 A 
ENDBRANCH  24  25
ENDBRANCH  11  24
TORSDOF 3
ENDMDL
MODEL 4
REMARK VINA RESULT:      -8.6      2.774      4.671
REMARK  Name = 
REMARK  3 active torsions:
REMARK  status: ('A' for Active; 'I' for Inactive)
REMARK    1  A    between atoms: C_2  and  C_3
REMARK    2  A    between atoms: N_21  and  C_22
REMARK    3  A    between atoms: C_22  and  C_23
REMARK                            x       y       z     vdW  Elec       q    Type
REMARK                         _______ _______ _______ _____ _____    ______ ____
ROOT
ATOM      1  O   UNL     1       0.312  11.545  22.408  0.00  0.00    +0.000 OA
ATOM      2  C   UNL     1       0.389  11.467  21.182  0.00  0.00    +0.000 C 
ATOM      3  N   UNL     1       0.358  10.251  20.496  0.00  0.00    +0.000 N 
ATOM      4  C   UNL     1      -0.005   9.044  21.230  0.00  0.00    +0.000 C 
ATOM      5  C   UNL     1       1.134   8.032  21.200  0.00  0.00    +0.000 C 
ATOM      6  C   UNL     1       1.431   7.669  19.726  0.00  0.00    +0.000 C 
ATOM      7  C   UNL     1       1.924   8.985  19.064  0.00  0.00    +0.000 C 
ATOM      8  C   UNL     1       2.406   8.774  17.634  0.00  0.00    +0.000 C 
ATOM      9  C   UNL     1       3.462   7.685  17.635  0.00  0.00    +0.000 C 
ATOM     10  C   UNL     1       2.882   6.400  18.212  0.00  0.00    +0.000 C 
ATOM     11  N   UNL     1       2.387   6.544  19.599  0.00  0.00    +0.000 NA
ATOM     12  C   UNL     1       0.815  10.047  19.118  0.00  0.00    +0.000 C 
ENDROOT
BRANCH   2  13
ATOM     13  C   UNL     1       0.510  12.745  20.415  0.00  0.00    +0.000 A 
ATOM     14  C   UNL     1       1.757  13.079  19.856  0.00  0.00    +0.000 A 
ATOM     15  C   UNL     1       1.887  14.280  19.150  0.00  0.00    +0.000 A 
ATOM     16  C   UNL     1       0.765  15.067  19.059  0.00  0.00    +0.000 A 
ATOM     17  O   UNL     1       0.651  16.278  18.412  0.00  0.00    +0.000 OA
ATOM     18  C   UNL     1      -0.699  16.595  18.651  0.00  0.00    +0.000 A 
ATOM     19  O   UNL     1      -1.238  17.608  18.238  0.00  0.00    +0.000 OA
ATOM     20  N   UNL     1      -1.317  15.628  19.397  0.00  0.00    +0.000 N 
ATOM     21  C   UNL     1      -0.404  14.659  19.660  0.00  0.00    +0.000 A 
ATOM     22  N   UNL     1      -0.598  13.538  20.346  0.00  0.00    +0.000 NA
ATOM     23  H   UNL     1      -2.276  15.641  19.698  0.00  0.00    +0.000 HD
ENDBRANCH   2  13
BRANCH  11  24
ATOM     24  C   UNL     1       1.747   5.261  20.019  0.00  0.00    +0.000 C 
BRANCH  24  25
ATOM     25  C   UNL     1       2.409   4.045  19.400  0.00  0.00    +0.000 A 
ATOM     26  C   UNL     1       1.789   3.379  18.334  0.00  0.00    +0.000 A 
ATOM     27  C   UNL     1       2.272   2.145  17.902  0.00  0.00    +0.000 A 
ATOM     28  C   UNL     1       3.388   1.578  18.516  0.00  0.00    +0.000 A 
ATOM     29  C   UNL     1       4.052   2.265  19.531  0.00  0.00    +0.000 A 
ATOM     30  C   UNL     1       3.572   3.499  19.967  0.00  0.00    +0.000 A 
ENDBRANCH  24  25
ENDBRANCH  11  24
TORSDOF 3
ENDMDL
MODEL 5
REMARK VINA RESULT:      -8.6      3.204      9.547
REMARK  Name = 
REMARK  3 active torsions:
REMARK  status: ('A' for Active; 'I' for Inactive)
REMARK    1  A    between atoms: C_2  and  C_3
REMARK    2  A    between atoms: N_21  and  C_22
REMARK    3  A    between atoms: C_22  and  C_23
REMARK                            x       y       z     vdW  Elec       q    Type
REMARK                         _______ _______ _______ _____ _____    ______ ____
ROOT
ATOM      1  O   UNL     1       1.724   8.271  21.919  0.00  0.00    +0.000 OA
ATOM      2  C   UNL     1       1.563   8.462  20.713  0.00  0.00    +0.000 C 
ATOM      3  N   UNL     1       0.941   9.604  20.202  0.00  0.00    +0.000 N 
ATOM      4  C   UNL     1       0.674  10.717  21.105  0.00  0.00    +0.000 C 
ATOM      5  C   UNL     1      -0.821  11.002  21.182  0.00  0.00    +0.000 C 
ATOM      6  C   UNL     1      -1.327  11.356  19.764  0.00  0.00    +0.000 C 
ATOM      7  C   UNL     1      -1.114  10.074  18.913  0.00  0.00    +0.000 C 
ATOM      8  C   UNL     1      -1.701  10.199  17.512  0.00  0.00    +0.000 C 
ATOM      9  C   UNL     1      -3.162  10.588  17.633  0.00  0.00    +0.000 C 
ATOM     10  C   UNL     1      -3.289  11.899  18.397  0.00  0.00    +0.000 C 
ATOM     11  N   UNL     1      -2.726  11.844  19.766  0.00  0.00    +0.000 NA
ATOM     12  C   UNL     1       0.382   9.728  18.853  0.00  0.00    +0.000 C 
ENDROOT
BRANCH   2  13
ATOM     13  C   UNL     1       2.072   7.415  19.774  0.00  0.00    +0.000 A 
ATOM     14  C   UNL     1       2.663   7.825  18.565  0.00  0.00    +0.000 A 
ATOM     15  C   UNL     1       3.128   6.855  17.671  0.00  0.00    +0.000 A 
ATOM     16  C   UNL     1       2.964   5.543  18.044  0.00  0.00    +0.000 A 
ATOM     17  O   UNL     1       3.348   4.425  17.337  0.00  0.00    +0.000 OA
ATOM     18  C   UNL     1       2.933   3.394  18.200  0.00  0.00    +0.000 A 
ATOM     19  O   UNL     1       3.091   2.208  17.960  0.00  0.00    +0.000 OA
ATOM     20  N   UNL     1       2.340   3.892  19.328  0.00  0.00    +0.000 N 
ATOM     21  C   UNL     1       2.354   5.246  19.241  0.00  0.00    +0.000 A 
ATOM     22  N   UNL     1       1.886   6.113  20.133  0.00  0.00    +0.000 NA
ATOM     23  H   UNL     1       1.958   3.346  20.082  0.00  0.00    +0.000 HD
ENDBRANCH   2  13
BRANCH  11  24
ATOM     24  C   UNL     1      -2.808  13.205  20.376  0.00  0.00    +0.000 C 
BRANCH  24  25
ATOM     25  C   UNL     1      -3.697  13.246  21.604  0.00  0.00    +0.000 A 
ATOM     26  C   UNL     1      -3.121  13.288  22.882  0.00  0.00    +0.000 A 
ATOM     27  C   UNL     1      -3.912  13.108  24.014  0.00  0.00    +0.000 A 
ATOM     28  C   UNL     1      -5.286  12.908  23.881  0.00  0.00    +0.000 A 
ATOM     29  C   UNL     1      -5.877  12.933  22.619  0.00  0.00    +0.000 A 
ATOM     30  C   UNL     1      -5.089  13.111  21.484  0.00  0.00    +0.000 A 
ENDBRANCH  24  25
ENDBRANCH  11  24
TORSDOF 3
ENDMDL
MODEL 6
REMARK VINA RESULT:      -8.6      3.456      9.668
REMARK  Name = 
REMARK  3 active torsions:
REMARK  status: ('A' for Active; 'I' for Inactive)
REMARK    1  A    between atoms: C_2  and  C_3
REMARK    2  A    between atoms: N_21  and  C_22
REMARK    3  A    between atoms: C_22  and  C_23
REMARK                            x       y       z     vdW  Elec       q    Type
REMARK                         _______ _______ _______ _____ _____    ______ ____
ROOT
ATOM      1  O   UNL     1       1.582   8.511  21.660  0.00  0.00    +0.000 OA
ATOM      2  C   UNL     1       1.462   8.702  20.450  0.00  0.00    +0.000 C 
ATOM      3  N   UNL     1       0.741   9.774  19.920  0.00  0.00    +0.000 N 
ATOM      4  C   UNL     1       0.304  10.835  20.820  0.00  0.00    +0.000 C 
ATOM      5  C   UNL     1      -1.215  10.949  20.821  0.00  0.00    +0.000 C 
ATOM      6  C   UNL     1      -1.686  11.267  19.383  0.00  0.00    +0.000 C 
ATOM      7  C   UNL     1      -1.286  10.032  18.531  0.00  0.00    +0.000 C 
ATOM      8  C   UNL     1      -1.812  10.113  17.102  0.00  0.00    +0.000 C 
ATOM      9  C   UNL     1      -3.312  10.333  17.151  0.00  0.00    +0.000 C 
ATOM     10  C   UNL     1      -3.625  11.609  17.922  0.00  0.00    +0.000 C 
ATOM     11  N   UNL     1      -3.130  11.595  19.317  0.00  0.00    +0.000 NA
ATOM     12  C   UNL     1       0.240   9.858  18.544  0.00  0.00    +0.000 C 
ENDROOT
BRANCH   2  13
ATOM     13  C   UNL     1       2.133   7.735  19.528  0.00  0.00    +0.000 A 
ATOM     14  C   UNL     1       2.660   8.215  18.315  0.00  0.00    +0.000 A 
ATOM     15  C   UNL     1       3.276   7.318  17.437  0.00  0.00    +0.000 A 
ATOM     16  C   UNL     1       3.315   6.002  17.827  0.00  0.00    +0.000 A 
ATOM     17  O   UNL     1       3.873   4.948  17.137  0.00  0.00    +0.000 OA
ATOM     18  C   UNL     1       3.619   3.876  18.013  0.00  0.00    +0.000 A 
ATOM     19  O   UNL     1       3.961   2.726  17.790  0.00  0.00    +0.000 OA
ATOM     20  N   UNL     1       2.948   4.291  19.132  0.00  0.00    +0.000 N 
ATOM     21  C   UNL     1       2.753   5.629  19.027  0.00  0.00    +0.000 A 
ATOM     22  N   UNL     1       2.150   6.424  19.904  0.00  0.00    +0.000 NA
ATOM     23  H   UNL     1       2.652   3.703  19.892  0.00  0.00    +0.000 HD
ENDBRANCH   2  13
BRANCH  11  24
ATOM     24  C   UNL     1      -3.396  12.927  19.937  0.00  0.00    +0.000 C 
BRANCH  24  25
ATOM     25  C   UNL     1      -4.327  12.844  21.131  0.00  0.00    +0.000 A 
ATOM     26  C   UNL     1      -5.704  12.668  20.932  0.00  0.00    +0.000 A 
ATOM     27  C   UNL     1      -6.590  12.806  21.998  0.00  0.00    +0.000 A 
ATOM     28  C   UNL     1      -6.108  13.099  23.273  0.00  0.00    +0.000 A 
ATOM     29  C   UNL     1      -4.736  13.209  23.494  0.00  0.00    +0.000 A 
ATOM     30  C   UNL     1      -3.846  13.072  22.430  0.00  0.00    +0.000 A 
ENDBRANCH  24  25
ENDBRANCH  11  24
TORSDOF 3
ENDMDL
MODEL 7
REMARK VINA RESULT:      -8.5      1.310      1.886
REMARK  Name = 
REMARK  3 active torsions:
REMARK  status: ('A' for Active; 'I' for Inactive)
REMARK    1  A    between atoms: C_2  and  C_3
REMARK    2  A    between atoms: N_21  and  C_22
REMARK    3  A    between atoms: C_22  and  C_23
REMARK                            x       y       z     vdW  Elec       q    Type
REMARK                         _______ _______ _______ _____ _____    ______ ____
ROOT
ATOM      1  O   UNL     1       2.169   9.635  17.106  0.00  0.00    +0.000 OA
ATOM      2  C   UNL     1       1.869   9.216  18.224  0.00  0.00    +0.000 C 
ATOM      3  N   UNL     1       2.520   8.139  18.830  0.00  0.00    +0.000 N 
ATOM      4  C   UNL     1       3.747   7.633  18.224  0.00  0.00    +0.000 C 
ATOM      5  C   UNL     1       3.583   6.174  17.814  0.00  0.00    +0.000 C 
ATOM      6  C   UNL     1       3.252   5.344  19.076  0.00  0.00    +0.000 C 
ATOM      7  C   UNL     1       1.878   5.872  19.573  0.00  0.00    +0.000 C 
ATOM      8  C   UNL     1       1.325   5.055  20.735  0.00  0.00    +0.000 C 
ATOM      9  C   UNL     1       1.280   3.596  20.322  0.00  0.00    +0.000 C 
ATOM     10  C   UNL     1       2.674   3.122  19.937  0.00  0.00    +0.000 C 
ATOM     11  N   UNL     1       3.271   3.885  18.817  0.00  0.00    +0.000 NA
ATOM     12  C   UNL     1       1.993   7.356  19.952  0.00  0.00    +0.000 C 
ENDROOT
BRANCH   2  13
ATOM     13  C   UNL     1       0.762   9.912  18.948  0.00  0.00    +0.000 A 
ATOM     14  C   UNL     1      -0.471  10.079  18.292  0.00  0.00    +0.000 A 
ATOM     15  C   UNL     1      -1.510  10.743  18.954  0.00  0.00    +0.000 A 
ATOM     16  C   UNL     1      -1.241  11.201  20.220  0.00  0.00    +0.000 A 
ATOM     17  O   UNL     1      -2.104  11.870  21.061  0.00  0.00    +0.000 OA
ATOM     18  C   UNL     1      -1.291  12.071  22.192  0.00  0.00    +0.000 A 
ATOM     19  O   UNL     1      -1.670  12.635  23.205  0.00  0.00    +0.000 OA
ATOM     20  N   UNL     1      -0.036  11.556  22.005  0.00  0.00    +0.000 N 
ATOM     21  C   UNL     1       0.006  11.004  20.766  0.00  0.00    +0.000 A 
ATOM     22  N   UNL     1       1.037  10.388  20.196  0.00  0.00    +0.000 NA
ATOM     23  H   UNL     1       0.718  11.588  22.670  0.00  0.00    +0.000 HD
ENDBRANCH   2  13
BRANCH  11  24
ATOM     24  C   UNL     1       4.670   3.408  18.599  0.00  0.00    +0.000 C 
BRANCH  24  25
ATOM     25  C   UNL     1       5.311   4.013  17.365  0.00  0.00    +0.000 A 
ATOM     26  C   UNL     1       4.740   3.795  16.104  0.00  0.00    +0.000 A 
ATOM     27  C   UNL     1       5.430   4.158  14.949  0.00  0.00    +0.000 A 
ATOM     28  C   UNL     1       6.684   4.759  15.045  0.00  0.00    +0.000 A 
ATOM     29  C   UNL     1       7.230   5.042  16.297  0.00  0.00    +0.000 A 
ATOM     30  C   UNL     1       6.543   4.679  17.454  0.00  0.00    +0.000 A 
ENDBRANCH  24  25
ENDBRANCH  11  24
TORSDOF 3
ENDMDL
MODEL 8
REMARK VINA RESULT:      -8.5      3.344      8.273
REMARK  Name = 
REMARK  3 active torsions:
REMARK  status: ('A' for Active; 'I' for Inactive)
REMARK    1  A    between atoms: C_2  and  C_3
REMARK    2  A    between atoms: N_21  and  C_22
REMARK    3  A    between atoms: C_22  and  C_23
REMARK                            x       y       z     vdW  Elec       q    Type
REMARK                         _______ _______ _______ _____ _____    ______ ____
ROOT
ATOM      1  O   UNL     1       3.868   7.823  17.205  0.00  0.00    +0.000 OA
ATOM      2  C   UNL     1       2.967   7.373  17.913  0.00  0.00    +0.000 C 
ATOM      3  N   UNL     1       1.903   8.154  18.372  0.00  0.00    +0.000 N 
ATOM      4  C   UNL     1       1.723   9.488  17.812  0.00  0.00    +0.000 C 
ATOM      5  C   UNL     1       1.826  10.548  18.903  0.00  0.00    +0.000 C 
ATOM      6  C   UNL     1       0.726  10.278  19.956  0.00  0.00    +0.000 C 
ATOM      7  C   UNL     1       1.075   8.897  20.577  0.00  0.00    +0.000 C 
ATOM      8  C   UNL     1       0.168   8.540  21.750  0.00  0.00    +0.000 C 
ATOM      9  C   UNL     1       0.219   9.669  22.762  0.00  0.00    +0.000 C 
ATOM     10  C   UNL     1      -0.222  10.972  22.108  0.00  0.00    +0.000 C 
ATOM     11  N   UNL     1       0.615  11.369  20.953  0.00  0.00    +0.000 NA
ATOM     12  C   UNL     1       1.026   7.808  19.495  0.00  0.00    +0.000 C 
ENDROOT
BRANCH   2  13
ATOM     13  C   UNL     1       3.032   5.925  18.277  0.00  0.00    +0.000 A 
ATOM     14  C   UNL     1       1.964   5.088  17.906  0.00  0.00    +0.000 A 
ATOM     15  C   UNL     1       2.006   3.734  18.254  0.00  0.00    +0.000 A 
ATOM     16  C   UNL     1       3.108   3.312  18.957  0.00  0.00    +0.000 A 
ATOM     17  O   UNL     1       3.372   2.034  19.399  0.00  0.00    +0.000 OA
ATOM     18  C   UNL     1       4.615   2.210  20.034  0.00  0.00    +0.000 A 
ATOM     19  O   UNL     1       5.233   1.305  20.571  0.00  0.00    +0.000 OA
ATOM     20  N   UNL     1       5.033   3.512  19.967  0.00  0.00    +0.000 N 
ATOM     21  C   UNL     1       4.092   4.216  19.290  0.00  0.00    +0.000 A 
ATOM     22  N   UNL     1       4.115   5.512  18.996  0.00  0.00    +0.000 NA
ATOM     23  H   UNL     1       5.885   3.876  20.357  0.00  0.00    +0.000 HD
ENDBRANCH   2  13
BRANCH  11  24
ATOM     24  C   UNL     1       0.028  12.593  20.330  0.00  0.00    +0.000 C 
BRANCH  24  25
ATOM     25  C   UNL     1       1.058  13.679  20.087  0.00  0.00    +0.000 A 
ATOM     26  C   UNL     1       0.937  14.518  18.970  0.00  0.00    +0.000 A 
ATOM     27  C   UNL     1       1.981  15.371  18.617  0.00  0.00    +0.000 A 
ATOM     28  C   UNL     1       3.143  15.408  19.387  0.00  0.00    +0.000 A 
ATOM     29  C   UNL     1       3.245  14.627  20.537  0.00  0.00    +0.000 A 
ATOM     30  C   UNL     1       2.203  13.773  20.894  0.00  0.00    +0.000 A 
ENDBRANCH  24  25
ENDBRANCH  11  24
TORSDOF 3
ENDMDL
MODEL 9
REMARK VINA RESULT:      -8.4      3.234      9.440
REMARK  Name = 
REMARK  3 active torsions:
REMARK  status: ('A' for Active; 'I' for Inactive)
REMARK    1  A    between atoms: C_2  and  C_3
REMARK    2  A    between atoms: N_21  and  C_22
REMARK    3  A    between atoms: C_22  and  C_23
REMARK                            x       y       z     vdW  Elec       q    Type
REMARK                         _______ _______ _______ _____ _____    ______ ____
ROOT
ATOM      1  O   UNL     1       1.845   7.928  21.578  0.00  0.00    +0.000 OA
ATOM      2  C   UNL     1       1.742   8.168  20.374  0.00  0.00    +0.000 C 
ATOM      3  N   UNL     1       1.112   9.312  19.881  0.00  0.00    +0.000 N 
ATOM      4  C   UNL     1       0.762  10.375  20.815  0.00  0.00    +0.000 C 
ATOM      5  C   UNL     1      -0.744  10.612  20.823  0.00  0.00    +0.000 C 
ATOM      6  C   UNL     1      -1.185  11.015  19.396  0.00  0.00    +0.000 C 
ATOM      7  C   UNL     1      -0.886   9.779  18.504  0.00  0.00    +0.000 C 
ATOM      8  C   UNL     1      -1.402   9.949  17.079  0.00  0.00    +0.000 C 
ATOM      9  C   UNL     1      -2.879  10.288  17.138  0.00  0.00    +0.000 C 
ATOM     10  C   UNL     1      -3.088  11.560  17.950  0.00  0.00    +0.000 C 
ATOM     11  N   UNL     1      -2.598  11.460  19.343  0.00  0.00    +0.000 NA
ATOM     12  C   UNL     1       0.621   9.481  18.510  0.00  0.00    +0.000 C 
ENDROOT
BRANCH   2  13
ATOM     13  C   UNL     1       2.334   7.180  19.420  0.00  0.00    +0.000 A 
ATOM     14  C   UNL     1       1.936   5.834  19.512  0.00  0.00    +0.000 A 
ATOM     15  C   UNL     1       2.494   4.898  18.636  0.00  0.00    +0.000 A 
ATOM     16  C   UNL     1       3.417   5.370  17.735  0.00  0.00    +0.000 A 
ATOM     17  O   UNL     1       4.088   4.642  16.776  0.00  0.00    +0.000 OA
ATOM     18  C   UNL     1       4.874   5.640  16.169  0.00  0.00    +0.000 A 
ATOM     19  O   UNL     1       5.636   5.428  15.240  0.00  0.00    +0.000 OA
ATOM     20  N   UNL     1       4.671   6.862  16.752  0.00  0.00    +0.000 N 
ATOM     21  C   UNL     1       3.754   6.704  17.739  0.00  0.00    +0.000 A 
ATOM     22  N   UNL     1       3.268   7.645  18.543  0.00  0.00    +0.000 NA
ATOM     23  H   UNL     1       5.127   7.720  16.493  0.00  0.00    +0.000 HD
ENDBRANCH   2  13
BRANCH  11  24
ATOM     24  C   UNL     1      -2.755  12.789  20.006  0.00  0.00    +0.000 C 
BRANCH  24  25
ATOM     25  C   UNL     1      -3.678  12.740  21.208  0.00  0.00    +0.000 A 
ATOM     26  C   UNL     1      -5.067  12.806  21.025  0.00  0.00    +0.000 A 
ATOM     27  C   UNL     1      -5.912  12.980  22.119  0.00  0.00    +0.000 A 
ATOM     28  C   UNL     1      -5.379  13.067  23.405  0.00  0.00    +0.000 A 
ATOM     29  C   UNL     1      -4.006  12.934  23.603  0.00  0.00    +0.000 A 
ATOM     30  C   UNL     1      -3.158  12.761  22.511  0.00  0.00    +0.000 A 
ENDBRANCH  24  25
ENDBRANCH  11  24
TORSDOF 3
ENDMDL
