MODEL 1
REMARK VINA RESULT:      -8.5      0.000      0.000
REMARK  Name = 
REMARK  5 active torsions:
REMARK  status: ('A' for Active; 'I' for Inactive)
REMARK    1  A    between atoms: C_2  and  C_3
REMARK    2  A    between atoms: C_3  and  C_4
REMARK    3  A    between atoms: N_7  and  C_8
REMARK    4  A    between atoms: N_15  and  C_16
REMARK    5  A    between atoms: C_20  and  N_21
REMARK                            x       y       z     vdW  Elec       q    Type
REMARK                         _______ _______ _______ _____ _____    ______ ____
ROOT
ATOM      1  O   UNL     1       2.253   8.073  19.312  0.00  0.00    +0.000 OA
ATOM      2  C   UNL     1       1.772   7.824  20.412  0.00  0.00    +0.000 C 
ATOM      3  N   UNL     1       1.674   6.570  20.999  0.00  0.00    +0.000 N 
ATOM      4  H   UNL     1       1.059   6.486  21.797  0.00  0.00    +0.000 HD
ENDROOT
BRANCH   3   5
ATOM      5  C   UNL     1       2.256   5.373  20.521  0.00  0.00    +0.000 A 
ATOM      6  C   UNL     1       1.787   4.108  20.867  0.00  0.00    +0.000 A 
ATOM      7  C   UNL     1       2.406   2.971  20.359  0.00  0.00    +0.000 A 
ATOM      8  C   UNL     1       3.492   3.087  19.489  0.00  0.00    +0.000 A 
ATOM      9  C   UNL     1       3.975   4.340  19.097  0.00  0.00    +0.000 A 
ATOM     10  C   UNL     1       3.337   5.480  19.628  0.00  0.00    +0.000 A 
BRANCH   9  11
ATOM     11  N   UNL     1       5.066   4.467  18.189  0.00  0.00    +0.000 N 
ATOM     12  C   UNL     1       4.915   4.333  16.759  0.00  0.00    +0.000 C 
ATOM     13  C   UNL     1       6.328   4.156  16.244  0.00  0.00    +0.000 C 
ATOM     14  C   UNL     1       7.166   4.942  17.230  0.00  0.00    +0.000 C 
ATOM     15  C   UNL     1       6.382   4.837  18.516  0.00  0.00    +0.000 C 
ATOM     16  O   UNL     1       6.871   5.100  19.604  0.00  0.00    +0.000 OA
ENDBRANCH   9  11
ENDBRANCH   3   5
BRANCH   2  17
ATOM     17  C   UNL     1       1.193   8.935  21.268  0.00  0.00    +0.000 C 
BRANCH  17  18
ATOM     18  C   UNL     1       0.269   9.836  20.530  0.00  0.00    +0.000 A 
ATOM     19  C   UNL     1      -0.062  11.187  20.765  0.00  0.00    +0.000 A 
ATOM     20  N   UNL     1      -0.948  11.661  19.885  0.00  0.00    +0.000 NA
ATOM     21  N   UNL     1      -1.253  10.605  19.091  0.00  0.00    +0.000 N 
ATOM     22  C   UNL     1      -0.517   9.495  19.450  0.00  0.00    +0.000 A 
BRANCH  21  23
ATOM     23  C   UNL     1      -2.214  10.707  18.045  0.00  0.00    +0.000 A 
ATOM     24  C   UNL     1      -3.336  11.533  18.209  0.00  0.00    +0.000 A 
ATOM     25  C   UNL     1      -4.281  11.643  17.187  0.00  0.00    +0.000 A 
ATOM     26  C   UNL     1      -4.118  10.927  16.001  0.00  0.00    +0.000 A 
ATOM     27  C   UNL     1      -3.010  10.100  15.834  0.00  0.00    +0.000 A 
ATOM     28  C   UNL     1      -2.058   9.989  16.851  0.00  0.00    +0.000 A 
ENDBRANCH  21  23
ENDBRANCH  17  18
ENDBRANCH   2  17
TORSDOF 5
ENDMDL
MODEL 2
REMARK VINA RESULT:      -8.5      6.732     10.127
REMARK  Name = 
REMARK  5 active torsions:
REMARK  status: ('A' for Active; 'I' for Inactive)
REMARK    1  A    between atoms: C_2  and  C_3
REMARK    2  A    between atoms: C_3  and  C_4
REMARK    3  A    between atoms: N_7  and  C_8
REMARK    4  A    between atoms: N_15  and  C_16
REMARK    5  A    between atoms: C_20  and  N_21
REMARK                            x       y       z     vdW  Elec       q    Type
REMARK                         _______ _______ _______ _____ _____    ______ ____
ROOT
ATOM      1  O   UNL     1       8.783   8.031  19.211  0.00  0.00    +0.000 OA
ATOM      2  C   UNL     1       8.308   8.623  18.248  0.00  0.00    +0.000 C 
ATOM      3  N   UNL     1       8.382   9.987  18.006  0.00  0.00    +0.000 N 
ATOM      4  H   UNL     1       7.759  10.360  17.302  0.00  0.00    +0.000 HD
ENDROOT
BRANCH   3   5
ATOM      5  C   UNL     1       9.154  10.926  18.727  0.00  0.00    +0.000 A 
ATOM      6  C   UNL     1       9.552  10.730  20.048  0.00  0.00    +0.000 A 
ATOM      7  C   UNL     1      10.312  11.696  20.698  0.00  0.00    +0.000 A 
ATOM      8  C   UNL     1      10.695  12.861  20.031  0.00  0.00    +0.000 A 
ATOM      9  C   UNL     1      10.338  13.082  18.696  0.00  0.00    +0.000 A 
ATOM     10  C   UNL     1       9.562  12.094  18.057  0.00  0.00    +0.000 A 
BRANCH   9  11
ATOM     11  N   UNL     1      10.747  14.257  18.000  0.00  0.00    +0.000 N 
ATOM     12  C   UNL     1      12.065  14.412  17.433  0.00  0.00    +0.000 C 
ATOM     13  C   UNL     1      12.183  15.895  17.150  0.00  0.00    +0.000 C 
ATOM     14  C   UNL     1      10.760  16.314  16.850  0.00  0.00    +0.000 C 
ATOM     15  C   UNL     1       9.933  15.355  17.673  0.00  0.00    +0.000 C 
ATOM     16  O   UNL     1       8.753  15.553  17.919  0.00  0.00    +0.000 OA
ENDBRANCH   9  11
ENDBRANCH   3   5
BRANCH   2  17
ATOM     17  C   UNL     1       7.538   7.864  17.182  0.00  0.00    +0.000 C 
BRANCH  17  18
ATOM     18  C   UNL     1       7.010   6.553  17.648  0.00  0.00    +0.000 A 
ATOM     19  C   UNL     1       7.695   5.418  18.126  0.00  0.00    +0.000 A 
ATOM     20  N   UNL     1       6.873   4.415  18.445  0.00  0.00    +0.000 NA
ATOM     21  N   UNL     1       5.633   4.864  18.125  0.00  0.00    +0.000 N 
ATOM     22  C   UNL     1       5.688   6.161  17.658  0.00  0.00    +0.000 A 
BRANCH  21  23
ATOM     23  C   UNL     1       4.478   4.047  18.281  0.00  0.00    +0.000 A 
ATOM     24  C   UNL     1       4.332   3.261  19.434  0.00  0.00    +0.000 A 
ATOM     25  C   UNL     1       3.200   2.459  19.597  0.00  0.00    +0.000 A 
ATOM     26  C   UNL     1       2.212   2.433  18.614  0.00  0.00    +0.000 A 
ATOM     27  C   UNL     1       2.352   3.206  17.464  0.00  0.00    +0.000 A 
ATOM     28  C   UNL     1       3.481   4.014  17.296  0.00  0.00    +0.000 A 
ENDBRANCH  21  23
ENDBRANCH  17  18
ENDBRANCH   2  17
TORSDOF 5
ENDMDL
MODEL 3
REMARK VINA RESULT:      -8.5      0.701      1.196
REMARK  Name = 
REMARK  5 active torsions:
REMARK  status: ('A' for Active; 'I' for Inactive)
REMARK    1  A    between atoms: C_2  and  C_3
REMARK    2  A    between atoms: C_3  and  C_4
REMARK    3  A    between atoms: N_7  and  C_8
REMARK    4  A    between atoms: N_15  and  C_16
REMARK    5  A    between atoms: C_20  and  N_21
REMARK                            x       y       z     vdW  Elec       q    Type
REMARK                         _______ _______ _______ _____ _____    ______ ____
ROOT
ATOM      1  O   UNL     1       2.133   8.231  18.945  0.00  0.00    +0.000 OA
ATOM      2  C   UNL     1       1.704   8.079  20.083  0.00  0.00    +0.000 C 
ATOM      3  N   UNL     1       1.676   6.889  20.796  0.00  0.00    +0.000 N 
ATOM      4  H   UNL     1       1.095   6.866  21.624  0.00  0.00    +0.000 HD
ENDROOT
BRANCH   3   5
ATOM      5  C   UNL     1       2.282   5.669  20.416  0.00  0.00    +0.000 A 
ATOM      6  C   UNL     1       1.783   4.423  20.788  0.00  0.00    +0.000 A 
ATOM      7  C   UNL     1       2.431   3.262  20.378  0.00  0.00    +0.000 A 
ATOM      8  C   UNL     1       3.574   3.335  19.580  0.00  0.00    +0.000 A 
ATOM      9  C   UNL     1       4.089   4.567  19.164  0.00  0.00    +0.000 A 
ATOM     10  C   UNL     1       3.423   5.731  19.595  0.00  0.00    +0.000 A 
BRANCH   9  11
ATOM     11  N   UNL     1       5.241   4.648  18.328  0.00  0.00    +0.000 N 
ATOM     12  C   UNL     1       5.185   4.465  16.897  0.00  0.00    +0.000 C 
ATOM     13  C   UNL     1       6.627   4.253  16.485  0.00  0.00    +0.000 C 
ATOM     14  C   UNL     1       7.408   5.064  17.498  0.00  0.00    +0.000 C 
ATOM     15  C   UNL     1       6.537   5.014  18.731  0.00  0.00    +0.000 C 
ATOM     16  O   UNL     1       6.956   5.309  19.840  0.00  0.00    +0.000 OA
ENDBRANCH   9  11
ENDBRANCH   3   5
BRANCH   2  17
ATOM     17  C   UNL     1       1.118   9.252  20.848  0.00  0.00    +0.000 C 
BRANCH  17  18
ATOM     18  C   UNL     1       0.320  10.177  19.999  0.00  0.00    +0.000 A 
ATOM     19  C   UNL     1       0.652  11.444  19.478  0.00  0.00    +0.000 A 
ATOM     20  N   UNL     1      -0.337  11.982  18.761  0.00  0.00    +0.000 NA
ATOM     21  N   UNL     1      -1.357  11.093  18.849  0.00  0.00    +0.000 N 
ATOM     22  C   UNL     1      -0.979   9.985  19.578  0.00  0.00    +0.000 A 
BRANCH  21  23
ATOM     23  C   UNL     1      -2.621  11.341  18.241  0.00  0.00    +0.000 A 
ATOM     24  C   UNL     1      -2.798  11.082  16.874  0.00  0.00    +0.000 A 
ATOM     25  C   UNL     1      -4.035  11.318  16.269  0.00  0.00    +0.000 A 
ATOM     26  C   UNL     1      -5.098  11.818  17.021  0.00  0.00    +0.000 A 
ATOM     27  C   UNL     1      -4.928  12.083  18.378  0.00  0.00    +0.000 A 
ATOM     28  C   UNL     1      -3.694  11.845  18.989  0.00  0.00    +0.000 A 
ENDBRANCH  21  23
ENDBRANCH  17  18
ENDBRANCH   2  17
TORSDOF 5
ENDMDL
MODEL 4
REMARK VINA RESULT:      -8.4      6.348      9.441
REMARK  Name = 
REMARK  5 active torsions:
REMARK  status: ('A' for Active; 'I' for Inactive)
REMARK    1  A    between atoms: C_2  and  C_3
REMARK    2  A    between atoms: C_3  and  C_4
REMARK    3  A    between atoms: N_7  and  C_8
REMARK    4  A    between atoms: N_15  and  C_16
REMARK    5  A    between atoms: C_20  and  N_21
REMARK                            x       y       z     vdW  Elec       q    Type
REMARK                         _______ _______ _______ _____ _____    ______ ____
ROOT
ATOM      1  O   UNL     1       8.454   7.523  18.823  0.00  0.00    +0.000 OA
ATOM      2  C   UNL     1       7.980   8.164  17.891  0.00  0.00    +0.000 C 
ATOM      3  N   UNL     1       8.024   9.542  17.737  0.00  0.00    +0.000 N 
ATOM      4  H   UNL     1       7.404   9.945  17.047  0.00  0.00    +0.000 HD
ENDROOT
BRANCH   3   5
ATOM      5  C   UNL     1       8.761  10.451  18.531  0.00  0.00    +0.000 A 
ATOM      6  C   UNL     1       9.205  10.153  19.817  0.00  0.00    +0.000 A 
ATOM      7  C   UNL     1       9.927  11.095  20.542  0.00  0.00    +0.000 A 
ATOM      8  C   UNL     1      10.224  12.339  19.984  0.00  0.00    +0.000 A 
ATOM      9  C   UNL     1       9.819  12.667  18.686  0.00  0.00    +0.000 A 
ATOM     10  C   UNL     1       9.084  11.700  17.970  0.00  0.00    +0.000 A 
BRANCH   9  11
ATOM     11  N   UNL     1      10.141  13.925  18.100  0.00  0.00    +0.000 N 
ATOM     12  C   UNL     1       9.516  15.162  18.506  0.00  0.00    +0.000 C 
ATOM     13  C   UNL     1       9.855  16.138  17.399  0.00  0.00    +0.000 C 
ATOM     14  C   UNL     1      11.199  15.655  16.899  0.00  0.00    +0.000 C 
ATOM     15  C   UNL     1      11.153  14.168  17.155  0.00  0.00    +0.000 C 
ATOM     16  O   UNL     1      11.934  13.389  16.630  0.00  0.00    +0.000 OA
ENDBRANCH   9  11
ENDBRANCH   3   5
BRANCH   2  17
ATOM     17  C   UNL     1       7.246   7.457  16.766  0.00  0.00    +0.000 C 
BRANCH  17  18
ATOM     18  C   UNL     1       6.382   6.338  17.229  0.00  0.00    +0.000 A 
ATOM     19  C   UNL     1       6.465   4.956  16.960  0.00  0.00    +0.000 A 
ATOM     20  N   UNL     1       5.495   4.256  17.552  0.00  0.00    +0.000 NA
ATOM     21  N   UNL     1       4.725   5.183  18.175  0.00  0.00    +0.000 N 
ATOM     22  C   UNL     1       5.252   6.447  18.010  0.00  0.00    +0.000 A 
BRANCH  21  23
ATOM     23  C   UNL     1       3.547   4.821  18.888  0.00  0.00    +0.000 A 
ATOM     24  C   UNL     1       3.022   5.693  19.854  0.00  0.00    +0.000 A 
ATOM     25  C   UNL     1       1.865   5.347  20.556  0.00  0.00    +0.000 A 
ATOM     26  C   UNL     1       1.229   4.132  20.304  0.00  0.00    +0.000 A 
ATOM     27  C   UNL     1       1.748   3.258  19.351  0.00  0.00    +0.000 A 
ATOM     28  C   UNL     1       2.903   3.600  18.642  0.00  0.00    +0.000 A 
ENDBRANCH  21  23
ENDBRANCH  17  18
ENDBRANCH   2  17
TORSDOF 5
ENDMDL
MODEL 5
REMARK VINA RESULT:      -8.3      2.371      4.139
REMARK  Name = 
REMARK  5 active torsions:
REMARK  status: ('A' for Active; 'I' for Inactive)
REMARK    1  A    between atoms: C_2  and  C_3
REMARK    2  A    between atoms: C_3  and  C_4
REMARK    3  A    between atoms: N_7  and  C_8
REMARK    4  A    between atoms: N_15  and  C_16
REMARK    5  A    between atoms: C_20  and  N_21
REMARK                            x       y       z     vdW  Elec       q    Type
REMARK                         _______ _______ _______ _____ _____    ______ ____
ROOT
ATOM      1  O   UNL     1       0.853   9.236  20.047  0.00  0.00    +0.000 OA
ATOM      2  C   UNL     1       1.061   9.779  18.967  0.00  0.00    +0.000 C 
ATOM      3  N   UNL     1       1.930   9.336  17.980  0.00  0.00    +0.000 N 
ATOM      4  H   UNL     1       2.167   9.994  17.250  0.00  0.00    +0.000 HD
ENDROOT
BRANCH   3   5
ATOM      5  C   UNL     1       2.611   8.096  17.957  0.00  0.00    +0.000 A 
ATOM      6  C   UNL     1       3.795   7.891  17.254  0.00  0.00    +0.000 A 
ATOM      7  C   UNL     1       4.412   6.645  17.276  0.00  0.00    +0.000 A 
ATOM      8  C   UNL     1       3.860   5.596  18.013  0.00  0.00    +0.000 A 
ATOM      9  C   UNL     1       2.687   5.770  18.754  0.00  0.00    +0.000 A 
ATOM     10  C   UNL     1       2.073   7.039  18.713  0.00  0.00    +0.000 A 
BRANCH   9  11
ATOM     11  N   UNL     1       2.131   4.711  19.529  0.00  0.00    +0.000 N 
ATOM     12  C   UNL     1       2.160   4.699  20.973  0.00  0.00    +0.000 C 
ATOM     13  C   UNL     1       1.829   3.269  21.346  0.00  0.00    +0.000 C 
ATOM     14  C   UNL     1       0.924   2.809  20.223  0.00  0.00    +0.000 C 
ATOM     15  C   UNL     1       1.401   3.615  19.039  0.00  0.00    +0.000 C 
ATOM     16  O   UNL     1       1.110   3.323  17.888  0.00  0.00    +0.000 OA
ENDBRANCH   9  11
ENDBRANCH   3   5
BRANCH   2  17
ATOM     17  C   UNL     1       0.351  11.071  18.607  0.00  0.00    +0.000 C 
BRANCH  17  18
ATOM     18  C   UNL     1      -1.097  10.895  18.318  0.00  0.00    +0.000 A 
ATOM     19  C   UNL     1      -1.752   9.940  17.513  0.00  0.00    +0.000 A 
ATOM     20  N   UNL     1      -3.076  10.106  17.489  0.00  0.00    +0.000 NA
ATOM     21  N   UNL     1      -3.303  11.215  18.238  0.00  0.00    +0.000 N 
ATOM     22  C   UNL     1      -2.124  11.699  18.765  0.00  0.00    +0.000 A 
BRANCH  21  23
ATOM     23  C   UNL     1      -4.613  11.745  18.413  0.00  0.00    +0.000 A 
ATOM     24  C   UNL     1      -5.012  12.212  19.674  0.00  0.00    +0.000 A 
ATOM     25  C   UNL     1      -6.294  12.737  19.854  0.00  0.00    +0.000 A 
ATOM     26  C   UNL     1      -7.185  12.794  18.783  0.00  0.00    +0.000 A 
ATOM     27  C   UNL     1      -6.798  12.326  17.529  0.00  0.00    +0.000 A 
ATOM     28  C   UNL     1      -5.516  11.803  17.341  0.00  0.00    +0.000 A 
ENDBRANCH  21  23
ENDBRANCH  17  18
ENDBRANCH   2  17
TORSDOF 5
ENDMDL
MODEL 6
REMARK VINA RESULT:      -8.3      1.041      1.326
REMARK  Name = 
REMARK  5 active torsions:
REMARK  status: ('A' for Active; 'I' for Inactive)
REMARK    1  A    between atoms: C_2  and  C_3
REMARK    2  A    between atoms: C_3  and  C_4
REMARK    3  A    between atoms: N_7  and  C_8
REMARK    4  A    between atoms: N_15  and  C_16
REMARK    5  A    between atoms: C_20  and  N_21
REMARK                            x       y       z     vdW  Elec       q    Type
REMARK                         _______ _______ _______ _____ _____    ______ ____
ROOT
ATOM      1  O   UNL     1       1.849   8.381  18.967  0.00  0.00    +0.000 OA
ATOM      2  C   UNL     1       1.557   8.206  20.145  0.00  0.00    +0.000 C 
ATOM      3  N   UNL     1       1.609   7.002  20.833  0.00  0.00    +0.000 N 
ATOM      4  H   UNL     1       1.130   6.962  21.722  0.00  0.00    +0.000 HD
ENDROOT
BRANCH   3   5
ATOM      5  C   UNL     1       2.163   5.790  20.359  0.00  0.00    +0.000 A 
ATOM      6  C   UNL     1       1.524   4.559  20.490  0.00  0.00    +0.000 A 
ATOM      7  C   UNL     1       2.127   3.405  20.000  0.00  0.00    +0.000 A 
ATOM      8  C   UNL     1       3.367   3.471  19.362  0.00  0.00    +0.000 A 
ATOM      9  C   UNL     1       4.027   4.692  19.188  0.00  0.00    +0.000 A 
ATOM     10  C   UNL     1       3.402   5.849  19.696  0.00  0.00    +0.000 A 
BRANCH   9  11
ATOM     11  N   UNL     1       5.281   4.772  18.514  0.00  0.00    +0.000 N 
ATOM     12  C   UNL     1       6.507   5.136  19.183  0.00  0.00    +0.000 C 
ATOM     13  C   UNL     1       7.468   5.464  18.059  0.00  0.00    +0.000 C 
ATOM     14  C   UNL     1       7.012   4.567  16.929  0.00  0.00    +0.000 C 
ATOM     15  C   UNL     1       5.531   4.417  17.177  0.00  0.00    +0.000 C 
ATOM     16  O   UNL     1       4.762   4.000  16.323  0.00  0.00    +0.000 OA
ENDBRANCH   9  11
ENDBRANCH   3   5
BRANCH   2  17
ATOM     17  C   UNL     1       1.068   9.364  20.997  0.00  0.00    +0.000 C 
BRANCH  17  18
ATOM     18  C   UNL     1       0.200  10.320  20.260  0.00  0.00    +0.000 A 
ATOM     19  C   UNL     1       0.265  11.726  20.177  0.00  0.00    +0.000 A 
ATOM     20  N   UNL     1      -0.704  12.244  19.419  0.00  0.00    +0.000 NA
ATOM     21  N   UNL     1      -1.456  11.181  19.038  0.00  0.00    +0.000 N 
ATOM     22  C   UNL     1      -0.919  10.005  19.519  0.00  0.00    +0.000 A 
BRANCH  21  23
ATOM     23  C   UNL     1      -2.628  11.338  18.245  0.00  0.00    +0.000 A 
ATOM     24  C   UNL     1      -3.794  11.864  18.822  0.00  0.00    +0.000 A 
ATOM     25  C   UNL     1      -4.946  12.025  18.050  0.00  0.00    +0.000 A 
ATOM     26  C   UNL     1      -4.946  11.660  16.703  0.00  0.00    +0.000 A 
ATOM     27  C   UNL     1      -3.794  11.132  16.126  0.00  0.00    +0.000 A 
ATOM     28  C   UNL     1      -2.636  10.971  16.891  0.00  0.00    +0.000 A 
ENDBRANCH  21  23
ENDBRANCH  17  18
ENDBRANCH   2  17
TORSDOF 5
ENDMDL
MODEL 7
REMARK VINA RESULT:      -8.2      6.761      9.735
REMARK  Name = 
REMARK  5 active torsions:
REMARK  status: ('A' for Active; 'I' for Inactive)
REMARK    1  A    between atoms: C_2  and  C_3
REMARK    2  A    between atoms: C_3  and  C_4
REMARK    3  A    between atoms: N_7  and  C_8
REMARK    4  A    between atoms: N_15  and  C_16
REMARK    5  A    between atoms: C_20  and  N_21
REMARK                            x       y       z     vdW  Elec       q    Type
REMARK                         _______ _______ _______ _____ _____    ______ ____
ROOT
ATOM      1  O   UNL     1       7.048   9.735  17.798  0.00  0.00    +0.000 OA
ATOM      2  C   UNL     1       8.078   9.082  17.923  0.00  0.00    +0.000 C 
ATOM      3  N   UNL     1       9.258   9.515  18.512  0.00  0.00    +0.000 N 
ATOM      4  H   UNL     1      10.084   8.957  18.343  0.00  0.00    +0.000 HD
ENDROOT
BRANCH   3   5
ATOM      5  C   UNL     1       9.445  10.722  19.225  0.00  0.00    +0.000 A 
ATOM      6  C   UNL     1       9.383  10.803  20.614  0.00  0.00    +0.000 A 
ATOM      7  C   UNL     1       9.578  12.024  21.250  0.00  0.00    +0.000 A 
ATOM      8  C   UNL     1       9.851  13.173  20.506  0.00  0.00    +0.000 A 
ATOM      9  C   UNL     1       9.947  13.127  19.111  0.00  0.00    +0.000 A 
ATOM     10  C   UNL     1       9.741  11.881  18.485  0.00  0.00    +0.000 A 
BRANCH   9  11
ATOM     11  N   UNL     1      10.251  14.291  18.346  0.00  0.00    +0.000 N 
ATOM     12  C   UNL     1       9.546  15.540  18.507  0.00  0.00    +0.000 C 
ATOM     13  C   UNL     1       9.913  16.344  17.277  0.00  0.00    +0.000 C 
ATOM     14  C   UNL     1      11.308  15.860  16.941  0.00  0.00    +0.000 C 
ATOM     15  C   UNL     1      11.312  14.434  17.435  0.00  0.00    +0.000 C 
ATOM     16  O   UNL     1      12.159  13.624  17.090  0.00  0.00    +0.000 OA
ENDBRANCH   9  11
ENDBRANCH   3   5
BRANCH   2  17
ATOM     17  C   UNL     1       8.156   7.661  17.395  0.00  0.00    +0.000 C 
BRANCH  17  18
ATOM     18  C   UNL     1       7.258   6.712  18.104  0.00  0.00    +0.000 A 
ATOM     19  C   UNL     1       7.515   5.873  19.208  0.00  0.00    +0.000 A 
ATOM     20  N   UNL     1       6.451   5.148  19.563  0.00  0.00    +0.000 NA
ATOM     21  N   UNL     1       5.494   5.462  18.655  0.00  0.00    +0.000 N 
ATOM     22  C   UNL     1       5.952   6.420  17.774  0.00  0.00    +0.000 A 
BRANCH  21  23
ATOM     23  C   UNL     1       4.210   4.847  18.677  0.00  0.00    +0.000 A 
ATOM     24  C   UNL     1       3.216   5.278  17.786  0.00  0.00    +0.000 A 
ATOM     25  C   UNL     1       1.956   4.677  17.797  0.00  0.00    +0.000 A 
ATOM     26  C   UNL     1       1.677   3.649  18.698  0.00  0.00    +0.000 A 
ATOM     27  C   UNL     1       2.657   3.220  19.590  0.00  0.00    +0.000 A 
ATOM     28  C   UNL     1       3.922   3.814  19.581  0.00  0.00    +0.000 A 
ENDBRANCH  21  23
ENDBRANCH  17  18
ENDBRANCH   2  17
TORSDOF 5
ENDMDL
MODEL 8
REMARK VINA RESULT:      -8.1      2.203      3.070
REMARK  Name = 
REMARK  5 active torsions:
REMARK  status: ('A' for Active; 'I' for Inactive)
REMARK    1  A    between atoms: C_2  and  C_3
REMARK    2  A    between atoms: C_3  and  C_4
REMARK    3  A    between atoms: N_7  and  C_8
REMARK    4  A    between atoms: N_15  and  C_16
REMARK    5  A    between atoms: C_20  and  N_21
REMARK                            x       y       z     vdW  Elec       q    Type
REMARK                         _______ _______ _______ _____ _____    ______ ____
ROOT
ATOM      1  O   UNL     1       1.810   8.274  19.159  0.00  0.00    +0.000 OA
ATOM      2  C   UNL     1       1.588   8.016  20.337  0.00  0.00    +0.000 C 
ATOM      3  N   UNL     1       1.660   6.764  20.930  0.00  0.00    +0.000 N 
ATOM      4  H   UNL     1       1.236   6.665  21.843  0.00  0.00    +0.000 HD
ENDROOT
BRANCH   3   5
ATOM      5  C   UNL     1       2.161   5.582  20.336  0.00  0.00    +0.000 A 
ATOM      6  C   UNL     1       1.517   4.351  20.429  0.00  0.00    +0.000 A 
ATOM      7  C   UNL     1       2.066   3.228  19.819  0.00  0.00    +0.000 A 
ATOM      8  C   UNL     1       3.258   3.328  19.099  0.00  0.00    +0.000 A 
ATOM      9  C   UNL     1       3.921   4.552  18.961  0.00  0.00    +0.000 A 
ATOM     10  C   UNL     1       3.350   5.676  19.591  0.00  0.00    +0.000 A 
BRANCH   9  11
ATOM     11  N   UNL     1       5.124   4.666  18.205  0.00  0.00    +0.000 N 
ATOM     12  C   UNL     1       5.158   4.553  16.766  0.00  0.00    +0.000 C 
ATOM     13  C   UNL     1       6.623   4.352  16.437  0.00  0.00    +0.000 C 
ATOM     14  C   UNL     1       7.340   5.107  17.536  0.00  0.00    +0.000 C 
ATOM     15  C   UNL     1       6.393   5.003  18.707  0.00  0.00    +0.000 C 
ATOM     16  O   UNL     1       6.740   5.241  19.854  0.00  0.00    +0.000 OA
ENDBRANCH   9  11
ENDBRANCH   3   5
BRANCH   2  17
ATOM     17  C   UNL     1       1.174   9.114  21.299  0.00  0.00    +0.000 C 
BRANCH  17  18
ATOM     18  C   UNL     1       0.592  10.307  20.627  0.00  0.00    +0.000 A 
ATOM     19  C   UNL     1      -0.624  10.450  19.927  0.00  0.00    +0.000 A 
ATOM     20  N   UNL     1      -0.802  11.684  19.450  0.00  0.00    +0.000 NA
ATOM     21  N   UNL     1       0.329  12.355  19.785  0.00  0.00    +0.000 N 
ATOM     22  C   UNL     1       1.178  11.549  20.514  0.00  0.00    +0.000 A 
BRANCH  21  23
ATOM     23  C   UNL     1       0.536  13.711  19.403  0.00  0.00    +0.000 A 
ATOM     24  C   UNL     1      -0.545  14.606  19.398  0.00  0.00    +0.000 A 
ATOM     25  C   UNL     1      -0.351  15.938  19.028  0.00  0.00    +0.000 A 
ATOM     26  C   UNL     1       0.918  16.385  18.657  0.00  0.00    +0.000 A 
ATOM     27  C   UNL     1       1.994  15.502  18.654  0.00  0.00    +0.000 A 
ATOM     28  C   UNL     1       1.807  14.168  19.027  0.00  0.00    +0.000 A 
ENDBRANCH  21  23
ENDBRANCH  17  18
ENDBRANCH   2  17
TORSDOF 5
ENDMDL
MODEL 9
REMARK VINA RESULT:      -8.1      6.374      9.543
REMARK  Name = 
REMARK  5 active torsions:
REMARK  status: ('A' for Active; 'I' for Inactive)
REMARK    1  A    between atoms: C_2  and  C_3
REMARK    2  A    between atoms: C_3  and  C_4
REMARK    3  A    between atoms: N_7  and  C_8
REMARK    4  A    between atoms: N_15  and  C_16
REMARK    5  A    between atoms: C_20  and  N_21
REMARK                            x       y       z     vdW  Elec       q    Type
REMARK                         _______ _______ _______ _____ _____    ______ ____
ROOT
ATOM      1  O   UNL     1       8.491   7.462  18.928  0.00  0.00    +0.000 OA
ATOM      2  C   UNL     1       8.070   8.063  17.946  0.00  0.00    +0.000 C 
ATOM      3  N   UNL     1       8.122   9.434  17.739  0.00  0.00    +0.000 N 
ATOM      4  H   UNL     1       7.541   9.806  17.000  0.00  0.00    +0.000 HD
ENDROOT
BRANCH   3   5
ATOM      5  C   UNL     1       8.812  10.376  18.536  0.00  0.00    +0.000 A 
ATOM      6  C   UNL     1       9.205  10.122  19.847  0.00  0.00    +0.000 A 
ATOM      7  C   UNL     1       9.882  11.096  20.574  0.00  0.00    +0.000 A 
ATOM      8  C   UNL     1      10.187  12.328  19.992  0.00  0.00    +0.000 A 
ATOM      9  C   UNL     1       9.833  12.610  18.668  0.00  0.00    +0.000 A 
ATOM     10  C   UNL     1       9.142  11.613  17.951  0.00  0.00    +0.000 A 
BRANCH   9  11
ATOM     11  N   UNL     1      10.163  13.856  18.058  0.00  0.00    +0.000 N 
ATOM     12  C   UNL     1       9.562  15.107  18.457  0.00  0.00    +0.000 C 
ATOM     13  C   UNL     1       9.895  16.063  17.331  0.00  0.00    +0.000 C 
ATOM     14  C   UNL     1      11.224  15.554  16.814  0.00  0.00    +0.000 C 
ATOM     15  C   UNL     1      11.161  14.071  17.093  0.00  0.00    +0.000 C 
ATOM     16  O   UNL     1      11.922  13.273  16.566  0.00  0.00    +0.000 OA
ENDBRANCH   9  11
ENDBRANCH   3   5
BRANCH   2  17
ATOM     17  C   UNL     1       7.401   7.308  16.811  0.00  0.00    +0.000 C 
BRANCH  17  18
ATOM     18  C   UNL     1       6.060   6.770  17.163  0.00  0.00    +0.000 A 
ATOM     19  C   UNL     1       4.808   7.416  17.213  0.00  0.00    +0.000 A 
ATOM     20  N   UNL     1       3.820   6.598  17.584  0.00  0.00    +0.000 NA
ATOM     21  N   UNL     1       4.425   5.411  17.838  0.00  0.00    +0.000 N 
ATOM     22  C   UNL     1       5.777   5.484  17.573  0.00  0.00    +0.000 A 
BRANCH  21  23
ATOM     23  C   UNL     1       3.694   4.284  18.309  0.00  0.00    +0.000 A 
ATOM     24  C   UNL     1       3.498   3.179  17.466  0.00  0.00    +0.000 A 
ATOM     25  C   UNL     1       2.786   2.067  17.921  0.00  0.00    +0.000 A 
ATOM     26  C   UNL     1       2.261   2.052  19.214  0.00  0.00    +0.000 A 
ATOM     27  C   UNL     1       2.446   3.147  20.054  0.00  0.00    +0.000 A 
ATOM     28  C   UNL     1       3.161   4.261  19.606  0.00  0.00    +0.000 A 
ENDBRANCH  21  23
ENDBRANCH  17  18
ENDBRANCH   2  17
TORSDOF 5
ENDMDL
