MODEL 1
REMARK VINA RESULT:      -7.7      0.000      0.000
REMARK  Name = 
REMARK  5 active torsions:
REMARK  status: ('A' for Active; 'I' for Inactive)
REMARK    1  A    between atoms: C_2  and  C_3
REMARK    2  A    between atoms: C_7  and  C_8
REMARK    3  A    between atoms: C_8  and  C_9
REMARK    4  A    between atoms: C_19  and  C_20
REMARK    5  A    between atoms: C_23  and  C_24
REMARK                            x       y       z     vdW  Elec       q    Type
REMARK                         _______ _______ _______ _____ _____    ______ ____
ROOT
ATOM      1  O   UNL     1       1.822  11.987  21.238  0.00  0.00    +0.000 OA
ATOM      2  C   UNL     1       0.890  11.443  20.645  0.00  0.00    +0.000 C 
ATOM      3  N   UNL     1      -0.399  11.967  20.728  0.00  0.00    +0.000 N 
ATOM      4  C   UNL     1      -0.639  13.137  21.564  0.00  0.00    +0.000 C 
ATOM      5  C   UNL     1      -2.012  12.896  22.163  0.00  0.00    +0.000 C 
ATOM      6  C   UNL     1      -2.780  12.162  21.062  0.00  0.00    +0.000 C 
ATOM      7  C   UNL     1      -1.679  11.380  20.310  0.00  0.00    +0.000 C 
ENDROOT
BRANCH   7   8
ATOM      8  C   UNL     1      -1.849  11.356  18.799  0.00  0.00    +0.000 A 
ATOM      9  N   UNL     1      -1.478  12.328  18.012  0.00  0.00    +0.000 NA
ATOM     10  N   UNL     1      -1.799  11.872  16.761  0.00  0.00    +0.000 N 
ATOM     11  C   UNL     1      -2.383  10.616  16.836  0.00  0.00    +0.000 A 
ATOM     12  O   UNL     1      -2.830   9.948  15.921  0.00  0.00    +0.000 OA
ATOM     13  N   UNL     1      -2.366  10.291  18.158  0.00  0.00    +0.000 N 
ATOM     14  H   UNL     1      -1.673  12.422  15.922  0.00  0.00    +0.000 HD
ATOM     15  H   UNL     1      -2.798   9.473  18.555  0.00  0.00    +0.000 HD
ENDBRANCH   7   8
BRANCH   2  16
ATOM     16  C   UNL     1       1.242  10.296  19.737  0.00  0.00    +0.000 A 
ATOM     17  C   UNL     1       1.523  10.384  18.373  0.00  0.00    +0.000 A 
ATOM     18  C   UNL     1       2.019   9.286  17.664  0.00  0.00    +0.000 A 
ATOM     19  C   UNL     1       2.171   8.058  18.294  0.00  0.00    +0.000 A 
ATOM     20  C   UNL     1       1.795   7.907  19.630  0.00  0.00    +0.000 A 
ATOM     21  C   UNL     1       1.330   9.029  20.339  0.00  0.00    +0.000 A 
BRANCH  20  22
ATOM     22  C   UNL     1       1.953   6.570  20.317  0.00  0.00    +0.000 C 
BRANCH  22  23
ATOM     23  C   UNL     1       2.656   5.530  19.474  0.00  0.00    +0.000 A 
ATOM     24  C   UNL     1       1.940   4.731  18.582  0.00  0.00    +0.000 A 
ATOM     25  C   UNL     1       2.621   3.782  17.826  0.00  0.00    +0.000 A 
ATOM     26  C   UNL     1       3.997   3.662  17.965  0.00  0.00    +0.000 A 
ATOM     27  C   UNL     1       4.636   4.501  18.862  0.00  0.00    +0.000 A 
ATOM     28  N   UNL     1       4.001   5.427  19.616  0.00  0.00    +0.000 NA
ENDBRANCH  22  23
ENDBRANCH  20  22
ENDBRANCH   2  16
BRANCH   6  29
ATOM     29  C   UNL     1      -3.621  13.083  20.217  0.00  0.00    +0.000 C 
ATOM     30  C   UNL     1      -4.669  13.969  20.840  0.00  0.00    +0.000 C 
ATOM     31  C   UNL     1      -5.088  12.756  20.061  0.00  0.00    +0.000 C 
ENDBRANCH   6  29
TORSDOF 5
ENDMDL
MODEL 2
REMARK VINA RESULT:      -7.3      2.569      3.278
REMARK  Name = 
REMARK  5 active torsions:
REMARK  status: ('A' for Active; 'I' for Inactive)
REMARK    1  A    between atoms: C_2  and  C_3
REMARK    2  A    between atoms: C_7  and  C_8
REMARK    3  A    between atoms: C_8  and  C_9
REMARK    4  A    between atoms: C_19  and  C_20
REMARK    5  A    between atoms: C_23  and  C_24
REMARK                            x       y       z     vdW  Elec       q    Type
REMARK                         _______ _______ _______ _____ _____    ______ ____
ROOT
ATOM      1  O   UNL     1      -0.423   8.866  22.419  0.00  0.00    +0.000 OA
ATOM      2  C   UNL     1      -0.280   9.737  21.561  0.00  0.00    +0.000 C 
ATOM      3  N   UNL     1      -0.642  11.057  21.830  0.00  0.00    +0.000 N 
ATOM      4  C   UNL     1      -1.237  11.382  23.120  0.00  0.00    +0.000 C 
ATOM      5  C   UNL     1      -2.269  12.448  22.800  0.00  0.00    +0.000 C 
ATOM      6  C   UNL     1      -1.645  13.243  21.651  0.00  0.00    +0.000 C 
ATOM      7  C   UNL     1      -0.778  12.197  20.914  0.00  0.00    +0.000 C 
ENDROOT
BRANCH   7   8
ATOM      8  C   UNL     1       0.564  12.725  20.430  0.00  0.00    +0.000 A 
ATOM      9  N   UNL     1       1.669  12.632  21.117  0.00  0.00    +0.000 NA
ATOM     10  N   UNL     1       2.606  13.210  20.300  0.00  0.00    +0.000 N 
ATOM     11  C   UNL     1       2.018  13.659  19.126  0.00  0.00    +0.000 A 
ATOM     12  O   UNL     1       2.551  14.261  18.212  0.00  0.00    +0.000 OA
ATOM     13  N   UNL     1       0.709  13.297  19.220  0.00  0.00    +0.000 N 
ATOM     14  H   UNL     1       3.573  13.334  20.568  0.00  0.00    +0.000 HD
ATOM     15  H   UNL     1      -0.008  13.556  18.562  0.00  0.00    +0.000 HD
ENDBRANCH   7   8
BRANCH   2  16
ATOM     16  C   UNL     1       0.422   9.331  20.294  0.00  0.00    +0.000 A 
ATOM     17  C   UNL     1       0.366  10.003  19.072  0.00  0.00    +0.000 A 
ATOM     18  C   UNL     1       1.202   9.645  18.010  0.00  0.00    +0.000 A 
ATOM     19  C   UNL     1       2.059   8.558  18.130  0.00  0.00    +0.000 A 
ATOM     20  C   UNL     1       2.060   7.797  19.301  0.00  0.00    +0.000 A 
ATOM     21  C   UNL     1       1.238   8.189  20.372  0.00  0.00    +0.000 A 
BRANCH  20  22
ATOM     22  C   UNL     1       2.986   6.608  19.433  0.00  0.00    +0.000 C 
BRANCH  22  23
ATOM     23  C   UNL     1       2.269   5.277  19.460  0.00  0.00    +0.000 A 
ATOM     24  C   UNL     1       1.828   4.729  20.665  0.00  0.00    +0.000 A 
ATOM     25  C   UNL     1       1.176   3.500  20.651  0.00  0.00    +0.000 A 
ATOM     26  C   UNL     1       0.965   2.856  19.439  0.00  0.00    +0.000 A 
ATOM     27  C   UNL     1       1.421   3.472  18.286  0.00  0.00    +0.000 A 
ATOM     28  N   UNL     1       2.065   4.661  18.269  0.00  0.00    +0.000 NA
ENDBRANCH  22  23
ENDBRANCH  20  22
ENDBRANCH   2  16
BRANCH   6  29
ATOM     29  C   UNL     1      -0.924  14.481  22.115  0.00  0.00    +0.000 C 
ATOM     30  C   UNL     1      -1.610  15.501  22.987  0.00  0.00    +0.000 C 
ATOM     31  C   UNL     1      -1.357  15.809  21.540  0.00  0.00    +0.000 C 
ENDBRANCH   6  29
TORSDOF 5
ENDMDL
MODEL 3
REMARK VINA RESULT:      -7.1      2.633      7.636
REMARK  Name = 
REMARK  5 active torsions:
REMARK  status: ('A' for Active; 'I' for Inactive)
REMARK    1  A    between atoms: C_2  and  C_3
REMARK    2  A    between atoms: C_7  and  C_8
REMARK    3  A    between atoms: C_8  and  C_9
REMARK    4  A    between atoms: C_19  and  C_20
REMARK    5  A    between atoms: C_23  and  C_24
REMARK                            x       y       z     vdW  Elec       q    Type
REMARK                         _______ _______ _______ _____ _____    ______ ____
ROOT
ATOM      1  O   UNL     1      -2.076  10.978  23.447  0.00  0.00    +0.000 OA
ATOM      2  C   UNL     1      -1.626  11.515  22.434  0.00  0.00    +0.000 C 
ATOM      3  N   UNL     1      -0.763  10.817  21.590  0.00  0.00    +0.000 N 
ATOM      4  C   UNL     1      -0.361   9.462  21.947  0.00  0.00    +0.000 C 
ATOM      5  C   UNL     1       1.085   9.368  21.496  0.00  0.00    +0.000 C 
ATOM      6  C   UNL     1       1.143  10.229  20.233  0.00  0.00    +0.000 C 
ATOM      7  C   UNL     1       0.063  11.307  20.479  0.00  0.00    +0.000 C 
ENDROOT
BRANCH   7   8
ATOM      8  C   UNL     1      -0.759  11.663  19.249  0.00  0.00    +0.000 A 
ATOM      9  N   UNL     1      -0.435  12.607  18.410  0.00  0.00    +0.000 NA
ATOM     10  N   UNL     1      -1.431  12.558  17.469  0.00  0.00    +0.000 N 
ATOM     11  C   UNL     1      -2.354  11.573  17.789  0.00  0.00    +0.000 A 
ATOM     12  O   UNL     1      -3.382  11.298  17.197  0.00  0.00    +0.000 OA
ATOM     13  N   UNL     1      -1.875  10.985  18.919  0.00  0.00    +0.000 N 
ATOM     14  H   UNL     1      -1.492  13.203  16.693  0.00  0.00    +0.000 HD
ATOM     15  H   UNL     1      -2.362  10.286  19.456  0.00  0.00    +0.000 HD
ENDBRANCH   7   8
BRANCH   2  16
ATOM     16  C   UNL     1      -2.161  12.880  22.096  0.00  0.00    +0.000 A 
ATOM     17  C   UNL     1      -1.528  14.098  22.348  0.00  0.00    +0.000 A 
ATOM     18  C   UNL     1      -2.027  15.295  21.827  0.00  0.00    +0.000 A 
ATOM     19  C   UNL     1      -3.214  15.302  21.105  0.00  0.00    +0.000 A 
ATOM     20  C   UNL     1      -3.931  14.117  20.929  0.00  0.00    +0.000 A 
ATOM     21  C   UNL     1      -3.399  12.916  21.430  0.00  0.00    +0.000 A 
BRANCH  20  22
ATOM     22  C   UNL     1      -5.227  14.123  20.150  0.00  0.00    +0.000 C 
BRANCH  22  23
ATOM     23  C   UNL     1      -6.068  12.883  20.358  0.00  0.00    +0.000 A 
ATOM     24  C   UNL     1      -6.900  12.763  21.472  0.00  0.00    +0.000 A 
ATOM     25  C   UNL     1      -7.655  11.605  21.632  0.00  0.00    +0.000 A 
ATOM     26  C   UNL     1      -7.577  10.605  20.672  0.00  0.00    +0.000 A 
ATOM     27  C   UNL     1      -6.738  10.806  19.589  0.00  0.00    +0.000 A 
ATOM     28  N   UNL     1      -5.986  11.915  19.411  0.00  0.00    +0.000 NA
ENDBRANCH  22  23
ENDBRANCH  20  22
ENDBRANCH   2  16
BRANCH   6  29
ATOM     29  C   UNL     1       0.991   9.428  18.967  0.00  0.00    +0.000 C 
ATOM     30  C   UNL     1       1.977   8.347  18.607  0.00  0.00    +0.000 C 
ATOM     31  C   UNL     1       2.000   9.651  17.864  0.00  0.00    +0.000 C 
ENDBRANCH   6  29
TORSDOF 5
ENDMDL
MODEL 4
REMARK VINA RESULT:      -7.0      2.506      7.567
REMARK  Name = 
REMARK  5 active torsions:
REMARK  status: ('A' for Active; 'I' for Inactive)
REMARK    1  A    between atoms: C_2  and  C_3
REMARK    2  A    between atoms: C_7  and  C_8
REMARK    3  A    between atoms: C_8  and  C_9
REMARK    4  A    between atoms: C_19  and  C_20
REMARK    5  A    between atoms: C_23  and  C_24
REMARK                            x       y       z     vdW  Elec       q    Type
REMARK                         _______ _______ _______ _____ _____    ______ ____
ROOT
ATOM      1  O   UNL     1      -1.389  10.241  23.512  0.00  0.00    +0.000 OA
ATOM      2  C   UNL     1      -0.994  10.889  22.543  0.00  0.00    +0.000 C 
ATOM      3  N   UNL     1      -0.251  10.270  21.537  0.00  0.00    +0.000 N 
ATOM      4  C   UNL     1       0.093   8.860  21.672  0.00  0.00    +0.000 C 
ATOM      5  C   UNL     1       1.486   8.755  21.081  0.00  0.00    +0.000 C 
ATOM      6  C   UNL     1       1.492   9.778  19.944  0.00  0.00    +0.000 C 
ATOM      7  C   UNL     1       0.507  10.866  20.429  0.00  0.00    +0.000 C 
ENDROOT
BRANCH   7   8
ATOM      8  C   UNL     1      -0.392  11.429  19.339  0.00  0.00    +0.000 A 
ATOM      9  N   UNL     1      -0.078  12.456  18.599  0.00  0.00    +0.000 NA
ATOM     10  N   UNL     1      -1.152  12.591  17.759  0.00  0.00    +0.000 N 
ATOM     11  C   UNL     1      -2.111  11.627  18.038  0.00  0.00    +0.000 A 
ATOM     12  O   UNL     1      -3.203  11.493  17.516  0.00  0.00    +0.000 OA
ATOM     13  N   UNL     1      -1.577  10.867  19.033  0.00  0.00    +0.000 N 
ATOM     14  H   UNL     1      -1.236  13.336  17.082  0.00  0.00    +0.000 HD
ATOM     15  H   UNL     1      -2.063  10.132  19.520  0.00  0.00    +0.000 HD
ENDBRANCH   7   8
BRANCH   2  16
ATOM     16  C   UNL     1      -1.468  12.313  22.440  0.00  0.00    +0.000 A 
ATOM     17  C   UNL     1      -0.663  13.436  22.246  0.00  0.00    +0.000 A 
ATOM     18  C   UNL     1      -1.222  14.689  21.979  0.00  0.00    +0.000 A 
ATOM     19  C   UNL     1      -2.601  14.854  21.976  0.00  0.00    +0.000 A 
ATOM     20  C   UNL     1      -3.434  13.774  22.275  0.00  0.00    +0.000 A 
ATOM     21  C   UNL     1      -2.859  12.512  22.508  0.00  0.00    +0.000 A 
BRANCH  20  22
ATOM     22  C   UNL     1      -4.936  13.951  22.280  0.00  0.00    +0.000 C 
BRANCH  22  23
ATOM     23  C   UNL     1      -5.662  13.018  21.337  0.00  0.00    +0.000 A 
ATOM     24  C   UNL     1      -5.369  13.011  19.973  0.00  0.00    +0.000 A 
ATOM     25  C   UNL     1      -6.062  12.143  19.135  0.00  0.00    +0.000 A 
ATOM     26  C   UNL     1      -7.016  11.292  19.678  0.00  0.00    +0.000 A 
ATOM     27  C   UNL     1      -7.239  11.350  21.043  0.00  0.00    +0.000 A 
ATOM     28  N   UNL     1      -6.589  12.189  21.880  0.00  0.00    +0.000 NA
ENDBRANCH  22  23
ENDBRANCH  20  22
ENDBRANCH   2  16
BRANCH   6  29
ATOM     29  C   UNL     1       1.182   9.168  18.602  0.00  0.00    +0.000 C 
ATOM     30  C   UNL     1       1.946   7.971  18.097  0.00  0.00    +0.000 C 
ATOM     31  C   UNL     1       2.207   9.324  17.502  0.00  0.00    +0.000 C 
ENDBRANCH   6  29
TORSDOF 5
ENDMDL
MODEL 5
REMARK VINA RESULT:      -6.9      2.355      3.046
REMARK  Name = 
REMARK  5 active torsions:
REMARK  status: ('A' for Active; 'I' for Inactive)
REMARK    1  A    between atoms: C_2  and  C_3
REMARK    2  A    between atoms: C_7  and  C_8
REMARK    3  A    between atoms: C_8  and  C_9
REMARK    4  A    between atoms: C_19  and  C_20
REMARK    5  A    between atoms: C_23  and  C_24
REMARK                            x       y       z     vdW  Elec       q    Type
REMARK                         _______ _______ _______ _____ _____    ______ ____
ROOT
ATOM      1  O   UNL     1      -0.152   8.988  22.523  0.00  0.00    +0.000 OA
ATOM      2  C   UNL     1      -0.205   9.762  21.567  0.00  0.00    +0.000 C 
ATOM      3  N   UNL     1      -0.745  11.038  21.724  0.00  0.00    +0.000 N 
ATOM      4  C   UNL     1      -1.291  11.426  23.019  0.00  0.00    +0.000 C 
ATOM      5  C   UNL     1      -2.494  12.286  22.678  0.00  0.00    +0.000 C 
ATOM      6  C   UNL     1      -2.082  13.020  21.400  0.00  0.00    +0.000 C 
ATOM      7  C   UNL     1      -1.118  12.030  20.707  0.00  0.00    +0.000 C 
ENDROOT
BRANCH   7   8
ATOM      8  C   UNL     1       0.090  12.685  20.054  0.00  0.00    +0.000 A 
ATOM      9  N   UNL     1       0.093  13.149  18.835  0.00  0.00    +0.000 NA
ATOM     10  N   UNL     1       1.358  13.655  18.685  0.00  0.00    +0.000 N 
ATOM     11  C   UNL     1       2.100  13.459  19.841  0.00  0.00    +0.000 A 
ATOM     12  O   UNL     1       3.270  13.741  20.029  0.00  0.00    +0.000 OA
ATOM     13  N   UNL     1       1.246  12.869  20.720  0.00  0.00    +0.000 N 
ATOM     14  H   UNL     1       1.696  14.054  17.820  0.00  0.00    +0.000 HD
ATOM     15  H   UNL     1       1.506  12.518  21.628  0.00  0.00    +0.000 HD
ENDBRANCH   7   8
BRANCH   2  16
ATOM     16  C   UNL     1       0.460   9.315  20.294  0.00  0.00    +0.000 A 
ATOM     17  C   UNL     1       0.347   9.930  19.047  0.00  0.00    +0.000 A 
ATOM     18  C   UNL     1       1.153   9.542  17.972  0.00  0.00    +0.000 A 
ATOM     19  C   UNL     1       2.036   8.479  18.109  0.00  0.00    +0.000 A 
ATOM     20  C   UNL     1       2.095   7.770  19.311  0.00  0.00    +0.000 A 
ATOM     21  C   UNL     1       1.303   8.194  20.393  0.00  0.00    +0.000 A 
BRANCH  20  22
ATOM     22  C   UNL     1       3.050   6.607  19.461  0.00  0.00    +0.000 C 
BRANCH  22  23
ATOM     23  C   UNL     1       2.362   5.269  19.608  0.00  0.00    +0.000 A 
ATOM     24  C   UNL     1       1.905   4.574  18.489  0.00  0.00    +0.000 A 
ATOM     25  C   UNL     1       1.272   3.347  18.664  0.00  0.00    +0.000 A 
ATOM     26  C   UNL     1       1.126   2.835  19.947  0.00  0.00    +0.000 A 
ATOM     27  C   UNL     1       1.619   3.580  21.005  0.00  0.00    +0.000 A 
ATOM     28  N   UNL     1       2.230   4.778  20.867  0.00  0.00    +0.000 NA
ENDBRANCH  22  23
ENDBRANCH  20  22
ENDBRANCH   2  16
BRANCH   6  29
ATOM     29  C   UNL     1      -1.528  14.395  21.664  0.00  0.00    +0.000 C 
ATOM     30  C   UNL     1      -2.237  15.356  22.584  0.00  0.00    +0.000 C 
ATOM     31  C   UNL     1      -2.278  15.580  21.101  0.00  0.00    +0.000 C 
ENDBRANCH   6  29
TORSDOF 5
ENDMDL
MODEL 6
REMARK VINA RESULT:      -6.8      2.451      3.061
REMARK  Name = 
REMARK  5 active torsions:
REMARK  status: ('A' for Active; 'I' for Inactive)
REMARK    1  A    between atoms: C_2  and  C_3
REMARK    2  A    between atoms: C_7  and  C_8
REMARK    3  A    between atoms: C_8  and  C_9
REMARK    4  A    between atoms: C_19  and  C_20
REMARK    5  A    between atoms: C_23  and  C_24
REMARK                            x       y       z     vdW  Elec       q    Type
REMARK                         _______ _______ _______ _____ _____    ______ ____
ROOT
ATOM      1  O   UNL     1      -0.450   8.770  22.444  0.00  0.00    +0.000 OA
ATOM      2  C   UNL     1      -0.296   9.629  21.575  0.00  0.00    +0.000 C 
ATOM      3  N   UNL     1      -0.688  10.947  21.809  0.00  0.00    +0.000 N 
ATOM      4  C   UNL     1      -1.327  11.284  23.075  0.00  0.00    +0.000 C 
ATOM      5  C   UNL     1      -2.367  12.326  22.705  0.00  0.00    +0.000 C 
ATOM      6  C   UNL     1      -1.723  13.111  21.561  0.00  0.00    +0.000 C 
ATOM      7  C   UNL     1      -0.816  12.068  20.869  0.00  0.00    +0.000 C 
ENDROOT
BRANCH   7   8
ATOM      8  C   UNL     1       0.531  12.611  20.416  0.00  0.00    +0.000 A 
ATOM      9  N   UNL     1       1.608  12.582  21.151  0.00  0.00    +0.000 NA
ATOM     10  N   UNL     1       2.563  13.148  20.347  0.00  0.00    +0.000 N 
ATOM     11  C   UNL     1       2.013  13.524  19.129  0.00  0.00    +0.000 A 
ATOM     12  O   UNL     1       2.568  14.097  18.209  0.00  0.00    +0.000 OA
ATOM     13  N   UNL     1       0.712  13.129  19.186  0.00  0.00    +0.000 N 
ATOM     14  H   UNL     1       3.514  13.312  20.647  0.00  0.00    +0.000 HD
ATOM     15  H   UNL     1       0.017  13.336  18.488  0.00  0.00    +0.000 HD
ENDBRANCH   7   8
BRANCH   2  16
ATOM     16  C   UNL     1       0.450   9.213  20.337  0.00  0.00    +0.000 A 
ATOM     17  C   UNL     1       0.363   9.819  19.082  0.00  0.00    +0.000 A 
ATOM     18  C   UNL     1       1.238   9.471  18.049  0.00  0.00    +0.000 A 
ATOM     19  C   UNL     1       2.168   8.456  18.231  0.00  0.00    +0.000 A 
ATOM     20  C   UNL     1       2.208   7.755  19.438  0.00  0.00    +0.000 A 
ATOM     21  C   UNL     1       1.345   8.139  20.480  0.00  0.00    +0.000 A 
BRANCH  20  22
ATOM     22  C   UNL     1       3.214   6.644  19.638  0.00  0.00    +0.000 C 
BRANCH  22  23
ATOM     23  C   UNL     1       2.970   5.435  18.763  0.00  0.00    +0.000 A 
ATOM     24  C   UNL     1       1.791   4.698  18.876  0.00  0.00    +0.000 A 
ATOM     25  C   UNL     1       1.604   3.589  18.057  0.00  0.00    +0.000 A 
ATOM     26  C   UNL     1       2.586   3.251  17.135  0.00  0.00    +0.000 A 
ATOM     27  C   UNL     1       3.722   4.041  17.075  0.00  0.00    +0.000 A 
ATOM     28  N   UNL     1       3.936   5.119  17.863  0.00  0.00    +0.000 NA
ENDBRANCH  22  23
ENDBRANCH  20  22
ENDBRANCH   2  16
BRANCH   6  29
ATOM     29  C   UNL     1      -1.036  14.370  22.024  0.00  0.00    +0.000 C 
ATOM     30  C   UNL     1      -1.752  15.372  22.893  0.00  0.00    +0.000 C 
ATOM     31  C   UNL     1      -1.506  15.684  21.446  0.00  0.00    +0.000 C 
ENDBRANCH   6  29
TORSDOF 5
ENDMDL
MODEL 7
REMARK VINA RESULT:      -6.8      0.967      1.245
REMARK  Name = 
REMARK  5 active torsions:
REMARK  status: ('A' for Active; 'I' for Inactive)
REMARK    1  A    between atoms: C_2  and  C_3
REMARK    2  A    between atoms: C_7  and  C_8
REMARK    3  A    between atoms: C_8  and  C_9
REMARK    4  A    between atoms: C_19  and  C_20
REMARK    5  A    between atoms: C_23  and  C_24
REMARK                            x       y       z     vdW  Elec       q    Type
REMARK                         _______ _______ _______ _____ _____    ______ ____
ROOT
ATOM      1  O   UNL     1       1.869  12.488  19.982  0.00  0.00    +0.000 OA
ATOM      2  C   UNL     1       0.917  11.728  19.801  0.00  0.00    +0.000 C 
ATOM      3  N   UNL     1      -0.390  12.185  19.963  0.00  0.00    +0.000 N 
ATOM      4  C   UNL     1      -0.615  13.559  20.396  0.00  0.00    +0.000 C 
ATOM      5  C   UNL     1      -1.829  13.473  21.303  0.00  0.00    +0.000 C 
ATOM      6  C   UNL     1      -2.685  12.367  20.683  0.00  0.00    +0.000 C 
ATOM      7  C   UNL     1      -1.647  11.428  20.027  0.00  0.00    +0.000 C 
ENDROOT
BRANCH   7   8
ATOM      8  C   UNL     1      -2.069  10.875  18.674  0.00  0.00    +0.000 A 
ATOM      9  N   UNL     1      -2.619   9.704  18.510  0.00  0.00    +0.000 NA
ATOM     10  N   UNL     1      -2.843   9.639  17.159  0.00  0.00    +0.000 N 
ATOM     11  C   UNL     1      -2.394  10.795  16.536  0.00  0.00    +0.000 A 
ATOM     12  O   UNL     1      -2.395  11.044  15.343  0.00  0.00    +0.000 OA
ATOM     13  N   UNL     1      -1.938  11.591  17.541  0.00  0.00    +0.000 N 
ATOM     14  H   UNL     1      -3.226   8.824  16.700  0.00  0.00    +0.000 HD
ATOM     15  H   UNL     1      -1.466  12.470  17.409  0.00  0.00    +0.000 HD
ENDBRANCH   7   8
BRANCH   2  16
ATOM     16  C   UNL     1       1.237  10.357  19.271  0.00  0.00    +0.000 A 
ATOM     17  C   UNL     1       1.550  10.039  17.949  0.00  0.00    +0.000 A 
ATOM     18  C   UNL     1       2.011   8.766  17.600  0.00  0.00    +0.000 A 
ATOM     19  C   UNL     1       2.096   7.766  18.560  0.00  0.00    +0.000 A 
ATOM     20  C   UNL     1       1.685   8.019  19.870  0.00  0.00    +0.000 A 
ATOM     21  C   UNL     1       1.256   9.314  20.213  0.00  0.00    +0.000 A 
BRANCH  20  22
ATOM     22  C   UNL     1       1.769   6.931  20.917  0.00  0.00    +0.000 C 
BRANCH  22  23
ATOM     23  C   UNL     1       2.011   5.552  20.345  0.00  0.00    +0.000 A 
ATOM     24  C   UNL     1       0.962   4.641  20.209  0.00  0.00    +0.000 A 
ATOM     25  C   UNL     1       1.225   3.380  19.683  0.00  0.00    +0.000 A 
ATOM     26  C   UNL     1       2.518   3.063  19.289  0.00  0.00    +0.000 A 
ATOM     27  C   UNL     1       3.500   4.027  19.444  0.00  0.00    +0.000 A 
ATOM     28  N   UNL     1       3.278   5.257  19.960  0.00  0.00    +0.000 NA
ENDBRANCH  22  23
ENDBRANCH  20  22
ENDBRANCH   2  16
BRANCH   6  29
ATOM     29  C   UNL     1      -3.758  12.897  19.768  0.00  0.00    +0.000 C 
ATOM     30  C   UNL     1      -4.880  13.752  20.299  0.00  0.00    +0.000 C 
ATOM     31  C   UNL     1      -5.151  12.328  19.908  0.00  0.00    +0.000 C 
ENDBRANCH   6  29
TORSDOF 5
ENDMDL
MODEL 8
REMARK VINA RESULT:      -6.8      2.693      8.074
REMARK  Name = 
REMARK  5 active torsions:
REMARK  status: ('A' for Active; 'I' for Inactive)
REMARK    1  A    between atoms: C_2  and  C_3
REMARK    2  A    between atoms: C_7  and  C_8
REMARK    3  A    between atoms: C_8  and  C_9
REMARK    4  A    between atoms: C_19  and  C_20
REMARK    5  A    between atoms: C_23  and  C_24
REMARK                            x       y       z     vdW  Elec       q    Type
REMARK                         _______ _______ _______ _____ _____    ______ ____
ROOT
ATOM      1  O   UNL     1      -2.120  11.377  23.403  0.00  0.00    +0.000 OA
ATOM      2  C   UNL     1      -1.709  11.835  22.337  0.00  0.00    +0.000 C 
ATOM      3  N   UNL     1      -0.834  11.094  21.543  0.00  0.00    +0.000 N 
ATOM      4  C   UNL     1      -0.373   9.794  22.014  0.00  0.00    +0.000 C 
ATOM      5  C   UNL     1       1.068   9.713  21.544  0.00  0.00    +0.000 C 
ATOM      6  C   UNL     1       1.070  10.456  20.206  0.00  0.00    +0.000 C 
ATOM      7  C   UNL     1      -0.047  11.511  20.374  0.00  0.00    +0.000 C 
ENDROOT
BRANCH   7   8
ATOM      8  C   UNL     1      -0.904  11.720  19.134  0.00  0.00    +0.000 A 
ATOM      9  N   UNL     1      -0.632  12.593  18.205  0.00  0.00    +0.000 NA
ATOM     10  N   UNL     1      -1.641  12.419  17.293  0.00  0.00    +0.000 N 
ATOM     11  C   UNL     1      -2.519  11.434  17.722  0.00  0.00    +0.000 A 
ATOM     12  O   UNL     1      -3.545  11.067  17.179  0.00  0.00    +0.000 OA
ATOM     13  N   UNL     1      -1.997  10.972  18.891  0.00  0.00    +0.000 N 
ATOM     14  H   UNL     1      -1.741  12.987  16.463  0.00  0.00    +0.000 HD
ATOM     15  H   UNL     1      -2.448  10.309  19.500  0.00  0.00    +0.000 HD
ENDBRANCH   7   8
BRANCH   2  16
ATOM     16  C   UNL     1      -2.304  13.141  21.886  0.00  0.00    +0.000 A 
ATOM     17  C   UNL     1      -1.599  14.313  21.608  0.00  0.00    +0.000 A 
ATOM     18  C   UNL     1      -2.229  15.413  21.018  0.00  0.00    +0.000 A 
ATOM     19  C   UNL     1      -3.594  15.385  20.765  0.00  0.00    +0.000 A 
ATOM     20  C   UNL     1      -4.349  14.270  21.133  0.00  0.00    +0.000 A 
ATOM     21  C   UNL     1      -3.697  13.158  21.693  0.00  0.00    +0.000 A 
BRANCH  20  22
ATOM     22  C   UNL     1      -5.838  14.238  20.866  0.00  0.00    +0.000 C 
BRANCH  22  23
ATOM     23  C   UNL     1      -6.193  14.226  19.395  0.00  0.00    +0.000 A 
ATOM     24  C   UNL     1      -6.087  13.055  18.645  0.00  0.00    +0.000 A 
ATOM     25  C   UNL     1      -6.418  13.083  17.294  0.00  0.00    +0.000 A 
ATOM     26  C   UNL     1      -6.863  14.271  16.729  0.00  0.00    +0.000 A 
ATOM     27  C   UNL     1      -6.954  15.386  17.544  0.00  0.00    +0.000 A 
ATOM     28  N   UNL     1      -6.631  15.392  18.857  0.00  0.00    +0.000 NA
ENDBRANCH  22  23
ENDBRANCH  20  22
ENDBRANCH   2  16
BRANCH   6  29
ATOM     29  C   UNL     1       0.928   9.536  19.022  0.00  0.00    +0.000 C 
ATOM     30  C   UNL     1       1.927   8.436  18.767  0.00  0.00    +0.000 C 
ATOM     31  C   UNL     1       1.935   9.664  17.903  0.00  0.00    +0.000 C 
ENDBRANCH   6  29
TORSDOF 5
ENDMDL
MODEL 9
REMARK VINA RESULT:      -6.7      1.031      1.341
REMARK  Name = 
REMARK  5 active torsions:
REMARK  status: ('A' for Active; 'I' for Inactive)
REMARK    1  A    between atoms: C_2  and  C_3
REMARK    2  A    between atoms: C_7  and  C_8
REMARK    3  A    between atoms: C_8  and  C_9
REMARK    4  A    between atoms: C_19  and  C_20
REMARK    5  A    between atoms: C_23  and  C_24
REMARK                            x       y       z     vdW  Elec       q    Type
REMARK                         _______ _______ _______ _____ _____    ______ ____
ROOT
ATOM      1  O   UNL     1       1.763  11.136  21.593  0.00  0.00    +0.000 OA
ATOM      2  C   UNL     1       0.813  10.838  20.868  0.00  0.00    +0.000 C 
ATOM      3  N   UNL     1      -0.400  11.515  20.983  0.00  0.00    +0.000 N 
ATOM      4  C   UNL     1      -0.546  12.546  22.004  0.00  0.00    +0.000 C 
ATOM      5  C   UNL     1      -1.978  12.400  22.484  0.00  0.00    +0.000 C 
ATOM      6  C   UNL     1      -2.754  11.981  21.234  0.00  0.00    +0.000 C 
ATOM      7  C   UNL     1      -1.712  11.194  20.406  0.00  0.00    +0.000 C 
ENDROOT
BRANCH   7   8
ATOM      8  C   UNL     1      -1.775  11.454  18.909  0.00  0.00    +0.000 A 
ATOM      9  N   UNL     1      -1.192  12.463  18.324  0.00  0.00    +0.000 NA
ATOM     10  N   UNL     1      -1.495  12.287  16.998  0.00  0.00    +0.000 N 
ATOM     11  C   UNL     1      -2.284  11.159  16.825  0.00  0.00    +0.000 A 
ATOM     12  O   UNL     1      -2.769  10.744  15.788  0.00  0.00    +0.000 OA
ATOM     13  N   UNL     1      -2.415  10.619  18.068  0.00  0.00    +0.000 N 
ATOM     14  H   UNL     1      -1.220  12.939  16.276  0.00  0.00    +0.000 HD
ATOM     15  H   UNL     1      -3.005   9.835  18.295  0.00  0.00    +0.000 HD
ENDBRANCH   7   8
BRANCH   2  16
ATOM     16  C   UNL     1       1.078   9.827  19.786  0.00  0.00    +0.000 A 
ATOM     17  C   UNL     1       0.769   9.971  18.433  0.00  0.00    +0.000 A 
ATOM     18  C   UNL     1       1.225   9.051  17.485  0.00  0.00    +0.000 A 
ATOM     19  C   UNL     1       1.937   7.928  17.885  0.00  0.00    +0.000 A 
ATOM     20  C   UNL     1       2.169   7.696  19.243  0.00  0.00    +0.000 A 
ATOM     21  C   UNL     1       1.734   8.648  20.182  0.00  0.00    +0.000 A 
BRANCH  20  22
ATOM     22  C   UNL     1       2.937   6.471  19.684  0.00  0.00    +0.000 C 
BRANCH  22  23
ATOM     23  C   UNL     1       2.182   5.175  19.491  0.00  0.00    +0.000 A 
ATOM     24  C   UNL     1       1.371   4.663  20.504  0.00  0.00    +0.000 A 
ATOM     25  C   UNL     1       0.695   3.466  20.291  0.00  0.00    +0.000 A 
ATOM     26  C   UNL     1       0.830   2.817  19.071  0.00  0.00    +0.000 A 
ATOM     27  C   UNL     1       1.643   3.397  18.112  0.00  0.00    +0.000 A 
ATOM     28  N   UNL     1       2.319   4.554  18.292  0.00  0.00    +0.000 NA
ENDBRANCH  22  23
ENDBRANCH  20  22
ENDBRANCH   2  16
BRANCH   6  29
ATOM     29  C   UNL     1      -3.406  13.142  20.529  0.00  0.00    +0.000 C 
ATOM     30  C   UNL     1      -3.985  14.296  21.305  0.00  0.00    +0.000 C 
ATOM     31  C   UNL     1      -4.903  13.298  20.663  0.00  0.00    +0.000 C 
ENDBRANCH   6  29
TORSDOF 5
ENDMDL
