MODEL 1
REMARK VINA RESULT:      -8.7      0.000      0.000
REMARK  Name = 
REMARK  4 active torsions:
REMARK  status: ('A' for Active; 'I' for Inactive)
REMARK    1  A    between atoms: C_7  and  C_8
REMARK    2  A    between atoms: C_8  and  C_9
REMARK    3  A    between atoms: C_15  and  C_16
REMARK    4  A    between atoms: C_19  and  C_20
REMARK                            x       y       z     vdW  Elec       q    Type
REMARK                         _______ _______ _______ _____ _____    ______ ____
ROOT
ATOM      1  C   UNL     1       2.524   7.477  18.805  0.00  0.00    +0.000 C 
ATOM      2  O   UNL     1       2.142   7.702  19.959  0.00  0.00    +0.000 OA
ATOM      3  N   UNL     1       3.029   6.241  18.427  0.00  0.00    +0.000 N 
ATOM      4  C   UNL     1       2.982   5.120  19.364  0.00  0.00    +0.000 C 
ATOM      5  C   UNL     1       4.389   4.676  19.757  0.00  0.00    +0.000 C 
ATOM      6  C   UNL     1       5.242   4.383  18.522  0.00  0.00    +0.000 C 
ATOM      7  C   UNL     1       5.238   5.571  17.542  0.00  0.00    +0.000 C 
ATOM      8  C   UNL     1       3.796   5.980  17.207  0.00  0.00    +0.000 C 
ENDROOT
BRANCH   7   9
ATOM      9  C   UNL     1       5.984   5.253  16.294  0.00  0.00    +0.000 A 
ATOM     10  N   UNL     1       7.105   5.887  15.934  0.00  0.00    +0.000 NA
ATOM     11  O   UNL     1       7.445   5.264  14.731  0.00  0.00    +0.000 OA
ATOM     12  C   UNL     1       6.482   4.324  14.489  0.00  0.00    +0.000 A 
ATOM     13  N   UNL     1       5.550   4.297  15.415  0.00  0.00    +0.000 NA
BRANCH  12  14
ATOM     14  C   UNL     1       6.511   3.394  13.288  0.00  0.00    +0.000 C 
ATOM     15  C   UNL     1       6.873   3.951  11.925  0.00  0.00    +0.000 C 
ATOM     16  C   UNL     1       5.456   3.598  12.216  0.00  0.00    +0.000 C 
ENDBRANCH  12  14
ENDBRANCH   7   9
BRANCH   1  17
ATOM     17  C   UNL     1       2.375   8.558  17.739  0.00  0.00    +0.000 C 
BRANCH  17  24
ATOM     18  O   UNL     1      -4.085  11.736  18.507  0.00  0.00    +0.000 OA
ATOM     19  C   UNL     1      -2.890  11.486  18.499  0.00  0.00    +0.000 C 
ATOM     20  C   UNL     1      -1.759  12.401  18.983  0.00  0.00    +0.000 C 
ATOM     21  C   UNL     1      -0.542  11.563  18.718  0.00  0.00    +0.000 A 
ATOM     22  C   UNL     1       0.792  11.840  18.939  0.00  0.00    +0.000 A 
ATOM     23  C   UNL     1       1.734  10.862  18.593  0.00  0.00    +0.000 A 
ATOM     24  C   UNL     1       1.339   9.620  18.037  0.00  0.00    +0.000 A 
ATOM     25  C   UNL     1      -0.026   9.360  17.832  0.00  0.00    +0.000 A 
ATOM     26  C   UNL     1      -0.931  10.344  18.172  0.00  0.00    +0.000 A 
ATOM     27  N   UNL     1      -2.310  10.306  18.047  0.00  0.00    +0.000 N 
ATOM     28  H   UNL     1      -2.850   9.542  17.670  0.00  0.00    +0.000 HD
ENDBRANCH  17  24
ENDBRANCH   1  17
TORSDOF 4
ENDMDL
MODEL 2
REMARK VINA RESULT:      -8.6      1.851      2.248
REMARK  Name = 
REMARK  4 active torsions:
REMARK  status: ('A' for Active; 'I' for Inactive)
REMARK    1  A    between atoms: C_7  and  C_8
REMARK    2  A    between atoms: C_8  and  C_9
REMARK    3  A    between atoms: C_15  and  C_16
REMARK    4  A    between atoms: C_19  and  C_20
REMARK                            x       y       z     vdW  Elec       q    Type
REMARK                         _______ _______ _______ _____ _____    ______ ____
ROOT
ATOM      1  C   UNL     1       2.229   5.458  19.786  0.00  0.00    +0.000 C 
ATOM      2  O   UNL     1       1.573   5.060  20.754  0.00  0.00    +0.000 OA
ATOM      3  N   UNL     1       2.351   4.710  18.624  0.00  0.00    +0.000 N 
ATOM      4  C   UNL     1       1.572   3.483  18.465  0.00  0.00    +0.000 C 
ATOM      5  C   UNL     1       2.485   2.262  18.392  0.00  0.00    +0.000 C 
ATOM      6  C   UNL     1       3.553   2.433  17.309  0.00  0.00    +0.000 C 
ATOM      7  C   UNL     1       4.326   3.753  17.487  0.00  0.00    +0.000 C 
ATOM      8  C   UNL     1       3.350   4.935  17.576  0.00  0.00    +0.000 C 
ENDROOT
BRANCH   7   9
ATOM      9  C   UNL     1       5.296   3.972  16.380  0.00  0.00    +0.000 A 
ATOM     10  N   UNL     1       6.587   4.251  16.587  0.00  0.00    +0.000 NA
ATOM     11  O   UNL     1       7.097   4.362  15.292  0.00  0.00    +0.000 OA
ATOM     12  C   UNL     1       6.050   4.146  14.438  0.00  0.00    +0.000 A 
ATOM     13  N   UNL     1       4.917   3.924  15.065  0.00  0.00    +0.000 NA
BRANCH  12  14
ATOM     14  C   UNL     1       6.198   4.139  12.926  0.00  0.00    +0.000 C 
ATOM     15  C   UNL     1       5.118   3.499  12.077  0.00  0.00    +0.000 C 
ATOM     16  C   UNL     1       6.421   2.799  12.248  0.00  0.00    +0.000 C 
ENDBRANCH  12  14
ENDBRANCH   7   9
BRANCH   1  17
ATOM     17  C   UNL     1       2.869   6.843  19.830  0.00  0.00    +0.000 C 
BRANCH  17  24
ATOM     18  O   UNL     1      -1.857  12.211  20.949  0.00  0.00    +0.000 OA
ATOM     19  C   UNL     1      -1.075  11.417  20.452  0.00  0.00    +0.000 C 
ATOM     20  C   UNL     1      -0.626  11.368  18.987  0.00  0.00    +0.000 C 
ATOM     21  C   UNL     1       0.313  10.198  18.985  0.00  0.00    +0.000 A 
ATOM     22  C   UNL     1       1.042   9.644  17.951  0.00  0.00    +0.000 A 
ATOM     23  C   UNL     1       1.852   8.537  18.235  0.00  0.00    +0.000 A 
ATOM     24  C   UNL     1       1.933   7.996  19.541  0.00  0.00    +0.000 A 
ATOM     25  C   UNL     1       1.189   8.584  20.578  0.00  0.00    +0.000 A 
ATOM     26  C   UNL     1       0.391   9.666  20.269  0.00  0.00    +0.000 A 
ATOM     27  N   UNL     1      -0.425  10.388  21.124  0.00  0.00    +0.000 N 
ATOM     28  H   UNL     1      -0.562  10.207  22.107  0.00  0.00    +0.000 HD
ENDBRANCH  17  24
ENDBRANCH   1  17
TORSDOF 4
ENDMDL
MODEL 3
REMARK VINA RESULT:      -8.5      1.983      2.305
REMARK  Name = 
REMARK  4 active torsions:
REMARK  status: ('A' for Active; 'I' for Inactive)
REMARK    1  A    between atoms: C_7  and  C_8
REMARK    2  A    between atoms: C_8  and  C_9
REMARK    3  A    between atoms: C_15  and  C_16
REMARK    4  A    between atoms: C_19  and  C_20
REMARK                            x       y       z     vdW  Elec       q    Type
REMARK                         _______ _______ _______ _____ _____    ______ ____
ROOT
ATOM      1  C   UNL     1       2.001   5.462  20.032  0.00  0.00    +0.000 C 
ATOM      2  O   UNL     1       1.404   4.882  20.945  0.00  0.00    +0.000 OA
ATOM      3  N   UNL     1       2.069   4.938  18.749  0.00  0.00    +0.000 N 
ATOM      4  C   UNL     1       1.299   3.742  18.412  0.00  0.00    +0.000 C 
ATOM      5  C   UNL     1       2.223   2.574  18.073  0.00  0.00    +0.000 C 
ATOM      6  C   UNL     1       3.227   2.960  16.986  0.00  0.00    +0.000 C 
ATOM      7  C   UNL     1       3.992   4.245  17.358  0.00  0.00    +0.000 C 
ATOM      8  C   UNL     1       3.006   5.370  17.709  0.00  0.00    +0.000 C 
ENDROOT
BRANCH   7   9
ATOM      9  C   UNL     1       4.897   4.680  16.260  0.00  0.00    +0.000 A 
ATOM     10  N   UNL     1       5.166   5.965  16.005  0.00  0.00    +0.000 NA
ATOM     11  O   UNL     1       6.045   5.892  14.922  0.00  0.00    +0.000 OA
ATOM     12  C   UNL     1       6.205   4.565  14.634  0.00  0.00    +0.000 A 
ATOM     13  N   UNL     1       5.498   3.783  15.420  0.00  0.00    +0.000 NA
BRANCH  12  14
ATOM     14  C   UNL     1       7.125   4.057  13.537  0.00  0.00    +0.000 C 
ATOM     15  C   UNL     1       7.277   4.862  12.262  0.00  0.00    +0.000 C 
ATOM     16  C   UNL     1       6.485   3.601  12.238  0.00  0.00    +0.000 C 
ENDBRANCH  12  14
ENDBRANCH   7   9
BRANCH   1  17
ATOM     17  C   UNL     1       2.625   6.831  20.291  0.00  0.00    +0.000 C 
BRANCH  17  24
ATOM     18  O   UNL     1      -1.150  12.519  17.879  0.00  0.00    +0.000 OA
ATOM     19  C   UNL     1      -0.698  11.608  18.553  0.00  0.00    +0.000 C 
ATOM     20  C   UNL     1      -1.137  11.207  19.967  0.00  0.00    +0.000 C 
ATOM     21  C   UNL     1      -0.230  10.048  20.261  0.00  0.00    +0.000 A 
ATOM     22  C   UNL     1      -0.137   9.257  21.388  0.00  0.00    +0.000 A 
ATOM     23  C   UNL     1       0.814   8.228  21.394  0.00  0.00    +0.000 A 
ATOM     24  C   UNL     1       1.656   7.993  20.280  0.00  0.00    +0.000 A 
ATOM     25  C   UNL     1       1.534   8.807  19.141  0.00  0.00    +0.000 A 
ATOM     26  C   UNL     1       0.597   9.820  19.166  0.00  0.00    +0.000 A 
ATOM     27  N   UNL     1       0.317  10.738  18.167  0.00  0.00    +0.000 N 
ATOM     28  H   UNL     1       0.778  10.801  17.273  0.00  0.00    +0.000 HD
ENDBRANCH  17  24
ENDBRANCH   1  17
TORSDOF 4
ENDMDL
MODEL 4
REMARK VINA RESULT:      -8.3      2.482      2.735
REMARK  Name = 
REMARK  4 active torsions:
REMARK  status: ('A' for Active; 'I' for Inactive)
REMARK    1  A    between atoms: C_7  and  C_8
REMARK    2  A    between atoms: C_8  and  C_9
REMARK    3  A    between atoms: C_15  and  C_16
REMARK    4  A    between atoms: C_19  and  C_20
REMARK                            x       y       z     vdW  Elec       q    Type
REMARK                         _______ _______ _______ _____ _____    ______ ____
ROOT
ATOM      1  C   UNL     1       1.998   5.558  20.055  0.00  0.00    +0.000 C 
ATOM      2  O   UNL     1       1.406   5.000  20.985  0.00  0.00    +0.000 OA
ATOM      3  N   UNL     1       2.061   5.002  18.786  0.00  0.00    +0.000 N 
ATOM      4  C   UNL     1       1.291   3.798  18.482  0.00  0.00    +0.000 C 
ATOM      5  C   UNL     1       2.214   2.623  18.168  0.00  0.00    +0.000 C 
ATOM      6  C   UNL     1       3.213   2.983  17.066  0.00  0.00    +0.000 C 
ATOM      7  C   UNL     1       3.978   4.277  17.404  0.00  0.00    +0.000 C 
ATOM      8  C   UNL     1       2.993   5.409  17.731  0.00  0.00    +0.000 C 
ENDROOT
BRANCH   7   9
ATOM      9  C   UNL     1       4.877   4.686  16.291  0.00  0.00    +0.000 A 
ATOM     10  N   UNL     1       5.154   5.964  16.011  0.00  0.00    +0.000 NA
ATOM     11  O   UNL     1       6.024   5.866  14.922  0.00  0.00    +0.000 OA
ATOM     12  C   UNL     1       6.171   4.532  14.656  0.00  0.00    +0.000 A 
ATOM     13  N   UNL     1       5.465   3.770  15.461  0.00  0.00    +0.000 NA
BRANCH  12  14
ATOM     14  C   UNL     1       7.078   3.998  13.561  0.00  0.00    +0.000 C 
ATOM     15  C   UNL     1       7.358   4.856  12.343  0.00  0.00    +0.000 C 
ATOM     16  C   UNL     1       6.447   3.685  12.216  0.00  0.00    +0.000 C 
ENDBRANCH  12  14
ENDBRANCH   7   9
BRANCH   1  17
ATOM     17  C   UNL     1       2.622   6.933  20.278  0.00  0.00    +0.000 C 
BRANCH  17  24
ATOM     18  O   UNL     1      -1.823  11.762  23.335  0.00  0.00    +0.000 OA
ATOM     19  C   UNL     1      -1.152  11.114  22.548  0.00  0.00    +0.000 C 
ATOM     20  C   UNL     1      -1.010  11.365  21.042  0.00  0.00    +0.000 C 
ATOM     21  C   UNL     1      -0.081  10.261  20.626  0.00  0.00    +0.000 A 
ATOM     22  C   UNL     1       0.426   9.948  19.381  0.00  0.00    +0.000 A 
ATOM     23  C   UNL     1       1.286   8.848  19.278  0.00  0.00    +0.000 A 
ATOM     24  C   UNL     1       1.636   8.074  20.411  0.00  0.00    +0.000 A 
ATOM     25  C   UNL     1       1.114   8.420  21.669  0.00  0.00    +0.000 A 
ATOM     26  C   UNL     1       0.261   9.502  21.740  0.00  0.00    +0.000 A 
ATOM     27  N   UNL     1      -0.370  10.009  22.865  0.00  0.00    +0.000 N 
ATOM     28  H   UNL     1      -0.302   9.639  23.801  0.00  0.00    +0.000 HD
ENDBRANCH  17  24
ENDBRANCH   1  17
TORSDOF 4
ENDMDL
MODEL 5
REMARK VINA RESULT:      -8.2      3.488      8.288
REMARK  Name = 
REMARK  4 active torsions:
REMARK  status: ('A' for Active; 'I' for Inactive)
REMARK    1  A    between atoms: C_7  and  C_8
REMARK    2  A    between atoms: C_8  and  C_9
REMARK    3  A    between atoms: C_15  and  C_16
REMARK    4  A    between atoms: C_19  and  C_20
REMARK                            x       y       z     vdW  Elec       q    Type
REMARK                         _______ _______ _______ _____ _____    ______ ____
ROOT
ATOM      1  C   UNL     1       3.913   3.011  17.851  0.00  0.00    +0.000 C 
ATOM      2  O   UNL     1       3.771   1.798  17.659  0.00  0.00    +0.000 OA
ATOM      3  N   UNL     1       3.595   3.604  19.065  0.00  0.00    +0.000 N 
ATOM      4  C   UNL     1       3.219   2.770  20.205  0.00  0.00    +0.000 C 
ATOM      5  C   UNL     1       1.771   3.025  20.615  0.00  0.00    +0.000 C 
ATOM      6  C   UNL     1       1.519   4.514  20.860  0.00  0.00    +0.000 C 
ATOM      7  C   UNL     1       1.962   5.364  19.654  0.00  0.00    +0.000 C 
ATOM      8  C   UNL     1       3.417   5.042  19.280  0.00  0.00    +0.000 C 
ENDROOT
BRANCH   7   9
ATOM      9  C   UNL     1       1.813   6.819  19.926  0.00  0.00    +0.000 A 
ATOM     10  N   UNL     1       2.145   7.764  19.040  0.00  0.00    +0.000 NA
ATOM     11  O   UNL     1       1.833   8.948  19.711  0.00  0.00    +0.000 OA
ATOM     12  C   UNL     1       1.353   8.588  20.940  0.00  0.00    +0.000 A 
ATOM     13  N   UNL     1       1.343   7.287  21.124  0.00  0.00    +0.000 NA
BRANCH  12  14
ATOM     14  C   UNL     1       0.859   9.594  21.967  0.00  0.00    +0.000 C 
ATOM     15  C   UNL     1      -0.329   9.241  22.841  0.00  0.00    +0.000 C 
ATOM     16  C   UNL     1      -0.503  10.223  21.735  0.00  0.00    +0.000 C 
ENDBRANCH  12  14
ENDBRANCH   7   9
BRANCH   1  17
ATOM     17  C   UNL     1       4.521   3.880  16.755  0.00  0.00    +0.000 C 
BRANCH  17  24
ATOM     18  O   UNL     1       8.259   9.998  17.766  0.00  0.00    +0.000 OA
ATOM     19  C   UNL     1       7.866   8.842  17.784  0.00  0.00    +0.000 C 
ATOM     20  C   UNL     1       8.508   7.668  18.533  0.00  0.00    +0.000 C 
ATOM     21  C   UNL     1       7.598   6.530  18.173  0.00  0.00    +0.000 A 
ATOM     22  C   UNL     1       7.650   5.200  18.538  0.00  0.00    +0.000 A 
ATOM     23  C   UNL     1       6.655   4.343  18.050  0.00  0.00    +0.000 A 
ATOM     24  C   UNL     1       5.619   4.817  17.209  0.00  0.00    +0.000 A 
ATOM     25  C   UNL     1       5.583   6.177  16.860  0.00  0.00    +0.000 A 
ATOM     26  C   UNL     1       6.581   6.997  17.346  0.00  0.00    +0.000 A 
ATOM     27  N   UNL     1       6.744   8.355  17.123  0.00  0.00    +0.000 N 
ATOM     28  H   UNL     1       6.152   8.938  16.552  0.00  0.00    +0.000 HD
ENDBRANCH  17  24
ENDBRANCH   1  17
TORSDOF 4
ENDMDL
MODEL 6
REMARK VINA RESULT:      -8.2      1.349      1.652
REMARK  Name = 
REMARK  4 active torsions:
REMARK  status: ('A' for Active; 'I' for Inactive)
REMARK    1  A    between atoms: C_7  and  C_8
REMARK    2  A    between atoms: C_8  and  C_9
REMARK    3  A    between atoms: C_15  and  C_16
REMARK    4  A    between atoms: C_19  and  C_20
REMARK                            x       y       z     vdW  Elec       q    Type
REMARK                         _______ _______ _______ _____ _____    ______ ____
ROOT
ATOM      1  C   UNL     1       1.914   7.750  19.738  0.00  0.00    +0.000 C 
ATOM      2  O   UNL     1       1.594   7.801  20.930  0.00  0.00    +0.000 OA
ATOM      3  N   UNL     1       2.256   6.556  19.119  0.00  0.00    +0.000 N 
ATOM      4  C   UNL     1       2.100   5.294  19.840  0.00  0.00    +0.000 C 
ATOM      5  C   UNL     1       3.454   4.629  20.077  0.00  0.00    +0.000 C 
ATOM      6  C   UNL     1       4.231   4.474  18.769  0.00  0.00    +0.000 C 
ATOM      7  C   UNL     1       4.343   5.816  18.020  0.00  0.00    +0.000 C 
ATOM      8  C   UNL     1       2.952   6.440  17.835  0.00  0.00    +0.000 C 
ENDROOT
BRANCH   7   9
ATOM      9  C   UNL     1       5.010   5.651  16.700  0.00  0.00    +0.000 A 
ATOM     10  N   UNL     1       5.511   6.677  16.004  0.00  0.00    +0.000 NA
ATOM     11  O   UNL     1       6.033   6.060  14.866  0.00  0.00    +0.000 OA
ATOM     12  C   UNL     1       5.781   4.722  14.995  0.00  0.00    +0.000 A 
ATOM     13  N   UNL     1       5.133   4.427  16.099  0.00  0.00    +0.000 NA
BRANCH  12  14
ATOM     14  C   UNL     1       6.232   3.689  13.975  0.00  0.00    +0.000 C 
ATOM     15  C   UNL     1       6.819   4.153  12.657  0.00  0.00    +0.000 C 
ATOM     16  C   UNL     1       5.442   3.587  12.683  0.00  0.00    +0.000 C 
ENDBRANCH  12  14
ENDBRANCH   7   9
BRANCH   1  17
ATOM     17  C   UNL     1       1.867   9.020  18.892  0.00  0.00    +0.000 C 
BRANCH  17  24
ATOM     18  O   UNL     1      -3.668  13.352  20.626  0.00  0.00    +0.000 OA
ATOM     19  C   UNL     1      -2.924  12.559  20.073  0.00  0.00    +0.000 C 
ATOM     20  C   UNL     1      -3.167  11.856  18.732  0.00  0.00    +0.000 C 
ATOM     21  C   UNL     1      -1.930  11.018  18.588  0.00  0.00    +0.000 A 
ATOM     22  C   UNL     1      -1.557  10.150  17.582  0.00  0.00    +0.000 A 
ATOM     23  C   UNL     1      -0.329   9.487  17.705  0.00  0.00    +0.000 A 
ATOM     24  C   UNL     1       0.516   9.698  18.822  0.00  0.00    +0.000 A 
ATOM     25  C   UNL     1       0.117  10.594  19.828  0.00  0.00    +0.000 A 
ATOM     26  C   UNL     1      -1.102  11.224  19.687  0.00  0.00    +0.000 A 
ATOM     27  N   UNL     1      -1.691  12.131  20.554  0.00  0.00    +0.000 N 
ATOM     28  H   UNL     1      -1.308  12.448  21.431  0.00  0.00    +0.000 HD
ENDBRANCH  17  24
ENDBRANCH   1  17
TORSDOF 4
ENDMDL
MODEL 7
REMARK VINA RESULT:      -8.1      2.008      2.190
REMARK  Name = 
REMARK  4 active torsions:
REMARK  status: ('A' for Active; 'I' for Inactive)
REMARK    1  A    between atoms: C_7  and  C_8
REMARK    2  A    between atoms: C_8  and  C_9
REMARK    3  A    between atoms: C_15  and  C_16
REMARK    4  A    between atoms: C_19  and  C_20
REMARK                            x       y       z     vdW  Elec       q    Type
REMARK                         _______ _______ _______ _____ _____    ______ ____
ROOT
ATOM      1  C   UNL     1       2.488   6.319  19.206  0.00  0.00    +0.000 C 
ATOM      2  O   UNL     1       2.036   6.234  20.353  0.00  0.00    +0.000 OA
ATOM      3  N   UNL     1       2.906   5.201  18.498  0.00  0.00    +0.000 N 
ATOM      4  C   UNL     1       2.681   3.866  19.048  0.00  0.00    +0.000 C 
ATOM      5  C   UNL     1       4.005   3.172  19.358  0.00  0.00    +0.000 C 
ATOM      6  C   UNL     1       4.925   3.163  18.136  0.00  0.00    +0.000 C 
ATOM      7  C   UNL     1       5.109   4.581  17.561  0.00  0.00    +0.000 C 
ATOM      8  C   UNL     1       3.742   5.229  17.295  0.00  0.00    +0.000 C 
ENDROOT
BRANCH   7   9
ATOM      9  C   UNL     1       5.921   4.565  16.315  0.00  0.00    +0.000 A 
ATOM     10  N   UNL     1       7.246   4.737  16.307  0.00  0.00    +0.000 NA
ATOM     11  O   UNL     1       7.568   4.638  14.952  0.00  0.00    +0.000 OA
ATOM     12  C   UNL     1       6.394   4.424  14.284  0.00  0.00    +0.000 A 
ATOM     13  N   UNL     1       5.350   4.394  15.082  0.00  0.00    +0.000 NA
BRANCH  12  14
ATOM     14  C   UNL     1       6.318   4.218  12.780  0.00  0.00    +0.000 C 
ATOM     15  C   UNL     1       5.123   3.497  12.189  0.00  0.00    +0.000 C 
ATOM     16  C   UNL     1       6.436   2.797  12.260  0.00  0.00    +0.000 C 
ENDBRANCH  12  14
ENDBRANCH   7   9
BRANCH   1  17
ATOM     17  C   UNL     1       2.525   7.677  18.510  0.00  0.00    +0.000 C 
BRANCH  17  24
ATOM     18  O   UNL     1      -1.086  11.802  23.239  0.00  0.00    +0.000 OA
ATOM     19  C   UNL     1      -0.645  11.286  22.225  0.00  0.00    +0.000 C 
ATOM     20  C   UNL     1      -0.987  11.667  20.779  0.00  0.00    +0.000 C 
ATOM     21  C   UNL     1      -0.158  10.694  19.993  0.00  0.00    +0.000 A 
ATOM     22  C   UNL     1      -0.035  10.530  18.628  0.00  0.00    +0.000 A 
ATOM     23  C   UNL     1       0.824   9.528  18.159  0.00  0.00    +0.000 A 
ATOM     24  C   UNL     1       1.554   8.704  19.049  0.00  0.00    +0.000 A 
ATOM     25  C   UNL     1       1.418   8.897  20.434  0.00  0.00    +0.000 A 
ATOM     26  C   UNL     1       0.558   9.884  20.869  0.00  0.00    +0.000 A 
ATOM     27  N   UNL     1       0.268  10.238  22.177  0.00  0.00    +0.000 N 
ATOM     28  H   UNL     1       0.643   9.804  23.006  0.00  0.00    +0.000 HD
ENDBRANCH  17  24
ENDBRANCH   1  17
TORSDOF 4
ENDMDL
MODEL 8
REMARK VINA RESULT:      -8.1      1.351      1.770
REMARK  Name = 
REMARK  4 active torsions:
REMARK  status: ('A' for Active; 'I' for Inactive)
REMARK    1  A    between atoms: C_7  and  C_8
REMARK    2  A    between atoms: C_8  and  C_9
REMARK    3  A    between atoms: C_15  and  C_16
REMARK    4  A    between atoms: C_19  and  C_20
REMARK                            x       y       z     vdW  Elec       q    Type
REMARK                         _______ _______ _______ _____ _____    ______ ____
ROOT
ATOM      1  C   UNL     1       2.667   7.393  18.726  0.00  0.00    +0.000 C 
ATOM      2  O   UNL     1       2.263   7.497  19.889  0.00  0.00    +0.000 OA
ATOM      3  N   UNL     1       3.158   6.196  18.224  0.00  0.00    +0.000 N 
ATOM      4  C   UNL     1       3.067   4.979  19.028  0.00  0.00    +0.000 C 
ATOM      5  C   UNL     1       4.456   4.465  19.399  0.00  0.00    +0.000 C 
ATOM      6  C   UNL     1       5.333   4.292  18.158  0.00  0.00    +0.000 C 
ATOM      7  C   UNL     1       5.374   5.582  17.316  0.00  0.00    +0.000 C 
ATOM      8  C   UNL     1       3.948   6.057  16.998  0.00  0.00    +0.000 C 
ENDROOT
BRANCH   7   9
ATOM      9  C   UNL     1       6.143   5.389  16.057  0.00  0.00    +0.000 A 
ATOM     10  N   UNL     1       7.426   5.744  15.926  0.00  0.00    +0.000 NA
ATOM     11  O   UNL     1       7.721   5.375  14.612  0.00  0.00    +0.000 OA
ATOM     12  C   UNL     1       6.575   4.843  14.087  0.00  0.00    +0.000 A 
ATOM     13  N   UNL     1       5.572   4.852  14.935  0.00  0.00    +0.000 NA
BRANCH  12  14
ATOM     14  C   UNL     1       6.490   4.278  12.678  0.00  0.00    +0.000 C 
ATOM     15  C   UNL     1       5.213   3.598  12.227  0.00  0.00    +0.000 C 
ATOM     16  C   UNL     1       6.413   2.770  12.530  0.00  0.00    +0.000 C 
ENDBRANCH  12  14
ENDBRANCH   7   9
BRANCH   1  17
ATOM     17  C   UNL     1       2.564   8.589  17.784  0.00  0.00    +0.000 C 
BRANCH  17  24
ATOM     18  O   UNL     1      -0.674  14.656  20.048  0.00  0.00    +0.000 OA
ATOM     19  C   UNL     1      -0.435  13.553  19.585  0.00  0.00    +0.000 C 
ATOM     20  C   UNL     1      -1.446  12.581  18.964  0.00  0.00    +0.000 C 
ATOM     21  C   UNL     1      -0.575  11.417  18.592  0.00  0.00    +0.000 A 
ATOM     22  C   UNL     1      -0.903  10.216  17.994  0.00  0.00    +0.000 A 
ATOM     23  C   UNL     1       0.125   9.295  17.758  0.00  0.00    +0.000 A 
ATOM     24  C   UNL     1       1.466   9.577  18.114  0.00  0.00    +0.000 A 
ATOM     25  C   UNL     1       1.775  10.810  18.713  0.00  0.00    +0.000 A 
ATOM     26  C   UNL     1       0.742  11.694  18.943  0.00  0.00    +0.000 A 
ATOM     27  N   UNL     1       0.817  12.950  19.525  0.00  0.00    +0.000 N 
ATOM     28  H   UNL     1       1.652  13.391  19.879  0.00  0.00    +0.000 HD
ENDBRANCH  17  24
ENDBRANCH   1  17
TORSDOF 4
ENDMDL
MODEL 9
REMARK VINA RESULT:      -7.9      2.522      3.590
REMARK  Name = 
REMARK  4 active torsions:
REMARK  status: ('A' for Active; 'I' for Inactive)
REMARK    1  A    between atoms: C_7  and  C_8
REMARK    2  A    between atoms: C_8  and  C_9
REMARK    3  A    between atoms: C_15  and  C_16
REMARK    4  A    between atoms: C_19  and  C_20
REMARK                            x       y       z     vdW  Elec       q    Type
REMARK                         _______ _______ _______ _____ _____    ______ ____
ROOT
ATOM      1  C   UNL     1       1.707   5.514  19.993  0.00  0.00    +0.000 C 
ATOM      2  O   UNL     1       0.844   4.760  20.454  0.00  0.00    +0.000 OA
ATOM      3  N   UNL     1       2.213   5.354  18.710  0.00  0.00    +0.000 N 
ATOM      4  C   UNL     1       1.619   4.365  17.813  0.00  0.00    +0.000 C 
ATOM      5  C   UNL     1       2.618   3.261  17.479  0.00  0.00    +0.000 C 
ATOM      6  C   UNL     1       3.927   3.842  16.940  0.00  0.00    +0.000 C 
ATOM      7  C   UNL     1       4.502   4.907  17.893  0.00  0.00    +0.000 C 
ATOM      8  C   UNL     1       3.441   5.972  18.205  0.00  0.00    +0.000 C 
ENDROOT
BRANCH   7   9
ATOM      9  C   UNL     1       5.720   5.547  17.326  0.00  0.00    +0.000 A 
ATOM     10  N   UNL     1       6.289   5.146  16.184  0.00  0.00    +0.000 NA
ATOM     11  O   UNL     1       7.370   6.020  16.047  0.00  0.00    +0.000 OA
ATOM     12  C   UNL     1       7.341   6.852  17.132  0.00  0.00    +0.000 A 
ATOM     13  N   UNL     1       6.355   6.582  17.958  0.00  0.00    +0.000 NA
BRANCH  12  14
ATOM     14  C   UNL     1       8.335   7.983  17.339  0.00  0.00    +0.000 C 
ATOM     15  C   UNL     1       8.545   8.542  18.732  0.00  0.00    +0.000 C 
ATOM     16  C   UNL     1       7.781   9.340  17.733  0.00  0.00    +0.000 C 
ENDBRANCH  12  14
ENDBRANCH   7   9
BRANCH   1  17
ATOM     17  C   UNL     1       2.188   6.702  20.821  0.00  0.00    +0.000 C 
BRANCH  17  24
ATOM     18  O   UNL     1      -0.845  12.603  17.923  0.00  0.00    +0.000 OA
ATOM     19  C   UNL     1      -0.525  11.689  18.665  0.00  0.00    +0.000 C 
ATOM     20  C   UNL     1      -1.074  11.415  20.071  0.00  0.00    +0.000 C 
ATOM     21  C   UNL     1      -0.309  10.187  20.473  0.00  0.00    +0.000 A 
ATOM     22  C   UNL     1      -0.355   9.454  21.641  0.00  0.00    +0.000 A 
ATOM     23  C   UNL     1       0.480   8.335  21.751  0.00  0.00    +0.000 A 
ATOM     24  C   UNL     1       1.348   7.955  20.699  0.00  0.00    +0.000 A 
ATOM     25  C   UNL     1       1.369   8.713  19.516  0.00  0.00    +0.000 A 
ATOM     26  C   UNL     1       0.544   9.815  19.438  0.00  0.00    +0.000 A 
ATOM     27  N   UNL     1       0.411  10.701  18.381  0.00  0.00    +0.000 N 
ATOM     28  H   UNL     1       0.921  10.667  17.511  0.00  0.00    +0.000 HD
ENDBRANCH  17  24
ENDBRANCH   1  17
TORSDOF 4
ENDMDL
