MODEL 1
REMARK VINA RESULT:      -7.3      0.000      0.000
REMARK  Name = 
REMARK  2 active torsions:
REMARK  status: ('A' for Active; 'I' for Inactive)
REMARK    1  A    between atoms: C_2  and  C_3
REMARK    2  A    between atoms: C_5  and  C_6
REMARK                            x       y       z     vdW  Elec       q    Type
REMARK                         _______ _______ _______ _____ _____    ______ ____
ROOT
ATOM      1  C   UNL     1       2.529   4.725  18.359  0.00  0.00    +0.000 A 
ATOM      2  C   UNL     1       2.326   6.102  18.478  0.00  0.00    +0.000 A 
ATOM      3  C   UNL     1       1.940   6.622  19.702  0.00  0.00    +0.000 A 
ATOM      4  N   UNL     1       1.836   5.832  20.796  0.00  0.00    +0.000 NA
ATOM      5  C   UNL     1       2.011   4.506  20.684  0.00  0.00    +0.000 A 
ATOM      6  C   UNL     1       1.975   3.740  21.843  0.00  0.00    +0.000 A 
ATOM      7  C   UNL     1       2.198   2.361  21.829  0.00  0.00    +0.000 A 
ATOM      8  C   UNL     1       2.387   1.710  20.621  0.00  0.00    +0.000 A 
ATOM      9  C   UNL     1       2.380   2.450  19.436  0.00  0.00    +0.000 A 
ATOM     10  C   UNL     1       2.282   3.863  19.459  0.00  0.00    +0.000 A 
ENDROOT
BRANCH   1  12
ATOM     11  O   UNL     1       2.218   3.816  16.255  0.00  0.00    +0.000 OA
ATOM     12  C   UNL     1       3.052   4.284  17.044  0.00  0.00    +0.000 C 
ATOM     13  N   UNL     1       4.397   4.396  16.706  0.00  0.00    +0.000 N 
ATOM     14  C   UNL     1       4.902   3.773  15.476  0.00  0.00    +0.000 C 
ATOM     15  C   UNL     1       6.414   3.588  15.658  0.00  0.00    +0.000 C 
ATOM     16  C   UNL     1       6.677   4.413  16.876  0.00  0.00    +0.000 A 
ATOM     17  C   UNL     1       7.891   4.583  17.530  0.00  0.00    +0.000 A 
ATOM     18  C   UNL     1       7.905   5.295  18.730  0.00  0.00    +0.000 A 
ATOM     19  C   UNL     1       6.736   5.897  19.208  0.00  0.00    +0.000 A 
ATOM     20  C   UNL     1       5.535   5.769  18.506  0.00  0.00    +0.000 A 
ATOM     21  C   UNL     1       5.495   4.939  17.401  0.00  0.00    +0.000 A 
ENDBRANCH   1  12
BRANCH   3  22
ATOM     22  C   UNL     1       1.610   8.047  19.898  0.00  0.00    +0.000 A 
ATOM     23  C   UNL     1       1.591   8.948  18.823  0.00  0.00    +0.000 A 
ATOM     24  C   UNL     1       1.227  10.268  19.045  0.00  0.00    +0.000 A 
ATOM     25  N   UNL     1       0.887  10.759  20.253  0.00  0.00    +0.000 NA
ATOM     26  C   UNL     1       0.907   9.887  21.282  0.00  0.00    +0.000 A 
ATOM     27  C   UNL     1       1.256   8.550  21.157  0.00  0.00    +0.000 A 
ENDBRANCH   3  22
TORSDOF 2
ENDMDL
MODEL 2
REMARK VINA RESULT:      -7.3      4.216     10.081
REMARK  Name = 
REMARK  2 active torsions:
REMARK  status: ('A' for Active; 'I' for Inactive)
REMARK    1  A    between atoms: C_2  and  C_3
REMARK    2  A    between atoms: C_5  and  C_6
REMARK                            x       y       z     vdW  Elec       q    Type
REMARK                         _______ _______ _______ _____ _____    ______ ____
ROOT
ATOM      1  C   UNL     1      -0.908  11.825  18.756  0.00  0.00    +0.000 A 
ATOM      2  C   UNL     1      -0.393  10.528  18.816  0.00  0.00    +0.000 A 
ATOM      3  C   UNL     1       0.975  10.353  18.928  0.00  0.00    +0.000 A 
ATOM      4  N   UNL     1       1.809  11.411  19.060  0.00  0.00    +0.000 NA
ATOM      5  C   UNL     1       1.321  12.660  18.982  0.00  0.00    +0.000 A 
ATOM      6  C   UNL     1       2.195  13.718  19.202  0.00  0.00    +0.000 A 
ATOM      7  C   UNL     1       1.767  15.048  19.193  0.00  0.00    +0.000 A 
ATOM      8  C   UNL     1       0.450  15.341  18.882  0.00  0.00    +0.000 A 
ATOM      9  C   UNL     1      -0.439  14.298  18.611  0.00  0.00    +0.000 A 
ATOM     10  C   UNL     1      -0.038  12.946  18.744  0.00  0.00    +0.000 A 
ENDROOT
BRANCH   1  12
ATOM     11  O   UNL     1      -2.950  11.630  17.686  0.00  0.00    +0.000 OA
ATOM     12  C   UNL     1      -2.389  11.908  18.755  0.00  0.00    +0.000 C 
ATOM     13  N   UNL     1      -3.111  12.265  19.890  0.00  0.00    +0.000 N 
ATOM     14  C   UNL     1      -4.553  12.523  19.794  0.00  0.00    +0.000 C 
ATOM     15  C   UNL     1      -4.933  13.394  20.998  0.00  0.00    +0.000 C 
ATOM     16  C   UNL     1      -3.702  13.299  21.842  0.00  0.00    +0.000 A 
ATOM     17  C   UNL     1      -3.465  13.932  23.055  0.00  0.00    +0.000 A 
ATOM     18  C   UNL     1      -2.198  13.815  23.628  0.00  0.00    +0.000 A 
ATOM     19  C   UNL     1      -1.226  13.002  23.034  0.00  0.00    +0.000 A 
ATOM     20  C   UNL     1      -1.501  12.322  21.846  0.00  0.00    +0.000 A 
ATOM     21  C   UNL     1      -2.703  12.560  21.205  0.00  0.00    +0.000 A 
ENDBRANCH   1  12
BRANCH   3  22
ATOM     22  C   UNL     1       1.616   9.023  18.902  0.00  0.00    +0.000 A 
ATOM     23  C   UNL     1       2.315   8.569  17.774  0.00  0.00    +0.000 A 
ATOM     24  C   UNL     1       2.944   7.334  17.812  0.00  0.00    +0.000 A 
ATOM     25  N   UNL     1       2.926   6.516  18.882  0.00  0.00    +0.000 NA
ATOM     26  C   UNL     1       2.253   6.958  19.964  0.00  0.00    +0.000 A 
ATOM     27  C   UNL     1       1.594   8.178  20.021  0.00  0.00    +0.000 A 
ENDBRANCH   3  22
TORSDOF 2
ENDMDL
MODEL 3
REMARK VINA RESULT:      -7.2      6.755     10.615
REMARK  Name = 
REMARK  2 active torsions:
REMARK  status: ('A' for Active; 'I' for Inactive)
REMARK    1  A    between atoms: C_2  and  C_3
REMARK    2  A    between atoms: C_5  and  C_6
REMARK                            x       y       z     vdW  Elec       q    Type
REMARK                         _______ _______ _______ _____ _____    ______ ____
ROOT
ATOM      1  C   UNL     1      -0.467  12.925  22.136  0.00  0.00    +0.000 A 
ATOM      2  C   UNL     1       0.162  13.840  21.289  0.00  0.00    +0.000 A 
ATOM      3  C   UNL     1       1.017  13.370  20.307  0.00  0.00    +0.000 A 
ATOM      4  N   UNL     1       1.190  12.043  20.105  0.00  0.00    +0.000 NA
ATOM      5  C   UNL     1       0.604  11.159  20.929  0.00  0.00    +0.000 A 
ATOM      6  C   UNL     1       0.739   9.806  20.642  0.00  0.00    +0.000 A 
ATOM      7  C   UNL     1       0.121   8.817  21.411  0.00  0.00    +0.000 A 
ATOM      8  C   UNL     1      -0.589   9.177  22.544  0.00  0.00    +0.000 A 
ATOM      9  C   UNL     1      -0.702  10.528  22.883  0.00  0.00    +0.000 A 
ATOM     10  C   UNL     1      -0.184  11.537  22.034  0.00  0.00    +0.000 A 
ENDROOT
BRANCH   1  12
ATOM     11  O   UNL     1      -0.992  13.957  24.138  0.00  0.00    +0.000 OA
ATOM     12  C   UNL     1      -1.450  13.517  23.074  0.00  0.00    +0.000 C 
ATOM     13  N   UNL     1      -2.808  13.588  22.777  0.00  0.00    +0.000 N 
ATOM     14  C   UNL     1      -3.767  14.003  23.808  0.00  0.00    +0.000 C 
ATOM     15  C   UNL     1      -5.139  13.465  23.385  0.00  0.00    +0.000 C 
ATOM     16  C   UNL     1      -4.879  13.044  21.974  0.00  0.00    +0.000 A 
ATOM     17  C   UNL     1      -5.773  12.441  21.098  0.00  0.00    +0.000 A 
ATOM     18  C   UNL     1      -5.298  12.007  19.860  0.00  0.00    +0.000 A 
ATOM     19  C   UNL     1      -3.974  12.260  19.482  0.00  0.00    +0.000 A 
ATOM     20  C   UNL     1      -3.104  12.923  20.350  0.00  0.00    +0.000 A 
ATOM     21  C   UNL     1      -3.536  13.216  21.631  0.00  0.00    +0.000 A 
ENDBRANCH   1  12
BRANCH   3  22
ATOM     22  C   UNL     1       1.798  14.265  19.431  0.00  0.00    +0.000 A 
ATOM     23  C   UNL     1       2.954  13.820  18.773  0.00  0.00    +0.000 A 
ATOM     24  C   UNL     1       3.629  14.681  17.920  0.00  0.00    +0.000 A 
ATOM     25  N   UNL     1       3.244  15.949  17.677  0.00  0.00    +0.000 NA
ATOM     26  C   UNL     1       2.132  16.371  18.313  0.00  0.00    +0.000 A 
ATOM     27  C   UNL     1       1.391  15.583  19.183  0.00  0.00    +0.000 A 
ENDBRANCH   3  22
TORSDOF 2
ENDMDL
MODEL 4
REMARK VINA RESULT:      -7.0      7.254     12.220
REMARK  Name = 
REMARK  2 active torsions:
REMARK  status: ('A' for Active; 'I' for Inactive)
REMARK    1  A    between atoms: C_2  and  C_3
REMARK    2  A    between atoms: C_5  and  C_6
REMARK                            x       y       z     vdW  Elec       q    Type
REMARK                         _______ _______ _______ _____ _____    ______ ____
ROOT
ATOM      1  C   UNL     1      -4.031  13.373  22.626  0.00  0.00    +0.000 A 
ATOM      2  C   UNL     1      -3.124  12.311  22.604  0.00  0.00    +0.000 A 
ATOM      3  C   UNL     1      -1.771  12.584  22.512  0.00  0.00    +0.000 A 
ATOM      4  N   UNL     1      -1.310  13.857  22.524  0.00  0.00    +0.000 NA
ATOM      5  C   UNL     1      -2.178  14.882  22.525  0.00  0.00    +0.000 A 
ATOM      6  C   UNL     1      -1.668  16.171  22.619  0.00  0.00    +0.000 A 
ATOM      7  C   UNL     1      -2.495  17.295  22.680  0.00  0.00    +0.000 A 
ATOM      8  C   UNL     1      -3.867  17.141  22.568  0.00  0.00    +0.000 A 
ATOM      9  C   UNL     1      -4.404  15.859  22.425  0.00  0.00    +0.000 A 
ATOM     10  C   UNL     1      -3.576  14.711  22.492  0.00  0.00    +0.000 A 
ENDROOT
BRANCH   1  12
ATOM     11  O   UNL     1      -5.895  13.183  23.981  0.00  0.00    +0.000 OA
ATOM     12  C   UNL     1      -5.444  12.982  22.844  0.00  0.00    +0.000 C 
ATOM     13  N   UNL     1      -6.227  12.434  21.833  0.00  0.00    +0.000 N 
ATOM     14  C   UNL     1      -7.553  11.885  22.142  0.00  0.00    +0.000 C 
ATOM     15  C   UNL     1      -7.904  10.903  21.018  0.00  0.00    +0.000 C 
ATOM     16  C   UNL     1      -6.854  11.218  20.001  0.00  0.00    +0.000 A 
ATOM     17  C   UNL     1      -6.660  10.597  18.773  0.00  0.00    +0.000 A 
ATOM     18  C   UNL     1      -5.541  10.951  18.020  0.00  0.00    +0.000 A 
ATOM     19  C   UNL     1      -4.691  11.974  18.454  0.00  0.00    +0.000 A 
ATOM     20  C   UNL     1      -4.934  12.632  19.662  0.00  0.00    +0.000 A 
ATOM     21  C   UNL     1      -5.955  12.175  20.475  0.00  0.00    +0.000 A 
ENDBRANCH   1  12
BRANCH   3  22
ATOM     22  C   UNL     1      -0.748  11.527  22.386  0.00  0.00    +0.000 A 
ATOM     23  C   UNL     1      -0.734  10.416  23.241  0.00  0.00    +0.000 A 
ATOM     24  C   UNL     1       0.215   9.422  23.054  0.00  0.00    +0.000 A 
ATOM     25  N   UNL     1       1.152   9.453  22.087  0.00  0.00    +0.000 NA
ATOM     26  C   UNL     1       1.133  10.523  21.267  0.00  0.00    +0.000 A 
ATOM     27  C   UNL     1       0.223  11.566  21.375  0.00  0.00    +0.000 A 
ENDBRANCH   3  22
TORSDOF 2
ENDMDL
MODEL 5
REMARK VINA RESULT:      -7.0      6.969     10.926
REMARK  Name = 
REMARK  2 active torsions:
REMARK  status: ('A' for Active; 'I' for Inactive)
REMARK    1  A    between atoms: C_2  and  C_3
REMARK    2  A    between atoms: C_5  and  C_6
REMARK                            x       y       z     vdW  Elec       q    Type
REMARK                         _______ _______ _______ _____ _____    ______ ____
ROOT
ATOM      1  C   UNL     1      -0.461  13.294  22.032  0.00  0.00    +0.000 A 
ATOM      2  C   UNL     1       0.056  14.304  21.218  0.00  0.00    +0.000 A 
ATOM      3  C   UNL     1       0.827  13.957  20.122  0.00  0.00    +0.000 A 
ATOM      4  N   UNL     1       1.019  12.660  19.783  0.00  0.00    +0.000 NA
ATOM      5  C   UNL     1       0.541  11.685  20.573  0.00  0.00    +0.000 A 
ATOM      6  C   UNL     1       0.689  10.369  20.151  0.00  0.00    +0.000 A 
ATOM      7  C   UNL     1       0.178   9.293  20.880  0.00  0.00    +0.000 A 
ATOM      8  C   UNL     1      -0.431   9.523  22.103  0.00  0.00    +0.000 A 
ATOM      9  C   UNL     1      -0.551  10.833  22.573  0.00  0.00    +0.000 A 
ATOM     10  C   UNL     1      -0.148  11.933  21.777  0.00  0.00    +0.000 A 
ENDROOT
BRANCH   1  12
ATOM     11  O   UNL     1      -0.820  14.172  24.141  0.00  0.00    +0.000 OA
ATOM     12  C   UNL     1      -1.367  13.762  23.107  0.00  0.00    +0.000 C 
ATOM     13  N   UNL     1      -2.751  13.756  22.966  0.00  0.00    +0.000 N 
ATOM     14  C   UNL     1      -3.612  14.044  24.120  0.00  0.00    +0.000 C 
ATOM     15  C   UNL     1      -4.987  13.437  23.815  0.00  0.00    +0.000 C 
ATOM     16  C   UNL     1      -4.862  13.116  22.360  0.00  0.00    +0.000 A 
ATOM     17  C   UNL     1      -5.809  12.503  21.550  0.00  0.00    +0.000 A 
ATOM     18  C   UNL     1      -5.452  12.174  20.243  0.00  0.00    +0.000 A 
ATOM     19  C   UNL     1      -4.198  12.539  19.739  0.00  0.00    +0.000 A 
ATOM     20  C   UNL     1      -3.279  13.211  20.547  0.00  0.00    +0.000 A 
ATOM     21  C   UNL     1      -3.580  13.400  21.884  0.00  0.00    +0.000 A 
ENDBRANCH   1  12
BRANCH   3  22
ATOM     22  C   UNL     1       1.493  14.956  19.263  0.00  0.00    +0.000 A 
ATOM     23  C   UNL     1       0.934  16.224  19.047  0.00  0.00    +0.000 A 
ATOM     24  C   UNL     1       1.619  17.148  18.272  0.00  0.00    +0.000 A 
ATOM     25  N   UNL     1       2.812  16.906  17.694  0.00  0.00    +0.000 NA
ATOM     26  C   UNL     1       3.343  15.685  17.906  0.00  0.00    +0.000 A 
ATOM     27  C   UNL     1       2.734  14.696  18.666  0.00  0.00    +0.000 A 
ENDBRANCH   3  22
TORSDOF 2
ENDMDL
MODEL 6
REMARK VINA RESULT:      -6.9      6.816     12.452
REMARK  Name = 
REMARK  2 active torsions:
REMARK  status: ('A' for Active; 'I' for Inactive)
REMARK    1  A    between atoms: C_2  and  C_3
REMARK    2  A    between atoms: C_5  and  C_6
REMARK                            x       y       z     vdW  Elec       q    Type
REMARK                         _______ _______ _______ _____ _____    ______ ____
ROOT
ATOM      1  C   UNL     1      -3.405  13.760  22.226  0.00  0.00    +0.000 A 
ATOM      2  C   UNL     1      -2.673  12.587  22.419  0.00  0.00    +0.000 A 
ATOM      3  C   UNL     1      -1.467  12.430  21.758  0.00  0.00    +0.000 A 
ATOM      4  N   UNL     1      -0.951  13.423  20.996  0.00  0.00    +0.000 NA
ATOM      5  C   UNL     1      -1.660  14.546  20.792  0.00  0.00    +0.000 A 
ATOM      6  C   UNL     1      -1.063  15.574  20.071  0.00  0.00    +0.000 A 
ATOM      7  C   UNL     1      -1.703  16.797  19.854  0.00  0.00    +0.000 A 
ATOM      8  C   UNL     1      -3.002  16.978  20.298  0.00  0.00    +0.000 A 
ATOM      9  C   UNL     1      -3.642  15.942  20.985  0.00  0.00    +0.000 A 
ATOM     10  C   UNL     1      -2.951  14.751  21.317  0.00  0.00    +0.000 A 
ENDROOT
BRANCH   1  12
ATOM     11  O   UNL     1      -4.491  14.518  24.122  0.00  0.00    +0.000 OA
ATOM     12  C   UNL     1      -4.620  13.882  23.067  0.00  0.00    +0.000 C 
ATOM     13  N   UNL     1      -5.840  13.328  22.691  0.00  0.00    +0.000 N 
ATOM     14  C   UNL     1      -6.962  13.306  23.637  0.00  0.00    +0.000 C 
ATOM     15  C   UNL     1      -7.915  12.196  23.175  0.00  0.00    +0.000 C 
ATOM     16  C   UNL     1      -7.383  11.887  21.812  0.00  0.00    +0.000 A 
ATOM     17  C   UNL     1      -7.844  10.917  20.931  0.00  0.00    +0.000 A 
ATOM     18  C   UNL     1      -7.129  10.699  19.753  0.00  0.00    +0.000 A 
ATOM     19  C   UNL     1      -6.030  11.504  19.432  0.00  0.00    +0.000 A 
ATOM     20  C   UNL     1      -5.617  12.516  20.301  0.00  0.00    +0.000 A 
ATOM     21  C   UNL     1      -6.234  12.629  21.533  0.00  0.00    +0.000 A 
ENDBRANCH   1  12
BRANCH   3  22
ATOM     22  C   UNL     1      -0.673  11.187  21.824  0.00  0.00    +0.000 A 
ATOM     23  C   UNL     1       0.074  10.736  20.727  0.00  0.00    +0.000 A 
ATOM     24  C   UNL     1       0.844   9.589  20.850  0.00  0.00    +0.000 A 
ATOM     25  N   UNL     1       0.923   8.857  21.978  0.00  0.00    +0.000 NA
ATOM     26  C   UNL     1       0.203   9.296  23.030  0.00  0.00    +0.000 A 
ATOM     27  C   UNL     1      -0.595  10.431  23.002  0.00  0.00    +0.000 A 
ENDBRANCH   3  22
TORSDOF 2
ENDMDL
MODEL 7
REMARK VINA RESULT:      -6.9      6.016     10.179
REMARK  Name = 
REMARK  2 active torsions:
REMARK  status: ('A' for Active; 'I' for Inactive)
REMARK    1  A    between atoms: C_2  and  C_3
REMARK    2  A    between atoms: C_5  and  C_6
REMARK                            x       y       z     vdW  Elec       q    Type
REMARK                         _______ _______ _______ _____ _____    ______ ____
ROOT
ATOM      1  C   UNL     1      -1.758  13.295  20.008  0.00  0.00    +0.000 A 
ATOM      2  C   UNL     1      -2.989  12.634  20.004  0.00  0.00    +0.000 A 
ATOM      3  C   UNL     1      -4.057  13.199  20.679  0.00  0.00    +0.000 A 
ATOM      4  N   UNL     1      -3.950  14.411  21.271  0.00  0.00    +0.000 NA
ATOM      5  C   UNL     1      -2.765  15.041  21.295  0.00  0.00    +0.000 A 
ATOM      6  C   UNL     1      -2.713  16.319  21.841  0.00  0.00    +0.000 A 
ATOM      7  C   UNL     1      -1.536  17.071  21.861  0.00  0.00    +0.000 A 
ATOM      8  C   UNL     1      -0.358  16.510  21.396  0.00  0.00    +0.000 A 
ATOM      9  C   UNL     1      -0.372  15.210  20.885  0.00  0.00    +0.000 A 
ATOM     10  C   UNL     1      -1.587  14.495  20.747  0.00  0.00    +0.000 A 
ENDROOT
BRANCH   1  12
ATOM     11  O   UNL     1      -0.549  13.172  18.041  0.00  0.00    +0.000 OA
ATOM     12  C   UNL     1      -0.713  12.671  19.162  0.00  0.00    +0.000 C 
ATOM     13  N   UNL     1       0.051  11.594  19.601  0.00  0.00    +0.000 N 
ATOM     14  C   UNL     1       0.935  10.887  18.665  0.00  0.00    +0.000 C 
ATOM     15  C   UNL     1       1.186   9.493  19.253  0.00  0.00    +0.000 C 
ATOM     16  C   UNL     1       0.652   9.648  20.641  0.00  0.00    +0.000 A 
ATOM     17  C   UNL     1       0.583   8.673  21.628  0.00  0.00    +0.000 A 
ATOM     18  C   UNL     1      -0.068   8.983  22.822  0.00  0.00    +0.000 A 
ATOM     19  C   UNL     1      -0.557  10.275  23.047  0.00  0.00    +0.000 A 
ATOM     20  C   UNL     1      -0.425  11.262  22.068  0.00  0.00    +0.000 A 
ATOM     21  C   UNL     1       0.085  10.910  20.831  0.00  0.00    +0.000 A 
ENDBRANCH   1  12
BRANCH   3  22
ATOM     22  C   UNL     1      -5.366  12.528  20.810  0.00  0.00    +0.000 A 
ATOM     23  C   UNL     1      -6.186  12.735  21.928  0.00  0.00    +0.000 A 
ATOM     24  C   UNL     1      -7.429  12.123  21.986  0.00  0.00    +0.000 A 
ATOM     25  N   UNL     1      -7.914  11.318  21.021  0.00  0.00    +0.000 NA
ATOM     26  C   UNL     1      -7.120  11.123  19.948  0.00  0.00    +0.000 A 
ATOM     27  C   UNL     1      -5.864  11.693  19.800  0.00  0.00    +0.000 A 
ENDBRANCH   3  22
TORSDOF 2
ENDMDL
MODEL 8
REMARK VINA RESULT:      -6.9      4.368      9.792
REMARK  Name = 
REMARK  2 active torsions:
REMARK  status: ('A' for Active; 'I' for Inactive)
REMARK    1  A    between atoms: C_2  and  C_3
REMARK    2  A    between atoms: C_5  and  C_6
REMARK                            x       y       z     vdW  Elec       q    Type
REMARK                         _______ _______ _______ _____ _____    ______ ____
ROOT
ATOM      1  C   UNL     1      -0.339  12.006  19.673  0.00  0.00    +0.000 A 
ATOM      2  C   UNL     1      -0.019  10.650  19.771  0.00  0.00    +0.000 A 
ATOM      3  C   UNL     1       1.220  10.218  19.331  0.00  0.00    +0.000 A 
ATOM      4  N   UNL     1       2.150  11.095  18.886  0.00  0.00    +0.000 NA
ATOM      5  C   UNL     1       1.841  12.397  18.772  0.00  0.00    +0.000 A 
ATOM      6  C   UNL     1       2.847  13.277  18.388  0.00  0.00    +0.000 A 
ATOM      7  C   UNL     1       2.632  14.654  18.294  0.00  0.00    +0.000 A 
ATOM      8  C   UNL     1       1.364  15.165  18.512  0.00  0.00    +0.000 A 
ATOM      9  C   UNL     1       0.323  14.296  18.853  0.00  0.00    +0.000 A 
ATOM     10  C   UNL     1       0.568  12.918  19.074  0.00  0.00    +0.000 A 
ENDROOT
BRANCH   1  12
ATOM     11  O   UNL     1      -1.597  12.801  21.443  0.00  0.00    +0.000 OA
ATOM     12  C   UNL     1      -1.639  12.385  20.277  0.00  0.00    +0.000 C 
ATOM     13  N   UNL     1      -2.837  12.292  19.575  0.00  0.00    +0.000 N 
ATOM     14  C   UNL     1      -4.115  12.492  20.270  0.00  0.00    +0.000 C 
ATOM     15  C   UNL     1      -5.196  11.806  19.425  0.00  0.00    +0.000 C 
ATOM     16  C   UNL     1      -4.459  11.533  18.153  0.00  0.00    +0.000 A 
ATOM     17  C   UNL     1      -4.942  10.883  17.025  0.00  0.00    +0.000 A 
ATOM     18  C   UNL     1      -4.055  10.613  15.982  0.00  0.00    +0.000 A 
ATOM     19  C   UNL     1      -2.734  11.073  16.041  0.00  0.00    +0.000 A 
ATOM     20  C   UNL     1      -2.280  11.781  17.157  0.00  0.00    +0.000 A 
ATOM     21  C   UNL     1      -3.118  11.913  18.249  0.00  0.00    +0.000 A 
ENDBRANCH   1  12
BRANCH   3  22
ATOM     22  C   UNL     1       1.609   8.794  19.305  0.00  0.00    +0.000 A 
ATOM     23  C   UNL     1       2.128   8.198  18.147  0.00  0.00    +0.000 A 
ATOM     24  C   UNL     1       2.526   6.869  18.183  0.00  0.00    +0.000 A 
ATOM     25  N   UNL     1       2.442   6.091  19.279  0.00  0.00    +0.000 NA
ATOM     26  C   UNL     1       1.942   6.670  20.389  0.00  0.00    +0.000 A 
ATOM     27  C   UNL     1       1.519   7.990  20.451  0.00  0.00    +0.000 A 
ENDBRANCH   3  22
TORSDOF 2
ENDMDL
MODEL 9
REMARK VINA RESULT:      -6.9      3.865      8.864
REMARK  Name = 
REMARK  2 active torsions:
REMARK  status: ('A' for Active; 'I' for Inactive)
REMARK    1  A    between atoms: C_2  and  C_3
REMARK    2  A    between atoms: C_5  and  C_6
REMARK                            x       y       z     vdW  Elec       q    Type
REMARK                         _______ _______ _______ _____ _____    ______ ____
ROOT
ATOM      1  C   UNL     1      -0.184  10.980  20.011  0.00  0.00    +0.000 A 
ATOM      2  C   UNL     1       0.897  10.099  19.936  0.00  0.00    +0.000 A 
ATOM      3  C   UNL     1       0.974   9.217  18.871  0.00  0.00    +0.000 A 
ATOM      4  N   UNL     1       0.068   9.251  17.867  0.00  0.00    +0.000 NA
ATOM      5  C   UNL     1      -0.984  10.082  17.943  0.00  0.00    +0.000 A 
ATOM      6  C   UNL     1      -1.849  10.146  16.856  0.00  0.00    +0.000 A 
ATOM      7  C   UNL     1      -2.939  11.019  16.824  0.00  0.00    +0.000 A 
ATOM      8  C   UNL     1      -3.225  11.797  17.933  0.00  0.00    +0.000 A 
ATOM      9  C   UNL     1      -2.399  11.718  19.058  0.00  0.00    +0.000 A 
ATOM     10  C   UNL     1      -1.222  10.929  19.043  0.00  0.00    +0.000 A 
ENDROOT
BRANCH   1  12
ATOM     11  O   UNL     1      -0.767  11.679  22.137  0.00  0.00    +0.000 OA
ATOM     12  C   UNL     1      -0.115  11.960  21.121  0.00  0.00    +0.000 C 
ATOM     13  N   UNL     1       0.646  13.121  21.038  0.00  0.00    +0.000 N 
ATOM     14  C   UNL     1       0.534  14.152  22.077  0.00  0.00    +0.000 C 
ATOM     15  C   UNL     1       1.021  15.467  21.457  0.00  0.00    +0.000 C 
ATOM     16  C   UNL     1       1.659  14.989  20.191  0.00  0.00    +0.000 A 
ATOM     17  C   UNL     1       2.244  15.766  19.200  0.00  0.00    +0.000 A 
ATOM     18  C   UNL     1       2.672  15.137  18.030  0.00  0.00    +0.000 A 
ATOM     19  C   UNL     1       2.594  13.745  17.906  0.00  0.00    +0.000 A 
ATOM     20  C   UNL     1       2.059  12.971  18.939  0.00  0.00    +0.000 A 
ATOM     21  C   UNL     1       1.500  13.611  20.030  0.00  0.00    +0.000 A 
ENDBRANCH   1  12
BRANCH   3  22
ATOM     22  C   UNL     1       2.026   8.187  18.760  0.00  0.00    +0.000 A 
ATOM     23  C   UNL     1       2.150   7.163  19.709  0.00  0.00    +0.000 A 
ATOM     24  C   UNL     1       3.121   6.187  19.538  0.00  0.00    +0.000 A 
ATOM     25  N   UNL     1       3.979   6.158  18.500  0.00  0.00    +0.000 NA
ATOM     26  C   UNL     1       3.854   7.145  17.590  0.00  0.00    +0.000 A 
ATOM     27  C   UNL     1       2.913   8.162  17.675  0.00  0.00    +0.000 A 
ENDBRANCH   3  22
TORSDOF 2
ENDMDL
