MODEL 1
REMARK VINA RESULT:      -9.3      0.000      0.000
REMARK  Name = 
REMARK  7 active torsions:
REMARK  status: ('A' for Active; 'I' for Inactive)
REMARK    1  A    between atoms: C_1  and  N_2
REMARK    2  A    between atoms: C_6  and  C_7
REMARK    3  A    between atoms: C_7  and  C_8
REMARK    4  A    between atoms: C_8  and  C_9
REMARK    5  A    between atoms: C_10  and  C_11
REMARK    6  A    between atoms: C_15  and  N_16
REMARK    7  A    between atoms: C_19  and  C_20
REMARK                            x       y       z     vdW  Elec       q    Type
REMARK                         _______ _______ _______ _____ _____    ______ ____
ROOT
ATOM      1  C   UNL     1       3.459   4.590  18.325  0.00  0.00    +0.000 A 
ATOM      2  C   UNL     1       3.128   3.582  19.230  0.00  0.00    +0.000 A 
ATOM      3  C   UNL     1       2.361   3.887  20.344  0.00  0.00    +0.000 A 
ATOM      4  C   UNL     1       1.915   5.196  20.544  0.00  0.00    +0.000 A 
ATOM      5  C   UNL     1       2.218   6.225  19.639  0.00  0.00    +0.000 A 
ATOM      6  C   UNL     1       3.014   5.903  18.528  0.00  0.00    +0.000 A 
ENDROOT
BRANCH   5   7
ATOM      7  N   UNL     1       1.725   7.548  19.834  0.00  0.00    +0.000 N 
ATOM      8  C   UNL     1       1.048   7.949  21.065  0.00  0.00    +0.000 C 
ATOM      9  C   UNL     1       0.694   9.395  20.853  0.00  0.00    +0.000 C 
ATOM     10  C   UNL     1       0.069  10.276  21.652  0.00  0.00    +0.000 C 
ATOM     11  C   UNL     1      -0.158  11.702  21.196  0.00  0.00    +0.000 C 
ATOM     12  C   UNL     1       0.346  12.067  19.776  0.00  0.00    +0.000 C 
ATOM     13  C   UNL     1       1.040  10.969  19.027  0.00  0.00    +0.000 C 
ATOM     14  C   UNL     1       1.178   9.753  19.553  0.00  0.00    +0.000 C 
ATOM     15  C   UNL     1       1.842   8.595  18.910  0.00  0.00    +0.000 C 
ATOM     16  O   UNL     1       2.370   8.650  17.814  0.00  0.00    +0.000 OA
BRANCH  10  17
ATOM     17  C   UNL     1      -0.421   9.923  23.019  0.00  0.00    +0.000 C 
ATOM     18  F   UNL     1      -1.163  10.907  23.582  0.00  0.00    +0.000 F 
ATOM     19  F   UNL     1      -1.192   8.808  22.994  0.00  0.00    +0.000 F 
ATOM     20  F   UNL     1       0.610   9.669  23.862  0.00  0.00    +0.000 F 
ENDBRANCH  10  17
ENDBRANCH   5   7
BRANCH   1  22
ATOM     21  C   UNL     1       4.930   4.010  16.234  0.00  0.00    +0.000 C 
ATOM     22  C   UNL     1       4.192   4.234  17.154  0.00  0.00    +0.000 C 
BRANCH  21  23
ATOM     23  C   UNL     1       5.983   3.777  15.237  0.00  0.00    +0.000 C 
BRANCH  23  24
ATOM     24  C   UNL     1       7.063   4.845  15.416  0.00  0.00    +0.000 C 
BRANCH  24  30
ATOM     25  C   UNL     1       6.466   7.343  17.154  0.00  0.00    +0.000 C 
ATOM     26  N   UNL     1       7.159   6.155  17.578  0.00  0.00    +0.000 N 
ATOM     27  C   UNL     1       7.642   5.917  18.827  0.00  0.00    +0.000 A 
ATOM     28  N   UNL     1       8.208   4.734  18.857  0.00  0.00    +0.000 NA
ATOM     29  N   UNL     1       8.085   4.181  17.607  0.00  0.00    +0.000 NA
ATOM     30  C   UNL     1       7.452   5.042  16.835  0.00  0.00    +0.000 A 
ENDBRANCH  24  30
ENDBRANCH  23  24
ENDBRANCH  21  23
ENDBRANCH   1  22
TORSDOF 6
ENDMDL
MODEL 2
REMARK VINA RESULT:      -8.6      1.838      2.577
REMARK  Name = 
REMARK  7 active torsions:
REMARK  status: ('A' for Active; 'I' for Inactive)
REMARK    1  A    between atoms: C_1  and  N_2
REMARK    2  A    between atoms: C_6  and  C_7
REMARK    3  A    between atoms: C_7  and  C_8
REMARK    4  A    between atoms: C_8  and  C_9
REMARK    5  A    between atoms: C_10  and  C_11
REMARK    6  A    between atoms: C_15  and  N_16
REMARK    7  A    between atoms: C_19  and  C_20
REMARK                            x       y       z     vdW  Elec       q    Type
REMARK                         _______ _______ _______ _____ _____    ______ ____
ROOT
ATOM      1  C   UNL     1       3.951   4.647  19.122  0.00  0.00    +0.000 A 
ATOM      2  C   UNL     1       3.376   3.592  19.829  0.00  0.00    +0.000 A 
ATOM      3  C   UNL     1       2.275   3.829  20.637  0.00  0.00    +0.000 A 
ATOM      4  C   UNL     1       1.742   5.117  20.727  0.00  0.00    +0.000 A 
ATOM      5  C   UNL     1       2.289   6.193  20.011  0.00  0.00    +0.000 A 
ATOM      6  C   UNL     1       3.418   5.940  19.215  0.00  0.00    +0.000 A 
ENDROOT
BRANCH   5   7
ATOM      7  N   UNL     1       1.714   7.495  20.082  0.00  0.00    +0.000 N 
ATOM      8  C   UNL     1       1.013   7.970  21.273  0.00  0.00    +0.000 C 
ATOM      9  C   UNL     1       0.568   9.363  20.925  0.00  0.00    +0.000 C 
ATOM     10  C   UNL     1      -0.111  10.276  21.640  0.00  0.00    +0.000 C 
ATOM     11  C   UNL     1      -0.430  11.633  21.050  0.00  0.00    +0.000 C 
ATOM     12  C   UNL     1       0.048  11.890  19.598  0.00  0.00    +0.000 C 
ATOM     13  C   UNL     1       0.810  10.771  18.953  0.00  0.00    +0.000 C 
ATOM     14  C   UNL     1       1.026   9.623  19.593  0.00  0.00    +0.000 C 
ATOM     15  C   UNL     1       1.762   8.453  19.060  0.00  0.00    +0.000 C 
ATOM     16  O   UNL     1       2.284   8.435  17.960  0.00  0.00    +0.000 OA
BRANCH  10  17
ATOM     17  C   UNL     1      -0.577  10.026  23.038  0.00  0.00    +0.000 C 
ATOM     18  F   UNL     1      -1.291  11.059  23.547  0.00  0.00    +0.000 F 
ATOM     19  F   UNL     1      -1.364   8.924  23.107  0.00  0.00    +0.000 F 
ATOM     20  F   UNL     1       0.469   9.814  23.875  0.00  0.00    +0.000 F 
ENDBRANCH  10  17
ENDBRANCH   5   7
BRANCH   1  22
ATOM     21  C   UNL     1       5.919   4.255  17.435  0.00  0.00    +0.000 C 
ATOM     22  C   UNL     1       5.041   4.362  18.247  0.00  0.00    +0.000 C 
BRANCH  21  23
ATOM     23  C   UNL     1       6.966   4.320  16.408  0.00  0.00    +0.000 C 
BRANCH  23  24
ATOM     24  C   UNL     1       6.374   3.837  15.083  0.00  0.00    +0.000 C 
BRANCH  24  30
ATOM     25  C   UNL     1       5.894   3.089  12.112  0.00  0.00    +0.000 C 
ATOM     26  N   UNL     1       6.759   4.132  12.599  0.00  0.00    +0.000 N 
ATOM     27  C   UNL     1       7.489   4.986  11.833  0.00  0.00    +0.000 A 
ATOM     28  N   UNL     1       8.153   5.808  12.609  0.00  0.00    +0.000 NA
ATOM     29  N   UNL     1       7.847   5.493  13.910  0.00  0.00    +0.000 NA
ATOM     30  C   UNL     1       7.005   4.479  13.902  0.00  0.00    +0.000 A 
ENDBRANCH  24  30
ENDBRANCH  23  24
ENDBRANCH  21  23
ENDBRANCH   1  22
TORSDOF 6
ENDMDL
MODEL 3
REMARK VINA RESULT:      -8.4      3.864      9.389
REMARK  Name = 
REMARK  7 active torsions:
REMARK  status: ('A' for Active; 'I' for Inactive)
REMARK    1  A    between atoms: C_1  and  N_2
REMARK    2  A    between atoms: C_6  and  C_7
REMARK    3  A    between atoms: C_7  and  C_8
REMARK    4  A    between atoms: C_8  and  C_9
REMARK    5  A    between atoms: C_10  and  C_11
REMARK    6  A    between atoms: C_15  and  N_16
REMARK    7  A    between atoms: C_19  and  C_20
REMARK                            x       y       z     vdW  Elec       q    Type
REMARK                         _______ _______ _______ _____ _____    ______ ____
ROOT
ATOM      1  C   UNL     1       0.900   9.996  19.992  0.00  0.00    +0.000 A 
ATOM      2  C   UNL     1       1.124  10.802  18.876  0.00  0.00    +0.000 A 
ATOM      3  C   UNL     1       1.838  10.297  17.800  0.00  0.00    +0.000 A 
ATOM      4  C   UNL     1       2.315   8.984  17.836  0.00  0.00    +0.000 A 
ATOM      5  C   UNL     1       2.086   8.146  18.938  0.00  0.00    +0.000 A 
ATOM      6  C   UNL     1       1.380   8.681  20.028  0.00  0.00    +0.000 A 
ENDROOT
BRANCH   5   7
ATOM      7  N   UNL     1       2.545   6.797  18.947  0.00  0.00    +0.000 N 
ATOM      8  C   UNL     1       2.125   5.841  19.969  0.00  0.00    +0.000 C 
ATOM      9  C   UNL     1       2.833   4.564  19.614  0.00  0.00    +0.000 C 
ATOM     10  C   UNL     1       2.817   3.354  20.198  0.00  0.00    +0.000 C 
ATOM     11  C   UNL     1       3.627   2.211  19.624  0.00  0.00    +0.000 C 
ATOM     12  C   UNL     1       4.472   2.522  18.362  0.00  0.00    +0.000 C 
ATOM     13  C   UNL     1       4.359   3.919  17.827  0.00  0.00    +0.000 C 
ATOM     14  C   UNL     1       3.599   4.831  18.432  0.00  0.00    +0.000 C 
ATOM     15  C   UNL     1       3.410   6.235  17.998  0.00  0.00    +0.000 C 
ATOM     16  O   UNL     1       3.925   6.701  16.998  0.00  0.00    +0.000 OA
BRANCH  10  17
ATOM     17  C   UNL     1       2.007   3.055  21.417  0.00  0.00    +0.000 C 
ATOM     18  F   UNL     1       0.673   3.123  21.193  0.00  0.00    +0.000 F 
ATOM     19  F   UNL     1       2.268   1.812  21.892  0.00  0.00    +0.000 F 
ATOM     20  F   UNL     1       2.287   3.925  22.420  0.00  0.00    +0.000 F 
ENDBRANCH  10  17
ENDBRANCH   5   7
BRANCH   1  22
ATOM     21  C   UNL     1      -0.589  10.809  21.990  0.00  0.00    +0.000 C 
ATOM     22  C   UNL     1       0.105  10.519  21.055  0.00  0.00    +0.000 C 
BRANCH  21  23
ATOM     23  C   UNL     1      -1.403  10.978  23.201  0.00  0.00    +0.000 C 
BRANCH  23  24
ATOM     24  C   UNL     1      -1.939  12.410  23.229  0.00  0.00    +0.000 C 
BRANCH  24  30
ATOM     25  C   UNL     1      -3.060  13.057  20.411  0.00  0.00    +0.000 C 
ATOM     26  N   UNL     1      -3.834  12.773  21.591  0.00  0.00    +0.000 N 
ATOM     27  C   UNL     1      -5.190  12.711  21.661  0.00  0.00    +0.000 A 
ATOM     28  N   UNL     1      -5.551  12.423  22.889  0.00  0.00    +0.000 NA
ATOM     29  N   UNL     1      -4.409  12.285  23.637  0.00  0.00    +0.000 NA
ATOM     30  C   UNL     1      -3.372  12.498  22.852  0.00  0.00    +0.000 A 
ENDBRANCH  24  30
ENDBRANCH  23  24
ENDBRANCH  21  23
ENDBRANCH   1  22
TORSDOF 6
ENDMDL
MODEL 4
REMARK VINA RESULT:      -8.3      1.139      1.554
REMARK  Name = 
REMARK  7 active torsions:
REMARK  status: ('A' for Active; 'I' for Inactive)
REMARK    1  A    between atoms: C_1  and  N_2
REMARK    2  A    between atoms: C_6  and  C_7
REMARK    3  A    between atoms: C_7  and  C_8
REMARK    4  A    between atoms: C_8  and  C_9
REMARK    5  A    between atoms: C_10  and  C_11
REMARK    6  A    between atoms: C_15  and  N_16
REMARK    7  A    between atoms: C_19  and  C_20
REMARK                            x       y       z     vdW  Elec       q    Type
REMARK                         _______ _______ _______ _____ _____    ______ ____
ROOT
ATOM      1  C   UNL     1       3.037   5.970  18.641  0.00  0.00    +0.000 A 
ATOM      2  C   UNL     1       2.737   5.084  19.675  0.00  0.00    +0.000 A 
ATOM      3  C   UNL     1       1.955   5.512  20.737  0.00  0.00    +0.000 A 
ATOM      4  C   UNL     1       1.464   6.820  20.757  0.00  0.00    +0.000 A 
ATOM      5  C   UNL     1       1.735   7.725  19.720  0.00  0.00    +0.000 A 
ATOM      6  C   UNL     1       2.547   7.283  18.663  0.00  0.00    +0.000 A 
ENDROOT
BRANCH   5   7
ATOM      7  N   UNL     1       1.197   9.045  19.734  0.00  0.00    +0.000 N 
ATOM      8  C   UNL     1       0.396   9.545  20.849  0.00  0.00    +0.000 C 
ATOM      9  C   UNL     1       0.032  10.951  20.459  0.00  0.00    +0.000 C 
ATOM     10  C   UNL     1      -0.685  11.886  21.103  0.00  0.00    +0.000 C 
ATOM     11  C   UNL     1      -0.899  13.252  20.485  0.00  0.00    +0.000 C 
ATOM     12  C   UNL     1      -0.270  13.491  19.089  0.00  0.00    +0.000 C 
ATOM     13  C   UNL     1       0.518  12.347  18.522  0.00  0.00    +0.000 C 
ATOM     14  C   UNL     1       0.631  11.193  19.181  0.00  0.00    +0.000 C 
ATOM     15  C   UNL     1       1.379   9.999  18.723  0.00  0.00    +0.000 C 
ATOM     16  O   UNL     1       2.008   9.962  17.681  0.00  0.00    +0.000 OA
BRANCH  10  17
ATOM     17  C   UNL     1      -1.297  11.655  22.446  0.00  0.00    +0.000 C 
ATOM     18  F   UNL     1      -0.861  12.533  23.382  0.00  0.00    +0.000 F 
ATOM     19  F   UNL     1      -2.648  11.762  22.399  0.00  0.00    +0.000 F 
ATOM     20  F   UNL     1      -1.018  10.410  22.907  0.00  0.00    +0.000 F 
ENDBRANCH  10  17
ENDBRANCH   5   7
BRANCH   1  22
ATOM     21  C   UNL     1       4.528   5.035  16.698  0.00  0.00    +0.000 C 
ATOM     22  C   UNL     1       3.787   5.484  17.529  0.00  0.00    +0.000 C 
BRANCH  21  23
ATOM     23  C   UNL     1       5.524   4.390  15.834  0.00  0.00    +0.000 C 
BRANCH  23  24
ATOM     24  C   UNL     1       6.809   5.220  15.873  0.00  0.00    +0.000 C 
BRANCH  24  30
ATOM     25  C   UNL     1       7.330   7.906  17.332  0.00  0.00    +0.000 C 
ATOM     26  N   UNL     1       7.554   6.589  17.867  0.00  0.00    +0.000 N 
ATOM     27  C   UNL     1       8.005   6.301  19.117  0.00  0.00    +0.000 A 
ATOM     28  N   UNL     1       8.082   4.999  19.264  0.00  0.00    +0.000 NA
ATOM     29  N   UNL     1       7.666   4.422  18.090  0.00  0.00    +0.000 NA
ATOM     30  C   UNL     1       7.348   5.384  17.246  0.00  0.00    +0.000 A 
ENDBRANCH  24  30
ENDBRANCH  23  24
ENDBRANCH  21  23
ENDBRANCH   1  22
TORSDOF 6
ENDMDL
MODEL 5
REMARK VINA RESULT:      -8.3      0.607      1.327
REMARK  Name = 
REMARK  7 active torsions:
REMARK  status: ('A' for Active; 'I' for Inactive)
REMARK    1  A    between atoms: C_1  and  N_2
REMARK    2  A    between atoms: C_6  and  C_7
REMARK    3  A    between atoms: C_7  and  C_8
REMARK    4  A    between atoms: C_8  and  C_9
REMARK    5  A    between atoms: C_10  and  C_11
REMARK    6  A    between atoms: C_15  and  N_16
REMARK    7  A    between atoms: C_19  and  C_20
REMARK                            x       y       z     vdW  Elec       q    Type
REMARK                         _______ _______ _______ _____ _____    ______ ____
ROOT
ATOM      1  C   UNL     1       3.345   4.487  18.382  0.00  0.00    +0.000 A 
ATOM      2  C   UNL     1       2.888   3.472  19.221  0.00  0.00    +0.000 A 
ATOM      3  C   UNL     1       2.051   3.785  20.281  0.00  0.00    +0.000 A 
ATOM      4  C   UNL     1       1.662   5.110  20.492  0.00  0.00    +0.000 A 
ATOM      5  C   UNL     1       2.092   6.148  19.651  0.00  0.00    +0.000 A 
ATOM      6  C   UNL     1       2.957   5.817  18.596  0.00  0.00    +0.000 A 
ENDROOT
BRANCH   5   7
ATOM      7  N   UNL     1       1.658   7.490  19.855  0.00  0.00    +0.000 N 
ATOM      8  C   UNL     1       0.998   7.914  21.088  0.00  0.00    +0.000 C 
ATOM      9  C   UNL     1       0.708   9.374  20.885  0.00  0.00    +0.000 C 
ATOM     10  C   UNL     1       0.122  10.277  21.689  0.00  0.00    +0.000 C 
ATOM     11  C   UNL     1      -0.043  11.715  21.241  0.00  0.00    +0.000 C 
ATOM     12  C   UNL     1       0.477  12.066  19.824  0.00  0.00    +0.000 C 
ATOM     13  C   UNL     1       1.123  10.943  19.068  0.00  0.00    +0.000 C 
ATOM     14  C   UNL     1       1.207   9.719  19.587  0.00  0.00    +0.000 C 
ATOM     15  C   UNL     1       1.820   8.537  18.937  0.00  0.00    +0.000 C 
ATOM     16  O   UNL     1       2.351   8.575  17.842  0.00  0.00    +0.000 OA
BRANCH  10  17
ATOM     17  C   UNL     1      -0.385   9.938  23.053  0.00  0.00    +0.000 C 
ATOM     18  F   UNL     1       0.609   9.658  23.930  0.00  0.00    +0.000 F 
ATOM     19  F   UNL     1      -1.106  10.958  23.580  0.00  0.00    +0.000 F 
ATOM     20  F   UNL     1      -1.203   8.856  23.020  0.00  0.00    +0.000 F 
ENDBRANCH  10  17
ENDBRANCH   5   7
BRANCH   1  22
ATOM     21  C   UNL     1       4.849   3.979  16.296  0.00  0.00    +0.000 C 
ATOM     22  C   UNL     1       4.151   4.128  17.261  0.00  0.00    +0.000 C 
BRANCH  21  23
ATOM     23  C   UNL     1       5.765   3.987  15.148  0.00  0.00    +0.000 C 
BRANCH  23  24
ATOM     24  C   UNL     1       7.177   4.283  15.658  0.00  0.00    +0.000 C 
BRANCH  24  30
ATOM     25  C   UNL     1       7.719   4.549  18.699  0.00  0.00    +0.000 C 
ATOM     26  N   UNL     1       7.514   5.631  17.773  0.00  0.00    +0.000 N 
ATOM     27  C   UNL     1       7.554   6.957  18.073  0.00  0.00    +0.000 A 
ATOM     28  N   UNL     1       7.330   7.656  16.986  0.00  0.00    +0.000 NA
ATOM     29  N   UNL     1       7.148   6.773  15.952  0.00  0.00    +0.000 NA
ATOM     30  C   UNL     1       7.258   5.549  16.429  0.00  0.00    +0.000 A 
ENDBRANCH  24  30
ENDBRANCH  23  24
ENDBRANCH  21  23
ENDBRANCH   1  22
TORSDOF 6
ENDMDL
MODEL 6
REMARK VINA RESULT:      -8.3      4.268      6.391
REMARK  Name = 
REMARK  7 active torsions:
REMARK  status: ('A' for Active; 'I' for Inactive)
REMARK    1  A    between atoms: C_1  and  N_2
REMARK    2  A    between atoms: C_6  and  C_7
REMARK    3  A    between atoms: C_7  and  C_8
REMARK    4  A    between atoms: C_8  and  C_9
REMARK    5  A    between atoms: C_10  and  C_11
REMARK    6  A    between atoms: C_15  and  N_16
REMARK    7  A    between atoms: C_19  and  C_20
REMARK                            x       y       z     vdW  Elec       q    Type
REMARK                         _______ _______ _______ _____ _____    ______ ____
ROOT
ATOM      1  C   UNL     1       0.969  10.342  18.279  0.00  0.00    +0.000 A 
ATOM      2  C   UNL     1       1.786  11.457  18.456  0.00  0.00    +0.000 A 
ATOM      3  C   UNL     1       1.211  12.698  18.682  0.00  0.00    +0.000 A 
ATOM      4  C   UNL     1      -0.179  12.819  18.743  0.00  0.00    +0.000 A 
ATOM      5  C   UNL     1      -1.024  11.710  18.588  0.00  0.00    +0.000 A 
ATOM      6  C   UNL     1      -0.426  10.465  18.338  0.00  0.00    +0.000 A 
ENDROOT
BRANCH   5   7
ATOM      7  N   UNL     1      -2.440  11.841  18.690  0.00  0.00    +0.000 N 
ATOM      8  C   UNL     1      -3.084  12.380  19.885  0.00  0.00    +0.000 C 
ATOM      9  C   UNL     1      -4.555  12.337  19.580  0.00  0.00    +0.000 C 
ATOM     10  C   UNL     1      -5.619  12.713  20.309  0.00  0.00    +0.000 C 
ATOM     11  C   UNL     1      -7.021  12.571  19.755  0.00  0.00    +0.000 C 
ATOM     12  C   UNL     1      -7.150  11.963  18.335  0.00  0.00    +0.000 C 
ATOM     13  C   UNL     1      -5.860  11.617  17.653  0.00  0.00    +0.000 C 
ATOM     14  C   UNL     1      -4.687  11.800  18.258  0.00  0.00    +0.000 C 
ATOM     15  C   UNL     1      -3.355  11.498  17.686  0.00  0.00    +0.000 C 
ATOM     16  O   UNL     1      -3.193  11.066  16.559  0.00  0.00    +0.000 OA
BRANCH  10  17
ATOM     17  C   UNL     1      -5.496  13.294  21.680  0.00  0.00    +0.000 C 
ATOM     18  F   UNL     1      -4.805  12.498  22.530  0.00  0.00    +0.000 F 
ATOM     19  F   UNL     1      -4.862  14.493  21.653  0.00  0.00    +0.000 F 
ATOM     20  F   UNL     1      -6.714  13.508  22.236  0.00  0.00    +0.000 F 
ENDBRANCH  10  17
ENDBRANCH   5   7
BRANCH   1  22
ATOM     21  C   UNL     1       2.242   8.064  18.026  0.00  0.00    +0.000 C 
ATOM     22  C   UNL     1       1.588   9.067  18.115  0.00  0.00    +0.000 C 
BRANCH  21  23
ATOM     23  C   UNL     1       3.173   6.929  18.038  0.00  0.00    +0.000 C 
BRANCH  23  24
ATOM     24  C   UNL     1       2.596   5.838  18.942  0.00  0.00    +0.000 C 
BRANCH  24  30
ATOM     25  C   UNL     1       4.879   3.758  19.217  0.00  0.00    +0.000 C 
ATOM     26  N   UNL     1       3.658   3.590  18.474  0.00  0.00    +0.000 N 
ATOM     27  C   UNL     1       3.286   2.474  17.791  0.00  0.00    +0.000 A 
ATOM     28  N   UNL     1       2.112   2.670  17.240  0.00  0.00    +0.000 NA
ATOM     29  N   UNL     1       1.701   3.936  17.575  0.00  0.00    +0.000 NA
ATOM     30  C   UNL     1       2.637   4.491  18.320  0.00  0.00    +0.000 A 
ENDBRANCH  24  30
ENDBRANCH  23  24
ENDBRANCH  21  23
ENDBRANCH   1  22
TORSDOF 6
ENDMDL
MODEL 7
REMARK VINA RESULT:      -8.2      4.231      9.830
REMARK  Name = 
REMARK  7 active torsions:
REMARK  status: ('A' for Active; 'I' for Inactive)
REMARK    1  A    between atoms: C_1  and  N_2
REMARK    2  A    between atoms: C_6  and  C_7
REMARK    3  A    between atoms: C_7  and  C_8
REMARK    4  A    between atoms: C_8  and  C_9
REMARK    5  A    between atoms: C_10  and  C_11
REMARK    6  A    between atoms: C_15  and  N_16
REMARK    7  A    between atoms: C_19  and  C_20
REMARK                            x       y       z     vdW  Elec       q    Type
REMARK                         _______ _______ _______ _____ _____    ______ ____
ROOT
ATOM      1  C   UNL     1       0.473  10.165  20.532  0.00  0.00    +0.000 A 
ATOM      2  C   UNL     1       0.584  11.061  19.471  0.00  0.00    +0.000 A 
ATOM      3  C   UNL     1       1.294  10.695  18.337  0.00  0.00    +0.000 A 
ATOM      4  C   UNL     1       1.879   9.429  18.262  0.00  0.00    +0.000 A 
ATOM      5  C   UNL     1       1.766   8.501  19.308  0.00  0.00    +0.000 A 
ATOM      6  C   UNL     1       1.063   8.896  20.457  0.00  0.00    +0.000 A 
ENDROOT
BRANCH   5   7
ATOM      7  N   UNL     1       2.335   7.198  19.204  0.00  0.00    +0.000 N 
ATOM      8  C   UNL     1       1.997   6.126  20.137  0.00  0.00    +0.000 C 
ATOM      9  C   UNL     1       2.809   4.948  19.677  0.00  0.00    +0.000 C 
ATOM     10  C   UNL     1       2.893   3.695  20.155  0.00  0.00    +0.000 C 
ATOM     11  C   UNL     1       3.796   2.677  19.491  0.00  0.00    +0.000 C 
ATOM     12  C   UNL     1       4.612   3.165  18.266  0.00  0.00    +0.000 C 
ATOM     13  C   UNL     1       4.383   4.588  17.853  0.00  0.00    +0.000 C 
ATOM     14  C   UNL     1       3.549   5.378  18.529  0.00  0.00    +0.000 C 
ATOM     15  C   UNL     1       3.245   6.794  18.216  0.00  0.00    +0.000 C 
ATOM     16  O   UNL     1       3.718   7.386  17.264  0.00  0.00    +0.000 OA
BRANCH  10  17
ATOM     17  C   UNL     1       2.111   3.225  21.338  0.00  0.00    +0.000 C 
ATOM     18  F   UNL     1       2.395   1.947  21.684  0.00  0.00    +0.000 F 
ATOM     19  F   UNL     1       2.352   3.996  22.428  0.00  0.00    +0.000 F 
ATOM     20  F   UNL     1       0.776   3.287  21.103  0.00  0.00    +0.000 F 
ENDBRANCH  10  17
ENDBRANCH   5   7
BRANCH   1  22
ATOM     21  C   UNL     1      -0.996  11.002  22.536  0.00  0.00    +0.000 C 
ATOM     22  C   UNL     1      -0.319  10.543  21.657  0.00  0.00    +0.000 C 
BRANCH  21  23
ATOM     23  C   UNL     1      -1.874  11.706  23.478  0.00  0.00    +0.000 C 
BRANCH  23  24
ATOM     24  C   UNL     1      -2.763  12.666  22.686  0.00  0.00    +0.000 C 
BRANCH  24  30
ATOM     25  C   UNL     1      -5.193  13.903  21.208  0.00  0.00    +0.000 C 
ATOM     26  N   UNL     1      -5.223  13.221  22.475  0.00  0.00    +0.000 N 
ATOM     27  C   UNL     1      -6.332  12.979  23.225  0.00  0.00    +0.000 A 
ATOM     28  N   UNL     1      -5.989  12.331  24.313  0.00  0.00    +0.000 NA
ATOM     29  N   UNL     1      -4.631  12.138  24.273  0.00  0.00    +0.000 NA
ATOM     30  C   UNL     1      -4.169  12.677  23.162  0.00  0.00    +0.000 A 
ENDBRANCH  24  30
ENDBRANCH  23  24
ENDBRANCH  21  23
ENDBRANCH   1  22
TORSDOF 6
ENDMDL
MODEL 8
REMARK VINA RESULT:      -8.2      4.286      6.656
REMARK  Name = 
REMARK  7 active torsions:
REMARK  status: ('A' for Active; 'I' for Inactive)
REMARK    1  A    between atoms: C_1  and  N_2
REMARK    2  A    between atoms: C_6  and  C_7
REMARK    3  A    between atoms: C_7  and  C_8
REMARK    4  A    between atoms: C_8  and  C_9
REMARK    5  A    between atoms: C_10  and  C_11
REMARK    6  A    between atoms: C_15  and  N_16
REMARK    7  A    between atoms: C_19  and  C_20
REMARK                            x       y       z     vdW  Elec       q    Type
REMARK                         _______ _______ _______ _____ _____    ______ ____
ROOT
ATOM      1  C   UNL     1       1.457  10.113  18.275  0.00  0.00    +0.000 A 
ATOM      2  C   UNL     1       2.348  11.167  18.081  0.00  0.00    +0.000 A 
ATOM      3  C   UNL     1       1.920  12.471  18.280  0.00  0.00    +0.000 A 
ATOM      4  C   UNL     1       0.606  12.716  18.686  0.00  0.00    +0.000 A 
ATOM      5  C   UNL     1      -0.305  11.673  18.907  0.00  0.00    +0.000 A 
ATOM      6  C   UNL     1       0.139  10.360  18.680  0.00  0.00    +0.000 A 
ENDROOT
BRANCH   5   7
ATOM      7  N   UNL     1      -1.632  11.935  19.357  0.00  0.00    +0.000 N 
ATOM      8  C   UNL     1      -2.793  11.782  18.483  0.00  0.00    +0.000 C 
ATOM      9  C   UNL     1      -3.969  12.159  19.339  0.00  0.00    +0.000 C 
ATOM     10  C   UNL     1      -5.284  12.197  19.064  0.00  0.00    +0.000 C 
ATOM     11  C   UNL     1      -6.281  12.609  20.126  0.00  0.00    +0.000 C 
ATOM     12  C   UNL     1      -5.703  12.993  21.512  0.00  0.00    +0.000 C 
ATOM     13  C   UNL     1      -4.214  12.875  21.654  0.00  0.00    +0.000 C 
ATOM     14  C   UNL     1      -3.451  12.492  20.632  0.00  0.00    +0.000 C 
ATOM     15  C   UNL     1      -1.977  12.340  20.654  0.00  0.00    +0.000 C 
ATOM     16  O   UNL     1      -1.300  12.527  21.649  0.00  0.00    +0.000 OA
BRANCH  10  17
ATOM     17  C   UNL     1      -5.842  11.831  17.726  0.00  0.00    +0.000 C 
ATOM     18  F   UNL     1      -5.416  10.622  17.290  0.00  0.00    +0.000 F 
ATOM     19  F   UNL     1      -7.197  11.791  17.750  0.00  0.00    +0.000 F 
ATOM     20  F   UNL     1      -5.493  12.741  16.782  0.00  0.00    +0.000 F 
ENDBRANCH  10  17
ENDBRANCH   5   7
BRANCH   1  22
ATOM     21  C   UNL     1       2.427   7.681  18.142  0.00  0.00    +0.000 C 
ATOM     22  C   UNL     1       1.944   8.780  18.129  0.00  0.00    +0.000 C 
BRANCH  21  23
ATOM     23  C   UNL     1       3.047   6.367  18.355  0.00  0.00    +0.000 C 
BRANCH  23  24
ATOM     24  C   UNL     1       2.041   5.287  17.954  0.00  0.00    +0.000 C 
BRANCH  24  30
ATOM     25  C   UNL     1       2.532   2.227  17.838  0.00  0.00    +0.000 C 
ATOM     26  N   UNL     1       2.018   2.966  18.962  0.00  0.00    +0.000 N 
ATOM     27  C   UNL     1       1.689   2.447  20.175  0.00  0.00    +0.000 A 
ATOM     28  N   UNL     1       1.262   3.408  20.959  0.00  0.00    +0.000 NA
ATOM     29  N   UNL     1       1.320   4.582  20.249  0.00  0.00    +0.000 NA
ATOM     30  C   UNL     1       1.776   4.312  19.042  0.00  0.00    +0.000 A 
ENDBRANCH  24  30
ENDBRANCH  23  24
ENDBRANCH  21  23
ENDBRANCH   1  22
TORSDOF 6
ENDMDL
MODEL 9
REMARK VINA RESULT:      -8.2      4.709      9.779
REMARK  Name = 
REMARK  7 active torsions:
REMARK  status: ('A' for Active; 'I' for Inactive)
REMARK    1  A    between atoms: C_1  and  N_2
REMARK    2  A    between atoms: C_6  and  C_7
REMARK    3  A    between atoms: C_7  and  C_8
REMARK    4  A    between atoms: C_8  and  C_9
REMARK    5  A    between atoms: C_10  and  C_11
REMARK    6  A    between atoms: C_15  and  N_16
REMARK    7  A    between atoms: C_19  and  C_20
REMARK                            x       y       z     vdW  Elec       q    Type
REMARK                         _______ _______ _______ _____ _____    ______ ____
ROOT
ATOM      1  C   UNL     1      -1.594  11.150  19.225  0.00  0.00    +0.000 A 
ATOM      2  C   UNL     1      -1.254  12.016  20.263  0.00  0.00    +0.000 A 
ATOM      3  C   UNL     1      -0.076  11.813  20.966  0.00  0.00    +0.000 A 
ATOM      4  C   UNL     1       0.765  10.753  20.621  0.00  0.00    +0.000 A 
ATOM      5  C   UNL     1       0.457   9.878  19.568  0.00  0.00    +0.000 A 
ATOM      6  C   UNL     1      -0.750  10.085  18.881  0.00  0.00    +0.000 A 
ENDROOT
BRANCH   5   7
ATOM      7  N   UNL     1       1.342   8.823  19.202  0.00  0.00    +0.000 N 
ATOM      8  C   UNL     1       1.381   7.555  19.926  0.00  0.00    +0.000 C 
ATOM      9  C   UNL     1       2.437   6.746  19.227  0.00  0.00    +0.000 C 
ATOM     10  C   UNL     1       2.892   5.503  19.456  0.00  0.00    +0.000 C 
ATOM     11  C   UNL     1       3.976   4.906  18.583  0.00  0.00    +0.000 C 
ATOM     12  C   UNL     1       4.528   5.806  17.447  0.00  0.00    +0.000 C 
ATOM     13  C   UNL     1       3.894   7.159  17.318  0.00  0.00    +0.000 C 
ATOM     14  C   UNL     1       2.938   7.557  18.157  0.00  0.00    +0.000 C 
ATOM     15  C   UNL     1       2.242   8.864  18.127  0.00  0.00    +0.000 C 
ATOM     16  O   UNL     1       2.460   9.720  17.289  0.00  0.00    +0.000 OA
BRANCH  10  17
ATOM     17  C   UNL     1       2.364   4.638  20.554  0.00  0.00    +0.000 C 
ATOM     18  F   UNL     1       2.445   5.224  21.772  0.00  0.00    +0.000 F 
ATOM     19  F   UNL     1       1.061   4.321  20.350  0.00  0.00    +0.000 F 
ATOM     20  F   UNL     1       3.045   3.467  20.630  0.00  0.00    +0.000 F 
ENDBRANCH  10  17
ENDBRANCH   5   7
BRANCH   1  22
ATOM     21  C   UNL     1      -3.851  11.617  17.977  0.00  0.00    +0.000 C 
ATOM     22  C   UNL     1      -2.777  11.422  18.476  0.00  0.00    +0.000 C 
BRANCH  21  23
ATOM     23  C   UNL     1      -5.234  11.872  17.555  0.00  0.00    +0.000 C 
BRANCH  23  24
ATOM     24  C   UNL     1      -6.068  12.193  18.797  0.00  0.00    +0.000 C 
BRANCH  24  30
ATOM     25  C   UNL     1      -7.547  12.078  21.520  0.00  0.00    +0.000 C 
ATOM     26  N   UNL     1      -7.306  10.970  20.634  0.00  0.00    +0.000 N 
ATOM     27  C   UNL     1      -7.715   9.688  20.830  0.00  0.00    +0.000 A 
ATOM     28  N   UNL     1      -7.327   8.947  19.820  0.00  0.00    +0.000 NA
ATOM     29  N   UNL     1      -6.659   9.760  18.939  0.00  0.00    +0.000 NA
ATOM     30  C   UNL     1      -6.645  10.982  19.434  0.00  0.00    +0.000 A 
ENDBRANCH  24  30
ENDBRANCH  23  24
ENDBRANCH  21  23
ENDBRANCH   1  22
TORSDOF 6
ENDMDL
