MODEL 1
REMARK VINA RESULT:      -8.4      0.000      0.000
REMARK  Name = 
REMARK  7 active torsions:
REMARK  status: ('A' for Active; 'I' for Inactive)
REMARK    1  A    between atoms: C_1  and  C_2
REMARK    2  A    between atoms: C_2  and  N_3
REMARK    3  A    between atoms: C_2  and  C_19
REMARK    4  A    between atoms: C_4  and  C_6
REMARK    5  A    between atoms: C_6  and  C_7
REMARK    6  A    between atoms: C_10  and  C_11
REMARK    7  A    between atoms: C_22  and  N_23
REMARK                            x       y       z     vdW  Elec       q    Type
REMARK                         _______ _______ _______ _____ _____    ______ ____
ROOT
ATOM      1  N   UNL     1       4.200   5.021  18.094  0.00  0.00    +0.000 N 
ATOM      2  C   UNL     1       5.355   4.391  18.505  0.00  0.00    +0.000 C 
ATOM      3  O   UNL     1       5.411   3.669  19.496  0.00  0.00    +0.000 OA
ATOM      4  H   UNL     1       4.263   5.751  17.397  0.00  0.00    +0.000 HD
ENDROOT
BRANCH   1   6
ATOM      5  C   UNL     1       1.930   4.052  18.001  0.00  0.00    +0.000 C 
ATOM      6  C   UNL     1       2.949   4.854  18.814  0.00  0.00    +0.000 C 
BRANCH   6   7
ATOM      7  C   UNL     1       2.395   6.205  19.221  0.00  0.00    +0.000 A 
ATOM      8  C   UNL     1       2.457   7.273  18.316  0.00  0.00    +0.000 A 
ATOM      9  C   UNL     1       1.954   8.531  18.655  0.00  0.00    +0.000 A 
ATOM     10  C   UNL     1       1.380   8.737  19.917  0.00  0.00    +0.000 A 
ATOM     11  C   UNL     1       1.313   7.675  20.828  0.00  0.00    +0.000 A 
ATOM     12  C   UNL     1       1.813   6.418  20.480  0.00  0.00    +0.000 A 
BRANCH  10  13
ATOM     13  N   UNL     1       0.880  10.010  20.285  0.00  0.00    +0.000 N 
ATOM     14  C   UNL     1       1.150  11.238  19.732  0.00  0.00    +0.000 A 
ATOM     15  N   UNL     1       0.512  12.187  20.378  0.00  0.00    +0.000 NA
ATOM     16  C   UNL     1      -0.162  11.491  21.334  0.00  0.00    +0.000 A 
ATOM     17  N   UNL     1       0.010  10.170  21.315  0.00  0.00    +0.000 NA
ENDBRANCH  10  13
ENDBRANCH   6   7
ENDBRANCH   1   6
BRANCH   2  18
ATOM     18  C   UNL     1       6.556   4.649  17.619  0.00  0.00    +0.000 C 
BRANCH  18  19
ATOM     19  C   UNL     1       7.207   5.993  17.829  0.00  0.00    +0.000 A 
ATOM     20  C   UNL     1       6.916   7.071  16.988  0.00  0.00    +0.000 A 
ATOM     21  C   UNL     1       7.446   8.342  17.247  0.00  0.00    +0.000 A 
ATOM     22  C   UNL     1       8.270   8.586  18.360  0.00  0.00    +0.000 A 
ATOM     23  C   UNL     1       8.560   7.485  19.187  0.00  0.00    +0.000 A 
ATOM     24  C   UNL     1       8.047   6.210  18.924  0.00  0.00    +0.000 A 
BRANCH  22  25
ATOM     25  C   UNL     1       8.813   9.939  18.648  0.00  0.00    +0.000 A 
ATOM     26  C   UNL     1       8.701  10.998  17.726  0.00  0.00    +0.000 A 
ATOM     27  C   UNL     1       9.236  12.262  17.994  0.00  0.00    +0.000 A 
ATOM     28  C   UNL     1       9.880  12.507  19.201  0.00  0.00    +0.000 A 
ATOM     29  C   UNL     1       9.986  11.490  20.142  0.00  0.00    +0.000 A 
ATOM     30  C   UNL     1       9.466  10.221  19.864  0.00  0.00    +0.000 A 
ENDBRANCH  22  25
ENDBRANCH  18  19
ENDBRANCH   2  18
TORSDOF 6
ENDMDL
MODEL 2
REMARK VINA RESULT:      -8.4      0.438      1.337
REMARK  Name = 
REMARK  7 active torsions:
REMARK  status: ('A' for Active; 'I' for Inactive)
REMARK    1  A    between atoms: C_1  and  C_2
REMARK    2  A    between atoms: C_2  and  N_3
REMARK    3  A    between atoms: C_2  and  C_19
REMARK    4  A    between atoms: C_4  and  C_6
REMARK    5  A    between atoms: C_6  and  C_7
REMARK    6  A    between atoms: C_10  and  C_11
REMARK    7  A    between atoms: C_22  and  N_23
REMARK                            x       y       z     vdW  Elec       q    Type
REMARK                         _______ _______ _______ _____ _____    ______ ____
ROOT
ATOM      1  N   UNL     1       4.301   5.367  18.168  0.00  0.00    +0.000 N 
ATOM      2  C   UNL     1       5.343   4.510  18.451  0.00  0.00    +0.000 C 
ATOM      3  O   UNL     1       5.276   3.626  19.300  0.00  0.00    +0.000 OA
ATOM      4  H   UNL     1       4.484   6.190  17.609  0.00  0.00    +0.000 HD
ENDROOT
BRANCH   1   6
ATOM      5  C   UNL     1       2.049   4.354  18.115  0.00  0.00    +0.000 C 
ATOM      6  C   UNL     1       3.028   5.265  18.860  0.00  0.00    +0.000 C 
BRANCH   6   7
ATOM      7  C   UNL     1       2.442   6.645  19.084  0.00  0.00    +0.000 A 
ATOM      8  C   UNL     1       1.909   6.969  20.339  0.00  0.00    +0.000 A 
ATOM      9  C   UNL     1       1.364   8.231  20.582  0.00  0.00    +0.000 A 
ATOM     10  C   UNL     1       1.343   9.192  19.562  0.00  0.00    +0.000 A 
ATOM     11  C   UNL     1       1.875   8.878  18.305  0.00  0.00    +0.000 A 
ATOM     12  C   UNL     1       2.424   7.615  18.070  0.00  0.00    +0.000 A 
BRANCH  10  13
ATOM     13  N   UNL     1       0.779  10.472  19.786  0.00  0.00    +0.000 N 
ATOM     14  C   UNL     1       1.151  11.686  19.262  0.00  0.00    +0.000 A 
ATOM     15  N   UNL     1       0.397  12.648  19.741  0.00  0.00    +0.000 NA
ATOM     16  C   UNL     1      -0.452  11.976  20.565  0.00  0.00    +0.000 A 
ATOM     17  N   UNL     1      -0.278  10.655  20.619  0.00  0.00    +0.000 NA
ENDBRANCH  10  13
ENDBRANCH   6   7
ENDBRANCH   1   6
BRANCH   2  18
ATOM     18  C   UNL     1       6.584   4.737  17.612  0.00  0.00    +0.000 C 
BRANCH  18  19
ATOM     19  C   UNL     1       7.245   6.075  17.828  0.00  0.00    +0.000 A 
ATOM     20  C   UNL     1       6.982   7.152  16.978  0.00  0.00    +0.000 A 
ATOM     21  C   UNL     1       7.521   8.418  17.241  0.00  0.00    +0.000 A 
ATOM     22  C   UNL     1       8.327   8.658  18.367  0.00  0.00    +0.000 A 
ATOM     23  C   UNL     1       8.590   7.558  19.204  0.00  0.00    +0.000 A 
ATOM     24  C   UNL     1       8.069   6.287  18.937  0.00  0.00    +0.000 A 
BRANCH  22  25
ATOM     25  C   UNL     1       8.879  10.006  18.660  0.00  0.00    +0.000 A 
ATOM     26  C   UNL     1       9.587  10.279  19.848  0.00  0.00    +0.000 A 
ATOM     27  C   UNL     1      10.082  11.557  20.128  0.00  0.00    +0.000 A 
ATOM     28  C   UNL     1       9.900  12.592  19.219  0.00  0.00    +0.000 A 
ATOM     29  C   UNL     1       9.226  12.350  18.029  0.00  0.00    +0.000 A 
ATOM     30  C   UNL     1       8.716  11.076  17.758  0.00  0.00    +0.000 A 
ENDBRANCH  22  25
ENDBRANCH  18  19
ENDBRANCH   2  18
TORSDOF 6
ENDMDL
MODEL 3
REMARK VINA RESULT:      -8.4      0.939      1.702
REMARK  Name = 
REMARK  7 active torsions:
REMARK  status: ('A' for Active; 'I' for Inactive)
REMARK    1  A    between atoms: C_1  and  C_2
REMARK    2  A    between atoms: C_2  and  N_3
REMARK    3  A    between atoms: C_2  and  C_19
REMARK    4  A    between atoms: C_4  and  C_6
REMARK    5  A    between atoms: C_6  and  C_7
REMARK    6  A    between atoms: C_10  and  C_11
REMARK    7  A    between atoms: C_22  and  N_23
REMARK                            x       y       z     vdW  Elec       q    Type
REMARK                         _______ _______ _______ _____ _____    ______ ____
ROOT
ATOM      1  N   UNL     1       4.265   4.876  17.608  0.00  0.00    +0.000 N 
ATOM      2  C   UNL     1       5.500   4.669  18.185  0.00  0.00    +0.000 C 
ATOM      3  O   UNL     1       5.651   4.131  19.278  0.00  0.00    +0.000 OA
ATOM      4  H   UNL     1       4.196   5.496  16.812  0.00  0.00    +0.000 HD
ENDROOT
BRANCH   1   6
ATOM      5  C   UNL     1       2.023   3.901  17.261  0.00  0.00    +0.000 C 
ATOM      6  C   UNL     1       3.043   4.446  18.264  0.00  0.00    +0.000 C 
BRANCH   6   7
ATOM      7  C   UNL     1       2.462   5.581  19.085  0.00  0.00    +0.000 A 
ATOM      8  C   UNL     1       2.544   6.892  18.597  0.00  0.00    +0.000 A 
ATOM      9  C   UNL     1       2.017   7.962  19.324  0.00  0.00    +0.000 A 
ATOM     10  C   UNL     1       1.400   7.730  20.561  0.00  0.00    +0.000 A 
ATOM     11  C   UNL     1       1.313   6.423  21.055  0.00  0.00    +0.000 A 
ATOM     12  C   UNL     1       1.836   5.357  20.321  0.00  0.00    +0.000 A 
BRANCH  10  13
ATOM     13  N   UNL     1       0.876   8.805  21.319  0.00  0.00    +0.000 N 
ATOM     14  C   UNL     1       1.048   9.089  22.651  0.00  0.00    +0.000 A 
ATOM     15  N   UNL     1       0.369  10.161  22.988  0.00  0.00    +0.000 NA
ATOM     16  C   UNL     1      -0.213  10.524  21.813  0.00  0.00    +0.000 A 
ATOM     17  N   UNL     1       0.072   9.749  20.766  0.00  0.00    +0.000 NA
ENDBRANCH  10  13
ENDBRANCH   6   7
ENDBRANCH   1   6
BRANCH   2  18
ATOM     18  C   UNL     1       6.669   5.150  17.348  0.00  0.00    +0.000 C 
BRANCH  18  19
ATOM     19  C   UNL     1       7.249   6.470  17.789  0.00  0.00    +0.000 A 
ATOM     20  C   UNL     1       8.133   6.541  18.869  0.00  0.00    +0.000 A 
ATOM     21  C   UNL     1       8.746   7.754  19.212  0.00  0.00    +0.000 A 
ATOM     22  C   UNL     1       8.510   8.932  18.482  0.00  0.00    +0.000 A 
ATOM     23  C   UNL     1       7.608   8.842  17.406  0.00  0.00    +0.000 A 
ATOM     24  C   UNL     1       6.980   7.637  17.070  0.00  0.00    +0.000 A 
BRANCH  22  25
ATOM     25  C   UNL     1       9.179  10.213  18.830  0.00  0.00    +0.000 A 
ATOM     26  C   UNL     1       9.388  10.604  20.168  0.00  0.00    +0.000 A 
ATOM     27  C   UNL     1       9.995  11.823  20.487  0.00  0.00    +0.000 A 
ATOM     28  C   UNL     1      10.428  12.675  19.478  0.00  0.00    +0.000 A 
ATOM     29  C   UNL     1      10.257  12.307  18.149  0.00  0.00    +0.000 A 
ATOM     30  C   UNL     1       9.633  11.096  17.831  0.00  0.00    +0.000 A 
ENDBRANCH  22  25
ENDBRANCH  18  19
ENDBRANCH   2  18
TORSDOF 6
ENDMDL
MODEL 4
REMARK VINA RESULT:      -8.3      0.647      1.729
REMARK  Name = 
REMARK  7 active torsions:
REMARK  status: ('A' for Active; 'I' for Inactive)
REMARK    1  A    between atoms: C_1  and  C_2
REMARK    2  A    between atoms: C_2  and  N_3
REMARK    3  A    between atoms: C_2  and  C_19
REMARK    4  A    between atoms: C_4  and  C_6
REMARK    5  A    between atoms: C_6  and  C_7
REMARK    6  A    between atoms: C_10  and  C_11
REMARK    7  A    between atoms: C_22  and  N_23
REMARK                            x       y       z     vdW  Elec       q    Type
REMARK                         _______ _______ _______ _____ _____    ______ ____
ROOT
ATOM      1  N   UNL     1       4.391   4.969  18.024  0.00  0.00    +0.000 N 
ATOM      2  C   UNL     1       5.538   4.317  18.423  0.00  0.00    +0.000 C 
ATOM      3  O   UNL     1       5.557   3.474  19.314  0.00  0.00    +0.000 OA
ATOM      4  H   UNL     1       4.473   5.785  17.432  0.00  0.00    +0.000 HD
ENDROOT
BRANCH   1   6
ATOM      5  C   UNL     1       2.155   3.987  17.653  0.00  0.00    +0.000 C 
ATOM      6  C   UNL     1       3.105   4.679  18.634  0.00  0.00    +0.000 C 
BRANCH   6   7
ATOM      7  C   UNL     1       2.495   5.948  19.196  0.00  0.00    +0.000 A 
ATOM      8  C   UNL     1       1.860   5.910  20.445  0.00  0.00    +0.000 A 
ATOM      9  C   UNL     1       1.290   7.059  20.996  0.00  0.00    +0.000 A 
ATOM     10  C   UNL     1       1.347   8.272  20.295  0.00  0.00    +0.000 A 
ATOM     11  C   UNL     1       1.980   8.320  19.047  0.00  0.00    +0.000 A 
ATOM     12  C   UNL     1       2.553   7.167  18.504  0.00  0.00    +0.000 A 
BRANCH  10  13
ATOM     13  N   UNL     1       0.759   9.444  20.830  0.00  0.00    +0.000 N 
ATOM     14  C   UNL     1       0.715   9.872  22.135  0.00  0.00    +0.000 A 
ATOM     15  N   UNL     1       0.048  10.998  22.231  0.00  0.00    +0.000 NA
ATOM     16  C   UNL     1      -0.302  11.245  20.939  0.00  0.00    +0.000 A 
ATOM     17  N   UNL     1       0.116  10.347  20.047  0.00  0.00    +0.000 NA
ENDBRANCH  10  13
ENDBRANCH   6   7
ENDBRANCH   1   6
BRANCH   2  18
ATOM     18  C   UNL     1       6.783   4.718  17.656  0.00  0.00    +0.000 C 
BRANCH  18  19
ATOM     19  C   UNL     1       7.263   6.119  17.939  0.00  0.00    +0.000 A 
ATOM     20  C   UNL     1       8.092   6.387  19.032  0.00  0.00    +0.000 A 
ATOM     21  C   UNL     1       8.616   7.672  19.232  0.00  0.00    +0.000 A 
ATOM     22  C   UNL     1       8.345   8.727  18.344  0.00  0.00    +0.000 A 
ATOM     23  C   UNL     1       7.500   8.439  17.257  0.00  0.00    +0.000 A 
ATOM     24  C   UNL     1       6.960   7.162  17.061  0.00  0.00    +0.000 A 
BRANCH  22  25
ATOM     25  C   UNL     1       8.920  10.082  18.543  0.00  0.00    +0.000 A 
ATOM     26  C   UNL     1       9.792  10.371  19.611  0.00  0.00    +0.000 A 
ATOM     27  C   UNL     1      10.310  11.656  19.806  0.00  0.00    +0.000 A 
ATOM     28  C   UNL     1       9.986  12.682  18.927  0.00  0.00    +0.000 A 
ATOM     29  C   UNL     1       9.147  12.424  17.850  0.00  0.00    +0.000 A 
ATOM     30  C   UNL     1       8.616  11.142  17.667  0.00  0.00    +0.000 A 
ENDBRANCH  22  25
ENDBRANCH  18  19
ENDBRANCH   2  18
TORSDOF 6
ENDMDL
MODEL 5
REMARK VINA RESULT:      -8.2      0.608      1.031
REMARK  Name = 
REMARK  7 active torsions:
REMARK  status: ('A' for Active; 'I' for Inactive)
REMARK    1  A    between atoms: C_1  and  C_2
REMARK    2  A    between atoms: C_2  and  N_3
REMARK    3  A    between atoms: C_2  and  C_19
REMARK    4  A    between atoms: C_4  and  C_6
REMARK    5  A    between atoms: C_6  and  C_7
REMARK    6  A    between atoms: C_10  and  C_11
REMARK    7  A    between atoms: C_22  and  N_23
REMARK                            x       y       z     vdW  Elec       q    Type
REMARK                         _______ _______ _______ _____ _____    ______ ____
ROOT
ATOM      1  N   UNL     1       4.180   5.407  17.962  0.00  0.00    +0.000 N 
ATOM      2  C   UNL     1       5.350   4.867  18.451  0.00  0.00    +0.000 C 
ATOM      3  O   UNL     1       5.412   4.234  19.501  0.00  0.00    +0.000 OA
ATOM      4  H   UNL     1       4.230   6.079  17.207  0.00  0.00    +0.000 HD
ENDROOT
BRANCH   1   6
ATOM      5  C   UNL     1       1.900   4.467  17.827  0.00  0.00    +0.000 C 
ATOM      6  C   UNL     1       2.919   5.243  18.665  0.00  0.00    +0.000 C 
BRANCH   6   7
ATOM      7  C   UNL     1       2.376   6.594  19.087  0.00  0.00    +0.000 A 
ATOM      8  C   UNL     1       2.347   7.643  18.158  0.00  0.00    +0.000 A 
ATOM      9  C   UNL     1       1.851   8.900  18.510  0.00  0.00    +0.000 A 
ATOM     10  C   UNL     1       1.377   9.125  19.810  0.00  0.00    +0.000 A 
ATOM     11  C   UNL     1       1.401   8.082  20.745  0.00  0.00    +0.000 A 
ATOM     12  C   UNL     1       1.893   6.826  20.384  0.00  0.00    +0.000 A 
BRANCH  10  13
ATOM     13  N   UNL     1       0.886  10.398  20.190  0.00  0.00    +0.000 N 
ATOM     14  C   UNL     1       0.157  11.300  19.454  0.00  0.00    +0.000 A 
ATOM     15  N   UNL     1      -0.080  12.385  20.153  0.00  0.00    +0.000 NA
ATOM     16  C   UNL     1       0.520  12.107  21.343  0.00  0.00    +0.000 A 
ATOM     17  N   UNL     1       1.106  10.912  21.427  0.00  0.00    +0.000 NA
ENDBRANCH  10  13
ENDBRANCH   6   7
ENDBRANCH   1   6
BRANCH   2  18
ATOM     18  C   UNL     1       6.562   5.106  17.573  0.00  0.00    +0.000 C 
BRANCH  18  19
ATOM     19  C   UNL     1       7.289   6.397  17.853  0.00  0.00    +0.000 A 
ATOM     20  C   UNL     1       7.049   7.538  17.083  0.00  0.00    +0.000 A 
ATOM     21  C   UNL     1       7.652   8.760  17.409  0.00  0.00    +0.000 A 
ATOM     22  C   UNL     1       8.501   8.891  18.522  0.00  0.00    +0.000 A 
ATOM     23  C   UNL     1       8.739   7.728  19.278  0.00  0.00    +0.000 A 
ATOM     24  C   UNL     1       8.153   6.500  18.947  0.00  0.00    +0.000 A 
BRANCH  22  25
ATOM     25  C   UNL     1       9.121  10.192  18.883  0.00  0.00    +0.000 A 
ATOM     26  C   UNL     1       9.235  10.615  20.222  0.00  0.00    +0.000 A 
ATOM     27  C   UNL     1       9.797  11.853  20.552  0.00  0.00    +0.000 A 
ATOM     28  C   UNL     1      10.279  12.692  19.555  0.00  0.00    +0.000 A 
ATOM     29  C   UNL     1      10.202  12.292  18.226  0.00  0.00    +0.000 A 
ATOM     30  C   UNL     1       9.623  11.062  17.896  0.00  0.00    +0.000 A 
ENDBRANCH  22  25
ENDBRANCH  18  19
ENDBRANCH   2  18
TORSDOF 6
ENDMDL
MODEL 6
REMARK VINA RESULT:      -8.2      0.549      1.045
REMARK  Name = 
REMARK  7 active torsions:
REMARK  status: ('A' for Active; 'I' for Inactive)
REMARK    1  A    between atoms: C_1  and  C_2
REMARK    2  A    between atoms: C_2  and  N_3
REMARK    3  A    between atoms: C_2  and  C_19
REMARK    4  A    between atoms: C_4  and  C_6
REMARK    5  A    between atoms: C_6  and  C_7
REMARK    6  A    between atoms: C_10  and  C_11
REMARK    7  A    between atoms: C_22  and  N_23
REMARK                            x       y       z     vdW  Elec       q    Type
REMARK                         _______ _______ _______ _____ _____    ______ ____
ROOT
ATOM      1  N   UNL     1       4.342   5.367  18.423  0.00  0.00    +0.000 N 
ATOM      2  C   UNL     1       5.361   4.439  18.453  0.00  0.00    +0.000 C 
ATOM      3  O   UNL     1       5.292   3.383  19.075  0.00  0.00    +0.000 OA
ATOM      4  H   UNL     1       4.535   6.293  18.064  0.00  0.00    +0.000 HD
ENDROOT
BRANCH   1   6
ATOM      5  C   UNL     1       2.153   4.226  18.332  0.00  0.00    +0.000 C 
ATOM      6  C   UNL     1       3.091   5.139  19.126  0.00  0.00    +0.000 C 
BRANCH   6   7
ATOM      7  C   UNL     1       2.429   6.462  19.456  0.00  0.00    +0.000 A 
ATOM      8  C   UNL     1       2.447   7.495  18.509  0.00  0.00    +0.000 A 
ATOM      9  C   UNL     1       1.845   8.726  18.777  0.00  0.00    +0.000 A 
ATOM     10  C   UNL     1       1.213   8.940  20.010  0.00  0.00    +0.000 A 
ATOM     11  C   UNL     1       1.188   7.914  20.962  0.00  0.00    +0.000 A 
ATOM     12  C   UNL     1       1.788   6.683  20.685  0.00  0.00    +0.000 A 
BRANCH  10  13
ATOM     13  N   UNL     1       0.612  10.188  20.306  0.00  0.00    +0.000 N 
ATOM     14  C   UNL     1      -0.427  10.821  19.668  0.00  0.00    +0.000 A 
ATOM     15  N   UNL     1      -0.674  11.983  20.226  0.00  0.00    +0.000 NA
ATOM     16  C   UNL     1       0.243  12.029  21.231  0.00  0.00    +0.000 A 
ATOM     17  N   UNL     1       1.036  10.963  21.337  0.00  0.00    +0.000 NA
ENDBRANCH  10  13
ENDBRANCH   6   7
ENDBRANCH   1   6
BRANCH   2  18
ATOM     18  C   UNL     1       6.580   4.824  17.638  0.00  0.00    +0.000 C 
BRANCH  18  19
ATOM     19  C   UNL     1       7.127   6.194  17.945  0.00  0.00    +0.000 A 
ATOM     20  C   UNL     1       8.045   6.386  18.981  0.00  0.00    +0.000 A 
ATOM     21  C   UNL     1       8.626   7.643  19.199  0.00  0.00    +0.000 A 
ATOM     22  C   UNL     1       8.323   8.747  18.383  0.00  0.00    +0.000 A 
ATOM     23  C   UNL     1       7.388   8.536  17.353  0.00  0.00    +0.000 A 
ATOM     24  C   UNL     1       6.792   7.287  17.141  0.00  0.00    +0.000 A 
BRANCH  22  25
ATOM     25  C   UNL     1       8.957  10.073  18.597  0.00  0.00    +0.000 A 
ATOM     26  C   UNL     1       8.821  11.122  17.666  0.00  0.00    +0.000 A 
ATOM     27  C   UNL     1       9.441  12.360  17.863  0.00  0.00    +0.000 A 
ATOM     28  C   UNL     1      10.198  12.590  19.006  0.00  0.00    +0.000 A 
ATOM     29  C   UNL     1      10.332  11.583  19.954  0.00  0.00    +0.000 A 
ATOM     30  C   UNL     1       9.726  10.340  19.747  0.00  0.00    +0.000 A 
ENDBRANCH  22  25
ENDBRANCH  18  19
ENDBRANCH   2  18
TORSDOF 6
ENDMDL
MODEL 7
REMARK VINA RESULT:      -8.1      0.718      1.154
REMARK  Name = 
REMARK  7 active torsions:
REMARK  status: ('A' for Active; 'I' for Inactive)
REMARK    1  A    between atoms: C_1  and  C_2
REMARK    2  A    between atoms: C_2  and  N_3
REMARK    3  A    between atoms: C_2  and  C_19
REMARK    4  A    between atoms: C_4  and  C_6
REMARK    5  A    between atoms: C_6  and  C_7
REMARK    6  A    between atoms: C_10  and  C_11
REMARK    7  A    between atoms: C_22  and  N_23
REMARK                            x       y       z     vdW  Elec       q    Type
REMARK                         _______ _______ _______ _____ _____    ______ ____
ROOT
ATOM      1  N   UNL     1       4.133   5.579  17.949  0.00  0.00    +0.000 N 
ATOM      2  C   UNL     1       5.310   4.972  18.332  0.00  0.00    +0.000 C 
ATOM      3  O   UNL     1       5.405   4.257  19.325  0.00  0.00    +0.000 OA
ATOM      4  H   UNL     1       4.165   6.307  17.247  0.00  0.00    +0.000 HD
ENDROOT
BRANCH   1   6
ATOM      5  C   UNL     1       1.908   4.507  17.949  0.00  0.00    +0.000 C 
ATOM      6  C   UNL     1       2.905   5.393  18.701  0.00  0.00    +0.000 C 
BRANCH   6   7
ATOM      7  C   UNL     1       2.298   6.736  19.054  0.00  0.00    +0.000 A 
ATOM      8  C   UNL     1       1.799   6.947  20.347  0.00  0.00    +0.000 A 
ATOM      9  C   UNL     1       1.236   8.172  20.708  0.00  0.00    +0.000 A 
ATOM     10  C   UNL     1       1.162   9.211  19.770  0.00  0.00    +0.000 A 
ATOM     11  C   UNL     1       1.659   9.010  18.476  0.00  0.00    +0.000 A 
ATOM     12  C   UNL     1       2.226   7.784  18.122  0.00  0.00    +0.000 A 
BRANCH  10  13
ATOM     13  N   UNL     1       0.579  10.455  20.113  0.00  0.00    +0.000 N 
ATOM     14  C   UNL     1       1.170  11.565  20.666  0.00  0.00    +0.000 A 
ATOM     15  N   UNL     1       0.283  12.512  20.865  0.00  0.00    +0.000 NA
ATOM     16  C   UNL     1      -0.865  11.943  20.406  0.00  0.00    +0.000 A 
ATOM     17  N   UNL     1      -0.742  10.706  19.924  0.00  0.00    +0.000 NA
ENDBRANCH  10  13
ENDBRANCH   6   7
ENDBRANCH   1   6
BRANCH   2  18
ATOM     18  C   UNL     1       6.483   5.249  17.415  0.00  0.00    +0.000 C 
BRANCH  18  19
ATOM     19  C   UNL     1       7.247   6.507  17.742  0.00  0.00    +0.000 A 
ATOM     20  C   UNL     1       7.030   7.686  17.026  0.00  0.00    +0.000 A 
ATOM     21  C   UNL     1       7.669   8.877  17.398  0.00  0.00    +0.000 A 
ATOM     22  C   UNL     1       8.532   8.936  18.505  0.00  0.00    +0.000 A 
ATOM     23  C   UNL     1       8.747   7.735  19.207  0.00  0.00    +0.000 A 
ATOM     24  C   UNL     1       8.125   6.539  18.829  0.00  0.00    +0.000 A 
BRANCH  22  25
ATOM     25  C   UNL     1       9.191  10.203  18.916  0.00  0.00    +0.000 A 
ATOM     26  C   UNL     1       9.697  11.119  17.971  0.00  0.00    +0.000 A 
ATOM     27  C   UNL     1      10.338  12.298  18.366  0.00  0.00    +0.000 A 
ATOM     28  C   UNL     1      10.472  12.604  19.715  0.00  0.00    +0.000 A 
ATOM     29  C   UNL     1       9.963  11.732  20.670  0.00  0.00    +0.000 A 
ATOM     30  C   UNL     1       9.339  10.544  20.274  0.00  0.00    +0.000 A 
ENDBRANCH  22  25
ENDBRANCH  18  19
ENDBRANCH   2  18
TORSDOF 6
ENDMDL
MODEL 8
REMARK VINA RESULT:      -8.1      0.829      1.518
REMARK  Name = 
REMARK  7 active torsions:
REMARK  status: ('A' for Active; 'I' for Inactive)
REMARK    1  A    between atoms: C_1  and  C_2
REMARK    2  A    between atoms: C_2  and  N_3
REMARK    3  A    between atoms: C_2  and  C_19
REMARK    4  A    between atoms: C_4  and  C_6
REMARK    5  A    between atoms: C_6  and  C_7
REMARK    6  A    between atoms: C_10  and  C_11
REMARK    7  A    between atoms: C_22  and  N_23
REMARK                            x       y       z     vdW  Elec       q    Type
REMARK                         _______ _______ _______ _____ _____    ______ ____
ROOT
ATOM      1  N   UNL     1       4.355   5.770  18.069  0.00  0.00    +0.000 N 
ATOM      2  C   UNL     1       5.436   4.919  18.166  0.00  0.00    +0.000 C 
ATOM      3  O   UNL     1       5.422   3.889  18.834  0.00  0.00    +0.000 OA
ATOM      4  H   UNL     1       4.493   6.690  17.672  0.00  0.00    +0.000 HD
ENDROOT
BRANCH   1   6
ATOM      5  C   UNL     1       2.188   4.595  17.905  0.00  0.00    +0.000 C 
ATOM      6  C   UNL     1       3.104   5.485  18.749  0.00  0.00    +0.000 C 
BRANCH   6   7
ATOM      7  C   UNL     1       2.415   6.778  19.140  0.00  0.00    +0.000 A 
ATOM      8  C   UNL     1       2.270   7.794  18.186  0.00  0.00    +0.000 A 
ATOM      9  C   UNL     1       1.638   8.996  18.509  0.00  0.00    +0.000 A 
ATOM     10  C   UNL     1       1.142   9.199  19.804  0.00  0.00    +0.000 A 
ATOM     11  C   UNL     1       1.281   8.189  20.764  0.00  0.00    +0.000 A 
ATOM     12  C   UNL     1       1.910   6.986  20.433  0.00  0.00    +0.000 A 
BRANCH  10  13
ATOM     13  N   UNL     1       0.514  10.419  20.154  0.00  0.00    +0.000 N 
ATOM     14  C   UNL     1      -0.807  10.777  20.037  0.00  0.00    +0.000 A 
ATOM     15  N   UNL     1      -0.990  12.012  20.444  0.00  0.00    +0.000 NA
ATOM     16  C   UNL     1       0.262  12.388  20.820  0.00  0.00    +0.000 A 
ATOM     17  N   UNL     1       1.208  11.459  20.683  0.00  0.00    +0.000 NA
ENDBRANCH  10  13
ENDBRANCH   6   7
ENDBRANCH   1   6
BRANCH   2  18
ATOM     18  C   UNL     1       6.646   5.353  17.366  0.00  0.00    +0.000 C 
BRANCH  18  19
ATOM     19  C   UNL     1       7.270   6.645  17.830  0.00  0.00    +0.000 A 
ATOM     20  C   UNL     1       8.147   6.669  18.917  0.00  0.00    +0.000 A 
ATOM     21  C   UNL     1       8.800   7.855  19.282  0.00  0.00    +0.000 A 
ATOM     22  C   UNL     1       8.613   9.051  18.567  0.00  0.00    +0.000 A 
ATOM     23  C   UNL     1       7.717   9.008  17.484  0.00  0.00    +0.000 A 
ATOM     24  C   UNL     1       7.049   7.831  17.125  0.00  0.00    +0.000 A 
BRANCH  22  25
ATOM     25  C   UNL     1       9.323  10.302  18.939  0.00  0.00    +0.000 A 
ATOM     26  C   UNL     1       9.466  10.706  20.281  0.00  0.00    +0.000 A 
ATOM     27  C   UNL     1      10.114  11.898  20.621  0.00  0.00    +0.000 A 
ATOM     28  C   UNL     1      10.656  12.708  19.630  0.00  0.00    +0.000 A 
ATOM     29  C   UNL     1      10.552  12.325  18.298  0.00  0.00    +0.000 A 
ATOM     30  C   UNL     1       9.887  11.142  17.958  0.00  0.00    +0.000 A 
ENDBRANCH  22  25
ENDBRANCH  18  19
ENDBRANCH   2  18
TORSDOF 6
ENDMDL
MODEL 9
REMARK VINA RESULT:      -7.7      1.136      1.437
REMARK  Name = 
REMARK  7 active torsions:
REMARK  status: ('A' for Active; 'I' for Inactive)
REMARK    1  A    between atoms: C_1  and  C_2
REMARK    2  A    between atoms: C_2  and  N_3
REMARK    3  A    between atoms: C_2  and  C_19
REMARK    4  A    between atoms: C_4  and  C_6
REMARK    5  A    between atoms: C_6  and  C_7
REMARK    6  A    between atoms: C_10  and  C_11
REMARK    7  A    between atoms: C_22  and  N_23
REMARK                            x       y       z     vdW  Elec       q    Type
REMARK                         _______ _______ _______ _____ _____    ______ ____
ROOT
ATOM      1  N   UNL     1       4.152   6.301  17.923  0.00  0.00    +0.000 N 
ATOM      2  C   UNL     1       5.286   5.543  18.123  0.00  0.00    +0.000 C 
ATOM      3  O   UNL     1       5.361   4.655  18.968  0.00  0.00    +0.000 OA
ATOM      4  H   UNL     1       4.217   7.138  17.359  0.00  0.00    +0.000 HD
ENDROOT
BRANCH   1   6
ATOM      5  C   UNL     1       2.009   5.078  18.029  0.00  0.00    +0.000 C 
ATOM      6  C   UNL     1       2.947   6.080  18.705  0.00  0.00    +0.000 C 
BRANCH   6   7
ATOM      7  C   UNL     1       2.250   7.399  18.974  0.00  0.00    +0.000 A 
ATOM      8  C   UNL     1       2.121   8.332  17.935  0.00  0.00    +0.000 A 
ATOM      9  C   UNL     1       1.482   9.556  18.145  0.00  0.00    +0.000 A 
ATOM     10  C   UNL     1       0.961   9.864  19.410  0.00  0.00    +0.000 A 
ATOM     11  C   UNL     1       1.084   8.938  20.453  0.00  0.00    +0.000 A 
ATOM     12  C   UNL     1       1.720   7.713  20.234  0.00  0.00    +0.000 A 
BRANCH  10  13
ATOM     13  N   UNL     1       0.325  11.107  19.645  0.00  0.00    +0.000 N 
ATOM     14  C   UNL     1      -0.067  11.667  20.836  0.00  0.00    +0.000 A 
ATOM     15  N   UNL     1      -0.655  12.824  20.634  0.00  0.00    +0.000 NA
ATOM     16  C   UNL     1      -0.597  12.951  19.280  0.00  0.00    +0.000 A 
ATOM     17  N   UNL     1      -0.001  11.951  18.632  0.00  0.00    +0.000 NA
ENDBRANCH  10  13
ENDBRANCH   6   7
ENDBRANCH   1   6
BRANCH   2  18
ATOM     18  C   UNL     1       6.437   5.885  17.199  0.00  0.00    +0.000 C 
BRANCH  18  19
ATOM     19  C   UNL     1       7.269   7.058  17.649  0.00  0.00    +0.000 A 
ATOM     20  C   UNL     1       7.075   8.329  17.102  0.00  0.00    +0.000 A 
ATOM     21  C   UNL     1       7.782   9.435  17.594  0.00  0.00    +0.000 A 
ATOM     22  C   UNL     1       8.694   9.314  18.657  0.00  0.00    +0.000 A 
ATOM     23  C   UNL     1       8.884   8.024  19.186  0.00  0.00    +0.000 A 
ATOM     24  C   UNL     1       8.193   6.914  18.687  0.00  0.00    +0.000 A 
BRANCH  22  25
ATOM     25  C   UNL     1       9.426  10.490  19.196  0.00  0.00    +0.000 A 
ATOM     26  C   UNL     1      10.289  11.261  18.392  0.00  0.00    +0.000 A 
ATOM     27  C   UNL     1      10.993  12.352  18.913  0.00  0.00    +0.000 A 
ATOM     28  C   UNL     1      10.839  12.713  20.246  0.00  0.00    +0.000 A 
ATOM     29  C   UNL     1       9.978  11.986  21.059  0.00  0.00    +0.000 A 
ATOM     30  C   UNL     1       9.287  10.884  20.541  0.00  0.00    +0.000 A 
ENDBRANCH  22  25
ENDBRANCH  18  19
ENDBRANCH   2  18
TORSDOF 6
ENDMDL
