MODEL 1
REMARK VINA RESULT:      -7.8      0.000      0.000
REMARK  Name = 
REMARK  8 active torsions:
REMARK  status: ('A' for Active; 'I' for Inactive)
REMARK    1  A    between atoms: C_1  and  C_2
REMARK    2  A    between atoms: C_2  and  S_3
REMARK    3  A    between atoms: C_2  and  C_10
REMARK    4  A    between atoms: S_3  and  C_4
REMARK    5  A    between atoms: N_8  and  C_9
REMARK    6  A    between atoms: C_15  and  N_16
REMARK    7  A    between atoms: C_17  and  C_19
REMARK    8  A    between atoms: C_23  and  C_24
REMARK                            x       y       z     vdW  Elec       q    Type
REMARK                         _______ _______ _______ _____ _____    ______ ____
ROOT
ATOM      1  C   UNL     1       4.817   4.646  17.751  0.00  0.00    +0.000 A 
ATOM      2  C   UNL     1       5.985   4.039  17.226  0.00  0.00    +0.000 A 
ATOM      3  C   UNL     1       7.140   4.751  16.919  0.00  0.00    +0.000 A 
ATOM      4  C   UNL     1       7.181   6.111  17.167  0.00  0.00    +0.000 A 
ATOM      5  C   UNL     1       6.054   6.751  17.688  0.00  0.00    +0.000 A 
ATOM      6  C   UNL     1       4.874   6.049  17.997  0.00  0.00    +0.000 A 
ENDROOT
BRANCH   6   7
ATOM      7  N   UNL     1       3.785   6.765  18.562  0.00  0.00    +0.000 N 
ATOM      8  C   UNL     1       3.046   7.671  17.848  0.00  0.00    +0.000 C 
ATOM      9  O   UNL     1       3.111   7.832  16.616  0.00  0.00    +0.000 OA
ATOM     10  H   UNL     1       3.381   6.406  19.418  0.00  0.00    +0.000 HD
BRANCH   8  11
ATOM     11  C   UNL     1       2.035   8.513  18.566  0.00  0.00    +0.000 A 
ATOM     12  C   UNL     1       1.234   9.431  17.886  0.00  0.00    +0.000 A 
ATOM     13  C   UNL     1       0.251  10.139  18.583  0.00  0.00    +0.000 A 
ATOM     14  C   UNL     1       0.057   9.915  19.953  0.00  0.00    +0.000 A 
ATOM     15  C   UNL     1       0.826   8.971  20.665  0.00  0.00    +0.000 A 
ATOM     16  C   UNL     1       1.815   8.279  19.935  0.00  0.00    +0.000 A 
BRANCH  15  17
ATOM     17  C   UNL     1       0.613   8.697  22.133  0.00  0.00    +0.000 C 
ATOM     18  C   UNL     1      -0.104   9.480  23.119  0.00  0.00    +0.000 C 
ATOM     19  N   UNL     1       1.127   9.731  23.009  0.00  0.00    +0.000 NA
ENDBRANCH  15  17
ENDBRANCH   8  11
ENDBRANCH   6   7
BRANCH   1  21
ATOM     20  C   UNL     1       2.837   3.604  16.480  0.00  0.00    +0.000 C 
ATOM     21  C   UNL     1       3.520   3.833  17.846  0.00  0.00    +0.000 C 
BRANCH  21  22
ATOM     22  S   UNL     1       3.777   2.187  18.642  0.00  0.00    +0.000 S 
BRANCH  22  23
ATOM     23  C   UNL     1       2.900   2.421  20.119  0.00  0.00    +0.000 A 
ATOM     24  N   UNL     1       3.418   2.611  21.313  0.00  0.00    +0.000 NA
ATOM     25  N   UNL     1       2.383   2.883  22.180  0.00  0.00    +0.000 NA
ATOM     26  C   UNL     1       1.265   2.834  21.494  0.00  0.00    +0.000 A 
ATOM     27  N   UNL     1       1.542   2.537  20.192  0.00  0.00    +0.000 N 
ATOM     28  C   UNL     1       0.579   2.433  19.131  0.00  0.00    +0.000 C 
ENDBRANCH  22  23
ENDBRANCH  21  22
ENDBRANCH   1  21
TORSDOF 6
ENDMDL
MODEL 2
REMARK VINA RESULT:      -7.4      3.976      7.466
REMARK  Name = 
REMARK  8 active torsions:
REMARK  status: ('A' for Active; 'I' for Inactive)
REMARK    1  A    between atoms: C_1  and  C_2
REMARK    2  A    between atoms: C_2  and  S_3
REMARK    3  A    between atoms: C_2  and  C_10
REMARK    4  A    between atoms: S_3  and  C_4
REMARK    5  A    between atoms: N_8  and  C_9
REMARK    6  A    between atoms: C_15  and  N_16
REMARK    7  A    between atoms: C_17  and  C_19
REMARK    8  A    between atoms: C_23  and  C_24
REMARK                            x       y       z     vdW  Elec       q    Type
REMARK                         _______ _______ _______ _____ _____    ______ ____
ROOT
ATOM      1  C   UNL     1       5.250   4.622  17.659  0.00  0.00    +0.000 A 
ATOM      2  C   UNL     1       5.449   5.264  18.907  0.00  0.00    +0.000 A 
ATOM      3  C   UNL     1       6.708   5.566  19.414  0.00  0.00    +0.000 A 
ATOM      4  C   UNL     1       7.830   5.267  18.661  0.00  0.00    +0.000 A 
ATOM      5  C   UNL     1       7.681   4.637  17.424  0.00  0.00    +0.000 A 
ATOM      6  C   UNL     1       6.416   4.316  16.897  0.00  0.00    +0.000 A 
ENDROOT
BRANCH   6   7
ATOM      7  N   UNL     1       6.347   3.713  15.613  0.00  0.00    +0.000 N 
ATOM      8  C   UNL     1       6.563   4.413  14.456  0.00  0.00    +0.000 C 
ATOM      9  O   UNL     1       7.015   5.570  14.394  0.00  0.00    +0.000 OA
ATOM     10  H   UNL     1       6.406   2.704  15.566  0.00  0.00    +0.000 HD
BRANCH   8  11
ATOM     11  C   UNL     1       6.293   3.746  13.141  0.00  0.00    +0.000 A 
ATOM     12  C   UNL     1       7.258   2.961  12.508  0.00  0.00    +0.000 A 
ATOM     13  C   UNL     1       6.936   2.295  11.322  0.00  0.00    +0.000 A 
ATOM     14  C   UNL     1       5.647   2.397  10.781  0.00  0.00    +0.000 A 
ATOM     15  C   UNL     1       4.638   3.154  11.412  0.00  0.00    +0.000 A 
ATOM     16  C   UNL     1       4.996   3.821  12.602  0.00  0.00    +0.000 A 
BRANCH  15  17
ATOM     17  C   UNL     1       3.238   3.253  10.859  0.00  0.00    +0.000 C 
ATOM     18  C   UNL     1       2.791   3.236   9.481  0.00  0.00    +0.000 C 
ATOM     19  N   UNL     1       3.031   4.375   9.965  0.00  0.00    +0.000 NA
ENDBRANCH  15  17
ENDBRANCH   8  11
ENDBRANCH   6   7
BRANCH   1  21
ATOM     20  C   UNL     1       3.573   2.671  17.731  0.00  0.00    +0.000 C 
ATOM     21  C   UNL     1       3.850   4.122  17.281  0.00  0.00    +0.000 C 
BRANCH  21  22
ATOM     22  S   UNL     1       2.512   5.199  17.957  0.00  0.00    +0.000 S 
BRANCH  22  23
ATOM     23  C   UNL     1       1.542   4.012  18.767  0.00  0.00    +0.000 A 
ATOM     24  N   UNL     1       0.759   3.123  18.197  0.00  0.00    +0.000 NA
ATOM     25  N   UNL     1       0.277   2.293  19.185  0.00  0.00    +0.000 NA
ATOM     26  C   UNL     1       0.767   2.711  20.329  0.00  0.00    +0.000 A 
ATOM     27  N   UNL     1       1.564   3.797  20.115  0.00  0.00    +0.000 N 
ATOM     28  C   UNL     1       2.303   4.508  21.121  0.00  0.00    +0.000 C 
ENDBRANCH  22  23
ENDBRANCH  21  22
ENDBRANCH   1  21
TORSDOF 6
ENDMDL
MODEL 3
REMARK VINA RESULT:      -7.3      3.813      8.243
REMARK  Name = 
REMARK  8 active torsions:
REMARK  status: ('A' for Active; 'I' for Inactive)
REMARK    1  A    between atoms: C_1  and  C_2
REMARK    2  A    between atoms: C_2  and  S_3
REMARK    3  A    between atoms: C_2  and  C_10
REMARK    4  A    between atoms: S_3  and  C_4
REMARK    5  A    between atoms: N_8  and  C_9
REMARK    6  A    between atoms: C_15  and  N_16
REMARK    7  A    between atoms: C_17  and  C_19
REMARK    8  A    between atoms: C_23  and  C_24
REMARK                            x       y       z     vdW  Elec       q    Type
REMARK                         _______ _______ _______ _____ _____    ______ ____
ROOT
ATOM      1  C   UNL     1      -0.024  11.418  18.898  0.00  0.00    +0.000 A 
ATOM      2  C   UNL     1      -1.049  12.308  18.488  0.00  0.00    +0.000 A 
ATOM      3  C   UNL     1      -2.092  11.931  17.649  0.00  0.00    +0.000 A 
ATOM      4  C   UNL     1      -2.170  10.620  17.215  0.00  0.00    +0.000 A 
ATOM      5  C   UNL     1      -1.184   9.708  17.597  0.00  0.00    +0.000 A 
ATOM      6  C   UNL     1      -0.116  10.072  18.439  0.00  0.00    +0.000 A 
ENDROOT
BRANCH   6   7
ATOM      7  N   UNL     1       0.824   9.076  18.815  0.00  0.00    +0.000 N 
ATOM      8  C   UNL     1       1.927   8.777  18.059  0.00  0.00    +0.000 C 
ATOM      9  O   UNL     1       2.330   9.444  17.089  0.00  0.00    +0.000 OA
ATOM     10  H   UNL     1       0.824   8.773  19.781  0.00  0.00    +0.000 HD
BRANCH   8  11
ATOM     11  C   UNL     1       2.766   7.593  18.433  0.00  0.00    +0.000 A 
ATOM     12  C   UNL     1       2.442   6.783  19.522  0.00  0.00    +0.000 A 
ATOM     13  C   UNL     1       3.208   5.644  19.786  0.00  0.00    +0.000 A 
ATOM     14  C   UNL     1       4.283   5.306  18.952  0.00  0.00    +0.000 A 
ATOM     15  C   UNL     1       4.617   6.083  17.824  0.00  0.00    +0.000 A 
ATOM     16  C   UNL     1       3.831   7.230  17.589  0.00  0.00    +0.000 A 
BRANCH  15  17
ATOM     17  C   UNL     1       5.753   5.719  16.900  0.00  0.00    +0.000 C 
ATOM     18  C   UNL     1       6.951   4.953  17.175  0.00  0.00    +0.000 C 
ATOM     19  N   UNL     1       7.049   6.200  17.336  0.00  0.00    +0.000 NA
ENDBRANCH  15  17
ENDBRANCH   8  11
ENDBRANCH   6   7
BRANCH   1  21
ATOM     20  C   UNL     1       2.228  12.647  18.697  0.00  0.00    +0.000 C 
ATOM     21  C   UNL     1       1.205  11.968  19.633  0.00  0.00    +0.000 C 
BRANCH  21  22
ATOM     22  S   UNL     1       0.753  13.171  20.959  0.00  0.00    +0.000 S 
BRANCH  22  23
ATOM     23  C   UNL     1      -0.243  12.165  21.958  0.00  0.00    +0.000 A 
ATOM     24  N   UNL     1       0.111  11.033  22.526  0.00  0.00    +0.000 NA
ATOM     25  N   UNL     1      -0.928  10.626  23.334  0.00  0.00    +0.000 NA
ATOM     26  C   UNL     1      -1.890  11.512  23.223  0.00  0.00    +0.000 A 
ATOM     27  N   UNL     1      -1.506  12.496  22.359  0.00  0.00    +0.000 N 
ATOM     28  C   UNL     1      -2.277  13.657  22.012  0.00  0.00    +0.000 C 
ENDBRANCH  22  23
ENDBRANCH  21  22
ENDBRANCH   1  21
TORSDOF 6
ENDMDL
MODEL 4
REMARK VINA RESULT:      -7.2      3.191      7.671
REMARK  Name = 
REMARK  8 active torsions:
REMARK  status: ('A' for Active; 'I' for Inactive)
REMARK    1  A    between atoms: C_1  and  C_2
REMARK    2  A    between atoms: C_2  and  S_3
REMARK    3  A    between atoms: C_2  and  C_10
REMARK    4  A    between atoms: S_3  and  C_4
REMARK    5  A    between atoms: N_8  and  C_9
REMARK    6  A    between atoms: C_15  and  N_16
REMARK    7  A    between atoms: C_17  and  C_19
REMARK    8  A    between atoms: C_23  and  C_24
REMARK                            x       y       z     vdW  Elec       q    Type
REMARK                         _______ _______ _______ _____ _____    ______ ____
ROOT
ATOM      1  C   UNL     1       2.424   4.650  19.503  0.00  0.00    +0.000 A 
ATOM      2  C   UNL     1       1.533   4.226  20.521  0.00  0.00    +0.000 A 
ATOM      3  C   UNL     1       0.621   3.189  20.350  0.00  0.00    +0.000 A 
ATOM      4  C   UNL     1       0.595   2.504  19.149  0.00  0.00    +0.000 A 
ATOM      5  C   UNL     1       1.458   2.885  18.119  0.00  0.00    +0.000 A 
ATOM      6  C   UNL     1       2.382   3.936  18.270  0.00  0.00    +0.000 A 
ENDROOT
BRANCH   6   7
ATOM      7  N   UNL     1       3.254   4.236  17.189  0.00  0.00    +0.000 N 
ATOM      8  C   UNL     1       4.396   3.522  16.942  0.00  0.00    +0.000 C 
ATOM      9  O   UNL     1       4.702   2.449  17.493  0.00  0.00    +0.000 OA
ATOM     10  H   UNL     1       2.889   4.807  16.438  0.00  0.00    +0.000 HD
BRANCH   8  11
ATOM     11  C   UNL     1       5.350   4.015  15.896  0.00  0.00    +0.000 A 
ATOM     12  C   UNL     1       6.542   4.654  16.238  0.00  0.00    +0.000 A 
ATOM     13  C   UNL     1       7.439   5.028  15.232  0.00  0.00    +0.000 A 
ATOM     14  C   UNL     1       7.151   4.745  13.890  0.00  0.00    +0.000 A 
ATOM     15  C   UNL     1       5.972   4.071  13.511  0.00  0.00    +0.000 A 
ATOM     16  C   UNL     1       5.085   3.715  14.548  0.00  0.00    +0.000 A 
BRANCH  15  17
ATOM     17  C   UNL     1       5.660   3.735  12.074  0.00  0.00    +0.000 C 
ATOM     18  C   UNL     1       4.588   2.926  11.532  0.00  0.00    +0.000 C 
ATOM     19  N   UNL     1       5.661   2.315  11.784  0.00  0.00    +0.000 NA
ENDBRANCH  15  17
ENDBRANCH   8  11
ENDBRANCH   6   7
BRANCH   1  21
ATOM     20  C   UNL     1       4.739   5.770  19.408  0.00  0.00    +0.000 C 
ATOM     21  C   UNL     1       3.232   5.940  19.695  0.00  0.00    +0.000 C 
BRANCH  21  22
ATOM     22  S   UNL     1       2.601   7.327  18.652  0.00  0.00    +0.000 S 
BRANCH  22  23
ATOM     23  C   UNL     1       1.662   8.190  19.826  0.00  0.00    +0.000 A 
ATOM     24  N   UNL     1       1.468   7.843  21.079  0.00  0.00    +0.000 NA
ATOM     25  N   UNL     1       0.778   8.864  21.695  0.00  0.00    +0.000 NA
ATOM     26  C   UNL     1       0.557   9.794  20.796  0.00  0.00    +0.000 A 
ATOM     27  N   UNL     1       1.090   9.409  19.600  0.00  0.00    +0.000 N 
ATOM     28  C   UNL     1       1.081  10.181  18.389  0.00  0.00    +0.000 C 
ENDBRANCH  22  23
ENDBRANCH  21  22
ENDBRANCH   1  21
TORSDOF 6
ENDMDL
MODEL 5
REMARK VINA RESULT:      -7.1      1.101      1.124
REMARK  Name = 
REMARK  8 active torsions:
REMARK  status: ('A' for Active; 'I' for Inactive)
REMARK    1  A    between atoms: C_1  and  C_2
REMARK    2  A    between atoms: C_2  and  S_3
REMARK    3  A    between atoms: C_2  and  C_10
REMARK    4  A    between atoms: S_3  and  C_4
REMARK    5  A    between atoms: N_8  and  C_9
REMARK    6  A    between atoms: C_15  and  N_16
REMARK    7  A    between atoms: C_17  and  C_19
REMARK    8  A    between atoms: C_23  and  C_24
REMARK                            x       y       z     vdW  Elec       q    Type
REMARK                         _______ _______ _______ _____ _____    ______ ____
ROOT
ATOM      1  C   UNL     1       4.514   4.424  16.985  0.00  0.00    +0.000 A 
ATOM      2  C   UNL     1       5.460   3.502  16.470  0.00  0.00    +0.000 A 
ATOM      3  C   UNL     1       6.477   3.865  15.594  0.00  0.00    +0.000 A 
ATOM      4  C   UNL     1       6.609   5.192  15.226  0.00  0.00    +0.000 A 
ATOM      5  C   UNL     1       5.702   6.136  15.712  0.00  0.00    +0.000 A 
ATOM      6  C   UNL     1       4.662   5.786  16.594  0.00  0.00    +0.000 A 
ENDROOT
BRANCH   6   7
ATOM      7  N   UNL     1       3.805   6.811  17.076  0.00  0.00    +0.000 N 
ATOM      8  C   UNL     1       3.484   6.944  18.401  0.00  0.00    +0.000 C 
ATOM      9  O   UNL     1       4.031   6.328  19.333  0.00  0.00    +0.000 OA
ATOM     10  H   UNL     1       3.648   7.611  16.476  0.00  0.00    +0.000 HD
BRANCH   8  11
ATOM     11  C   UNL     1       2.434   7.936  18.799  0.00  0.00    +0.000 A 
ATOM     12  C   UNL     1       1.868   8.813  17.873  0.00  0.00    +0.000 A 
ATOM     13  C   UNL     1       0.837   9.668  18.272  0.00  0.00    +0.000 A 
ATOM     14  C   UNL     1       0.360   9.632  19.590  0.00  0.00    +0.000 A 
ATOM     15  C   UNL     1       0.886   8.736  20.543  0.00  0.00    +0.000 A 
ATOM     16  C   UNL     1       1.930   7.893  20.112  0.00  0.00    +0.000 A 
BRANCH  15  17
ATOM     17  C   UNL     1       0.366   8.666  21.958  0.00  0.00    +0.000 C 
ATOM     18  C   UNL     1      -0.199   9.714  22.782  0.00  0.00    +0.000 C 
ATOM     19  N   UNL     1       1.047   9.548  22.884  0.00  0.00    +0.000 NA
ENDBRANCH  15  17
ENDBRANCH   8  11
ENDBRANCH   6   7
BRANCH   1  21
ATOM     20  C   UNL     1       2.005   3.857  16.913  0.00  0.00    +0.000 C 
ATOM     21  C   UNL     1       3.295   3.903  17.759  0.00  0.00    +0.000 C 
BRANCH  21  22
ATOM     22  S   UNL     1       3.578   2.223  18.469  0.00  0.00    +0.000 S 
BRANCH  22  23
ATOM     23  C   UNL     1       2.835   2.419  20.023  0.00  0.00    +0.000 A 
ATOM     24  N   UNL     1       3.454   2.631  21.163  0.00  0.00    +0.000 NA
ATOM     25  N   UNL     1       2.495   2.859  22.126  0.00  0.00    +0.000 NA
ATOM     26  C   UNL     1       1.320   2.761  21.548  0.00  0.00    +0.000 A 
ATOM     27  N   UNL     1       1.485   2.477  20.224  0.00  0.00    +0.000 N 
ATOM     28  C   UNL     1       0.432   2.332  19.258  0.00  0.00    +0.000 C 
ENDBRANCH  22  23
ENDBRANCH  21  22
ENDBRANCH   1  21
TORSDOF 6
ENDMDL
MODEL 6
REMARK VINA RESULT:      -7.1      1.158      1.904
REMARK  Name = 
REMARK  8 active torsions:
REMARK  status: ('A' for Active; 'I' for Inactive)
REMARK    1  A    between atoms: C_1  and  C_2
REMARK    2  A    between atoms: C_2  and  S_3
REMARK    3  A    between atoms: C_2  and  C_10
REMARK    4  A    between atoms: S_3  and  C_4
REMARK    5  A    between atoms: N_8  and  C_9
REMARK    6  A    between atoms: C_15  and  N_16
REMARK    7  A    between atoms: C_17  and  C_19
REMARK    8  A    between atoms: C_23  and  C_24
REMARK                            x       y       z     vdW  Elec       q    Type
REMARK                         _______ _______ _______ _____ _____    ______ ____
ROOT
ATOM      1  C   UNL     1       4.622   4.680  17.532  0.00  0.00    +0.000 A 
ATOM      2  C   UNL     1       5.721   4.221  16.764  0.00  0.00    +0.000 A 
ATOM      3  C   UNL     1       6.770   5.044  16.369  0.00  0.00    +0.000 A 
ATOM      4  C   UNL     1       6.776   6.369  16.769  0.00  0.00    +0.000 A 
ATOM      5  C   UNL     1       5.715   6.864  17.530  0.00  0.00    +0.000 A 
ATOM      6  C   UNL     1       4.641   6.048  17.931  0.00  0.00    +0.000 A 
ENDROOT
BRANCH   6   7
ATOM      7  N   UNL     1       3.620   6.617  18.739  0.00  0.00    +0.000 N 
ATOM      8  C   UNL     1       2.813   7.635  18.302  0.00  0.00    +0.000 C 
ATOM      9  O   UNL     1       2.748   8.041  17.128  0.00  0.00    +0.000 OA
ATOM     10  H   UNL     1       3.308   6.087  19.542  0.00  0.00    +0.000 HD
BRANCH   8  11
ATOM     11  C   UNL     1       1.887   8.298  19.276  0.00  0.00    +0.000 A 
ATOM     12  C   UNL     1       1.603   7.729  20.518  0.00  0.00    +0.000 A 
ATOM     13  C   UNL     1       0.795   8.420  21.426  0.00  0.00    +0.000 A 
ATOM     14  C   UNL     1       0.289   9.686  21.099  0.00  0.00    +0.000 A 
ATOM     15  C   UNL     1       0.584  10.305  19.867  0.00  0.00    +0.000 A 
ATOM     16  C   UNL     1       1.394   9.579  18.970  0.00  0.00    +0.000 A 
BRANCH  15  17
ATOM     17  C   UNL     1       0.070  11.679  19.510  0.00  0.00    +0.000 C 
ATOM     18  C   UNL     1       0.610  12.648  18.579  0.00  0.00    +0.000 C 
ATOM     19  N   UNL     1       1.012  12.749  19.769  0.00  0.00    +0.000 NA
ENDBRANCH  15  17
ENDBRANCH   8  11
ENDBRANCH   6   7
BRANCH   1  21
ATOM     20  C   UNL     1       2.677   3.421  16.411  0.00  0.00    +0.000 C 
ATOM     21  C   UNL     1       3.403   3.769  17.728  0.00  0.00    +0.000 C 
BRANCH  21  22
ATOM     22  S   UNL     1       3.835   2.189  18.580  0.00  0.00    +0.000 S 
BRANCH  22  23
ATOM     23  C   UNL     1       2.961   2.392  20.063  0.00  0.00    +0.000 A 
ATOM     24  N   UNL     1       3.479   2.620  21.250  0.00  0.00    +0.000 NA
ATOM     25  N   UNL     1       2.439   2.847  22.125  0.00  0.00    +0.000 NA
ATOM     26  C   UNL     1       1.319   2.732  21.450  0.00  0.00    +0.000 A 
ATOM     27  N   UNL     1       1.599   2.438  20.147  0.00  0.00    +0.000 N 
ATOM     28  C   UNL     1       0.633   2.273  19.097  0.00  0.00    +0.000 C 
ENDBRANCH  22  23
ENDBRANCH  21  22
ENDBRANCH   1  21
TORSDOF 6
ENDMDL
MODEL 7
REMARK VINA RESULT:      -7.0      2.366      4.348
REMARK  Name = 
REMARK  8 active torsions:
REMARK  status: ('A' for Active; 'I' for Inactive)
REMARK    1  A    between atoms: C_1  and  C_2
REMARK    2  A    between atoms: C_2  and  S_3
REMARK    3  A    between atoms: C_2  and  C_10
REMARK    4  A    between atoms: S_3  and  C_4
REMARK    5  A    between atoms: N_8  and  C_9
REMARK    6  A    between atoms: C_15  and  N_16
REMARK    7  A    between atoms: C_17  and  C_19
REMARK    8  A    between atoms: C_23  and  C_24
REMARK                            x       y       z     vdW  Elec       q    Type
REMARK                         _______ _______ _______ _____ _____    ______ ____
ROOT
ATOM      1  C   UNL     1       4.714   4.830  19.348  0.00  0.00    +0.000 A 
ATOM      2  C   UNL     1       5.125   3.474  19.295  0.00  0.00    +0.000 A 
ATOM      3  C   UNL     1       4.356   2.426  19.789  0.00  0.00    +0.000 A 
ATOM      4  C   UNL     1       3.110   2.698  20.327  0.00  0.00    +0.000 A 
ATOM      5  C   UNL     1       2.663   4.019  20.396  0.00  0.00    +0.000 A 
ATOM      6  C   UNL     1       3.431   5.094  19.908  0.00  0.00    +0.000 A 
ENDROOT
BRANCH   6   7
ATOM      7  N   UNL     1       2.888   6.404  19.978  0.00  0.00    +0.000 N 
ATOM      8  C   UNL     1       2.205   6.977  18.938  0.00  0.00    +0.000 C 
ATOM      9  O   UNL     1       1.825   6.378  17.916  0.00  0.00    +0.000 OA
ATOM     10  H   UNL     1       2.769   6.814  20.896  0.00  0.00    +0.000 HD
BRANCH   8  11
ATOM     11  C   UNL     1       1.825   8.424  19.027  0.00  0.00    +0.000 A 
ATOM     12  C   UNL     1       2.201   9.340  18.043  0.00  0.00    +0.000 A 
ATOM     13  C   UNL     1       1.758  10.664  18.127  0.00  0.00    +0.000 A 
ATOM     14  C   UNL     1       0.925  11.064  19.181  0.00  0.00    +0.000 A 
ATOM     15  C   UNL     1       0.498  10.158  20.173  0.00  0.00    +0.000 A 
ATOM     16  C   UNL     1       0.969   8.833  20.065  0.00  0.00    +0.000 A 
BRANCH  15  17
ATOM     17  C   UNL     1      -0.420  10.566  21.299  0.00  0.00    +0.000 C 
ATOM     18  C   UNL     1      -0.460  11.804  22.048  0.00  0.00    +0.000 C 
ATOM     19  N   UNL     1       0.265  10.894  22.532  0.00  0.00    +0.000 NA
ENDBRANCH  15  17
ENDBRANCH   8  11
ENDBRANCH   6   7
BRANCH   1  21
ATOM     20  C   UNL     1       7.172   5.437  18.882  0.00  0.00    +0.000 C 
ATOM     21  C   UNL     1       5.715   5.937  18.992  0.00  0.00    +0.000 C 
BRANCH  21  22
ATOM     22  S   UNL     1       5.282   6.797  17.416  0.00  0.00    +0.000 S 
BRANCH  22  23
ATOM     23  C   UNL     1       6.095   5.775  16.276  0.00  0.00    +0.000 A 
ATOM     24  N   UNL     1       7.320   5.927  15.826  0.00  0.00    +0.000 NA
ATOM     25  N   UNL     1       7.620   4.832  15.045  0.00  0.00    +0.000 NA
ATOM     26  C   UNL     1       6.563   4.054  15.029  0.00  0.00    +0.000 A 
ATOM     27  N   UNL     1       5.574   4.612  15.785  0.00  0.00    +0.000 N 
ATOM     28  C   UNL     1       4.281   4.037  16.035  0.00  0.00    +0.000 C 
ENDBRANCH  22  23
ENDBRANCH  21  22
ENDBRANCH   1  21
TORSDOF 6
ENDMDL
MODEL 8
REMARK VINA RESULT:      -7.0      3.905      7.377
REMARK  Name = 
REMARK  8 active torsions:
REMARK  status: ('A' for Active; 'I' for Inactive)
REMARK    1  A    between atoms: C_1  and  C_2
REMARK    2  A    between atoms: C_2  and  S_3
REMARK    3  A    between atoms: C_2  and  C_10
REMARK    4  A    between atoms: S_3  and  C_4
REMARK    5  A    between atoms: N_8  and  C_9
REMARK    6  A    between atoms: C_15  and  N_16
REMARK    7  A    between atoms: C_17  and  C_19
REMARK    8  A    between atoms: C_23  and  C_24
REMARK                            x       y       z     vdW  Elec       q    Type
REMARK                         _______ _______ _______ _____ _____    ______ ____
ROOT
ATOM      1  C   UNL     1       5.409   4.133  17.956  0.00  0.00    +0.000 A 
ATOM      2  C   UNL     1       5.513   4.764  19.221  0.00  0.00    +0.000 A 
ATOM      3  C   UNL     1       6.611   5.528  19.602  0.00  0.00    +0.000 A 
ATOM      4  C   UNL     1       7.644   5.722  18.702  0.00  0.00    +0.000 A 
ATOM      5  C   UNL     1       7.582   5.122  17.443  0.00  0.00    +0.000 A 
ATOM      6  C   UNL     1       6.482   4.340  17.042  0.00  0.00    +0.000 A 
ENDROOT
BRANCH   6   7
ATOM      7  N   UNL     1       6.476   3.797  15.729  0.00  0.00    +0.000 N 
ATOM      8  C   UNL     1       6.110   4.528  14.630  0.00  0.00    +0.000 C 
ATOM      9  O   UNL     1       5.929   5.759  14.617  0.00  0.00    +0.000 OA
ATOM     10  H   UNL     1       7.004   2.949  15.571  0.00  0.00    +0.000 HD
BRANCH   8  11
ATOM     11  C   UNL     1       5.957   3.831  13.311  0.00  0.00    +0.000 A 
ATOM     12  C   UNL     1       6.965   3.016  12.795  0.00  0.00    +0.000 A 
ATOM     13  C   UNL     1       6.748   2.324  11.600  0.00  0.00    +0.000 A 
ATOM     14  C   UNL     1       5.519   2.432  10.933  0.00  0.00    +0.000 A 
ATOM     15  C   UNL     1       4.467   3.221  11.444  0.00  0.00    +0.000 A 
ATOM     16  C   UNL     1       4.720   3.912  12.647  0.00  0.00    +0.000 A 
BRANCH  15  17
ATOM     17  C   UNL     1       3.129   3.327  10.755  0.00  0.00    +0.000 C 
ATOM     18  C   UNL     1       2.822   3.324   9.340  0.00  0.00    +0.000 C 
ATOM     19  N   UNL     1       3.014   4.458   9.856  0.00  0.00    +0.000 NA
ENDBRANCH  15  17
ENDBRANCH   8  11
ENDBRANCH   6   7
BRANCH   1  21
ATOM     20  C   UNL     1       3.977   2.223  18.917  0.00  0.00    +0.000 C 
ATOM     21  C   UNL     1       4.277   3.129  17.703  0.00  0.00    +0.000 C 
BRANCH  21  22
ATOM     22  S   UNL     1       2.704   3.953  17.199  0.00  0.00    +0.000 S 
BRANCH  22  23
ATOM     23  C   UNL     1       1.945   4.138  18.747  0.00  0.00    +0.000 A 
ATOM     24  N   UNL     1       1.297   3.209  19.414  0.00  0.00    +0.000 NA
ATOM     25  N   UNL     1       0.968   3.730  20.647  0.00  0.00    +0.000 NA
ATOM     26  C   UNL     1       1.410   4.965  20.687  0.00  0.00    +0.000 A 
ATOM     27  N   UNL     1       2.026   5.269  19.508  0.00  0.00    +0.000 N 
ATOM     28  C   UNL     1       2.666   6.515  19.191  0.00  0.00    +0.000 C 
ENDBRANCH  22  23
ENDBRANCH  21  22
ENDBRANCH   1  21
TORSDOF 6
ENDMDL
MODEL 9
REMARK VINA RESULT:      -6.8      1.321      1.855
REMARK  Name = 
REMARK  8 active torsions:
REMARK  status: ('A' for Active; 'I' for Inactive)
REMARK    1  A    between atoms: C_1  and  C_2
REMARK    2  A    between atoms: C_2  and  S_3
REMARK    3  A    between atoms: C_2  and  C_10
REMARK    4  A    between atoms: S_3  and  C_4
REMARK    5  A    between atoms: N_8  and  C_9
REMARK    6  A    between atoms: C_15  and  N_16
REMARK    7  A    between atoms: C_17  and  C_19
REMARK    8  A    between atoms: C_23  and  C_24
REMARK                            x       y       z     vdW  Elec       q    Type
REMARK                         _______ _______ _______ _____ _____    ______ ____
ROOT
ATOM      1  C   UNL     1       5.117   5.190  17.990  0.00  0.00    +0.000 A 
ATOM      2  C   UNL     1       5.846   4.321  17.140  0.00  0.00    +0.000 A 
ATOM      3  C   UNL     1       6.031   4.561  15.783  0.00  0.00    +0.000 A 
ATOM      4  C   UNL     1       5.517   5.719  15.227  0.00  0.00    +0.000 A 
ATOM      5  C   UNL     1       4.795   6.607  16.027  0.00  0.00    +0.000 A 
ATOM      6  C   UNL     1       4.591   6.377  17.401  0.00  0.00    +0.000 A 
ENDROOT
BRANCH   6   7
ATOM      7  N   UNL     1       3.881   7.348  18.155  0.00  0.00    +0.000 N 
ATOM      8  C   UNL     1       2.519   7.485  18.088  0.00  0.00    +0.000 C 
ATOM      9  O   UNL     1       1.748   6.686  17.528  0.00  0.00    +0.000 OA
ATOM     10  H   UNL     1       4.352   7.760  18.950  0.00  0.00    +0.000 HD
BRANCH   8  11
ATOM     11  C   UNL     1       1.871   8.649  18.774  0.00  0.00    +0.000 A 
ATOM     12  C   UNL     1       1.752   9.892  18.150  0.00  0.00    +0.000 A 
ATOM     13  C   UNL     1       1.070  10.927  18.797  0.00  0.00    +0.000 A 
ATOM     14  C   UNL     1       0.492  10.713  20.056  0.00  0.00    +0.000 A 
ATOM     15  C   UNL     1       0.564   9.461  20.700  0.00  0.00    +0.000 A 
ATOM     16  C   UNL     1       1.265   8.440  20.026  0.00  0.00    +0.000 A 
BRANCH  15  17
ATOM     17  C   UNL     1      -0.076   9.206  22.043  0.00  0.00    +0.000 C 
ATOM     18  C   UNL     1      -0.508  10.153  23.049  0.00  0.00    +0.000 C 
ATOM     19  N   UNL     1       0.673   9.731  23.166  0.00  0.00    +0.000 NA
ENDBRANCH  15  17
ENDBRANCH   8  11
ENDBRANCH   6   7
BRANCH   1  21
ATOM     20  C   UNL     1       3.532   5.454  20.001  0.00  0.00    +0.000 C 
ATOM     21  C   UNL     1       4.769   4.739  19.414  0.00  0.00    +0.000 C 
BRANCH  21  22
ATOM     22  S   UNL     1       4.486   2.918  19.526  0.00  0.00    +0.000 S 
BRANCH  22  23
ATOM     23  C   UNL     1       2.794   2.847  19.155  0.00  0.00    +0.000 A 
ATOM     24  N   UNL     1       2.256   2.878  17.956  0.00  0.00    +0.000 NA
ATOM     25  N   UNL     1       0.902   2.666  18.098  0.00  0.00    +0.000 NA
ATOM     26  C   UNL     1       0.653   2.530  19.380  0.00  0.00    +0.000 A 
ATOM     27  N   UNL     1       1.815   2.645  20.085  0.00  0.00    +0.000 N 
ATOM     28  C   UNL     1       1.949   2.517  21.510  0.00  0.00    +0.000 C 
ENDBRANCH  22  23
ENDBRANCH  21  22
ENDBRANCH   1  21
TORSDOF 6
ENDMDL
