MODEL 1
REMARK VINA RESULT:      -8.4      0.000      0.000
REMARK  Name = 
REMARK  4 active torsions:
REMARK  status: ('A' for Active; 'I' for Inactive)
REMARK    1  A    between atoms: C_1  and  C_2
REMARK    2  A    between atoms: C_7  and  C_8
REMARK    3  A    between atoms: C_11  and  C_12
REMARK    4  A    between atoms: C_21  and  C_22
REMARK                            x       y       z     vdW  Elec       q    Type
REMARK                         _______ _______ _______ _____ _____    ______ ____
ROOT
ATOM      1  C   UNL     1       5.305   5.597  16.058  0.00  0.00    +0.000 C 
ATOM      2  C   UNL     1       4.979   4.443  15.104  0.00  0.00    +0.000 C 
ATOM      3  C   UNL     1       5.976   4.383  13.985  0.00  0.00    +0.000 A 
ATOM      4  C   UNL     1       5.697   3.634  12.835  0.00  0.00    +0.000 A 
ATOM      5  C   UNL     1       6.610   3.598  11.780  0.00  0.00    +0.000 A 
ATOM      6  C   UNL     1       7.804   4.313  11.867  0.00  0.00    +0.000 A 
ATOM      7  C   UNL     1       8.095   5.044  13.018  0.00  0.00    +0.000 A 
ATOM      8  C   UNL     1       7.196   5.060  14.082  0.00  0.00    +0.000 A 
ATOM      9  O   UNL     1       7.568   5.796  15.173  0.00  0.00    +0.000 OA
ATOM     10  C   UNL     1       6.803   5.544  16.376  0.00  0.00    +0.000 C 
ENDROOT
BRANCH   1  14
ATOM     11  C   UNL     1       3.241   4.970  18.902  0.00  0.00    +0.000 A 
ATOM     12  N   UNL     1       3.240   6.315  18.902  0.00  0.00    +0.000 NA
ATOM     13  O   UNL     1       4.031   6.660  17.816  0.00  0.00    +0.000 OA
ATOM     14  C   UNL     1       4.454   5.493  17.263  0.00  0.00    +0.000 A 
ATOM     15  N   UNL     1       4.019   4.429  17.889  0.00  0.00    +0.000 NA
BRANCH  11  22
ATOM     16  C   UNL     1       0.899   3.220  18.106  0.00  0.00    +0.000 C 
ATOM     17  C   UNL     1       1.415   3.337  19.511  0.00  0.00    +0.000 A 
ATOM     18  C   UNL     1       0.785   2.606  20.528  0.00  0.00    +0.000 A 
ATOM     19  C   UNL     1       1.255   2.674  21.834  0.00  0.00    +0.000 A 
ATOM     20  C   UNL     1       2.351   3.475  22.091  0.00  0.00    +0.000 A 
ATOM     21  N   UNL     1       2.983   4.204  21.148  0.00  0.00    +0.000 NA
ATOM     22  C   UNL     1       2.510   4.141  19.869  0.00  0.00    +0.000 A 
ENDBRANCH  11  22
ENDBRANCH   1  14
BRANCH  10  23
ATOM     23  C   UNL     1       7.211   6.586  17.420  0.00  0.00    +0.000 C 
ATOM     24  F   UNL     1       8.020   7.522  16.859  0.00  0.00    +0.000 F 
ATOM     25  F   UNL     1       7.923   5.999  18.417  0.00  0.00    +0.000 F 
ENDBRANCH  10  23
TORSDOF 3
ENDMDL
MODEL 2
REMARK VINA RESULT:      -8.0      4.964      6.349
REMARK  Name = 
REMARK  4 active torsions:
REMARK  status: ('A' for Active; 'I' for Inactive)
REMARK    1  A    between atoms: C_1  and  C_2
REMARK    2  A    between atoms: C_7  and  C_8
REMARK    3  A    between atoms: C_11  and  C_12
REMARK    4  A    between atoms: C_21  and  C_22
REMARK                            x       y       z     vdW  Elec       q    Type
REMARK                         _______ _______ _______ _____ _____    ______ ____
ROOT
ATOM      1  C   UNL     1       2.901   6.592  19.176  0.00  0.00    +0.000 C 
ATOM      2  C   UNL     1       3.490   7.138  17.871  0.00  0.00    +0.000 C 
ATOM      3  C   UNL     1       4.203   6.054  17.118  0.00  0.00    +0.000 A 
ATOM      4  C   UNL     1       5.086   6.383  16.081  0.00  0.00    +0.000 A 
ATOM      5  C   UNL     1       5.773   5.379  15.397  0.00  0.00    +0.000 A 
ATOM      6  C   UNL     1       5.583   4.043  15.747  0.00  0.00    +0.000 A 
ATOM      7  C   UNL     1       4.691   3.709  16.764  0.00  0.00    +0.000 A 
ATOM      8  C   UNL     1       3.986   4.709  17.431  0.00  0.00    +0.000 A 
ATOM      9  O   UNL     1       3.126   4.290  18.409  0.00  0.00    +0.000 OA
ATOM     10  C   UNL     1       2.173   5.282  18.858  0.00  0.00    +0.000 C 
ENDROOT
BRANCH   1  14
ATOM     11  C   UNL     1       0.878   9.289  20.352  0.00  0.00    +0.000 A 
ATOM     12  N   UNL     1       0.709   8.411  21.356  0.00  0.00    +0.000 NA
ATOM     13  O   UNL     1       1.466   7.310  20.984  0.00  0.00    +0.000 OA
ATOM     14  C   UNL     1       2.016   7.613  19.779  0.00  0.00    +0.000 A 
ATOM     15  N   UNL     1       1.683   8.799  19.334  0.00  0.00    +0.000 NA
BRANCH  11  22
ATOM     16  C   UNL     1      -1.237  10.067  18.325  0.00  0.00    +0.000 C 
ATOM     17  C   UNL     1      -0.694  11.001  19.367  0.00  0.00    +0.000 A 
ATOM     18  C   UNL     1      -1.177  12.316  19.417  0.00  0.00    +0.000 A 
ATOM     19  C   UNL     1      -0.712  13.198  20.385  0.00  0.00    +0.000 A 
ATOM     20  C   UNL     1       0.228  12.739  21.286  0.00  0.00    +0.000 A 
ATOM     21  N   UNL     1       0.730  11.486  21.272  0.00  0.00    +0.000 NA
ATOM     22  C   UNL     1       0.277  10.629  20.311  0.00  0.00    +0.000 A 
ENDBRANCH  11  22
ENDBRANCH   1  14
BRANCH  10  23
ATOM     23  C   UNL     1       1.443   4.715  20.078  0.00  0.00    +0.000 C 
ATOM     24  F   UNL     1       2.338   4.298  21.010  0.00  0.00    +0.000 F 
ATOM     25  F   UNL     1       0.710   3.628  19.724  0.00  0.00    +0.000 F 
ENDBRANCH  10  23
TORSDOF 3
ENDMDL
MODEL 3
REMARK VINA RESULT:      -7.9      1.158      1.263
REMARK  Name = 
REMARK  4 active torsions:
REMARK  status: ('A' for Active; 'I' for Inactive)
REMARK    1  A    between atoms: C_1  and  C_2
REMARK    2  A    between atoms: C_7  and  C_8
REMARK    3  A    between atoms: C_11  and  C_12
REMARK    4  A    between atoms: C_21  and  C_22
REMARK                            x       y       z     vdW  Elec       q    Type
REMARK                         _______ _______ _______ _____ _____    ______ ____
ROOT
ATOM      1  C   UNL     1       5.746   4.768  16.243  0.00  0.00    +0.000 C 
ATOM      2  C   UNL     1       5.698   3.661  15.184  0.00  0.00    +0.000 C 
ATOM      3  C   UNL     1       6.438   4.079  13.948  0.00  0.00    +0.000 A 
ATOM      4  C   UNL     1       6.252   3.379  12.749  0.00  0.00    +0.000 A 
ATOM      5  C   UNL     1       6.916   3.782  11.589  0.00  0.00    +0.000 A 
ATOM      6  C   UNL     1       7.767   4.886  11.622  0.00  0.00    +0.000 A 
ATOM      7  C   UNL     1       7.971   5.573  12.817  0.00  0.00    +0.000 A 
ATOM      8  C   UNL     1       7.327   5.157  13.981  0.00  0.00    +0.000 A 
ATOM      9  O   UNL     1       7.592   5.884  15.109  0.00  0.00    +0.000 OA
ATOM     10  C   UNL     1       7.193   5.260  16.352  0.00  0.00    +0.000 C 
ENDROOT
BRANCH   1  14
ATOM     11  C   UNL     1       4.117   3.596  19.196  0.00  0.00    +0.000 A 
ATOM     12  N   UNL     1       5.402   3.504  19.583  0.00  0.00    +0.000 NA
ATOM     13  O   UNL     1       6.125   3.942  18.483  0.00  0.00    +0.000 OA
ATOM     14  C   UNL     1       5.215   4.247  17.522  0.00  0.00    +0.000 A 
ATOM     15  N   UNL     1       3.975   4.043  17.890  0.00  0.00    +0.000 NA
BRANCH  11  22
ATOM     16  C   UNL     1       1.250   3.913  18.266  0.00  0.00    +0.000 C 
ATOM     17  C   UNL     1       1.637   3.414  19.628  0.00  0.00    +0.000 A 
ATOM     18  C   UNL     1       0.626   3.075  20.539  0.00  0.00    +0.000 A 
ATOM     19  C   UNL     1       0.952   2.587  21.799  0.00  0.00    +0.000 A 
ATOM     20  C   UNL     1       2.289   2.447  22.117  0.00  0.00    +0.000 A 
ATOM     21  N   UNL     1       3.296   2.768  21.278  0.00  0.00    +0.000 NA
ATOM     22  C   UNL     1       2.969   3.258  20.047  0.00  0.00    +0.000 A 
ENDBRANCH  11  22
ENDBRANCH   1  14
BRANCH  10  23
ATOM     23  C   UNL     1       7.373   6.286  17.473  0.00  0.00    +0.000 C 
ATOM     24  F   UNL     1       7.916   7.429  16.981  0.00  0.00    +0.000 F 
ATOM     25  F   UNL     1       8.235   5.814  18.410  0.00  0.00    +0.000 F 
ENDBRANCH  10  23
TORSDOF 3
ENDMDL
MODEL 4
REMARK VINA RESULT:      -7.9      0.871      1.202
REMARK  Name = 
REMARK  4 active torsions:
REMARK  status: ('A' for Active; 'I' for Inactive)
REMARK    1  A    between atoms: C_1  and  C_2
REMARK    2  A    between atoms: C_7  and  C_8
REMARK    3  A    between atoms: C_11  and  C_12
REMARK    4  A    between atoms: C_21  and  C_22
REMARK                            x       y       z     vdW  Elec       q    Type
REMARK                         _______ _______ _______ _____ _____    ______ ____
ROOT
ATOM      1  C   UNL     1       5.351   5.475  16.105  0.00  0.00    +0.000 C 
ATOM      2  C   UNL     1       5.029   4.303  15.171  0.00  0.00    +0.000 C 
ATOM      3  C   UNL     1       5.968   4.284  14.002  0.00  0.00    +0.000 A 
ATOM      4  C   UNL     1       5.664   3.519  12.869  0.00  0.00    +0.000 A 
ATOM      5  C   UNL     1       6.521   3.521  11.768  0.00  0.00    +0.000 A 
ATOM      6  C   UNL     1       7.684   4.289  11.792  0.00  0.00    +0.000 A 
ATOM      7  C   UNL     1       8.002   5.036  12.925  0.00  0.00    +0.000 A 
ATOM      8  C   UNL     1       7.159   5.016  14.034  0.00  0.00    +0.000 A 
ATOM      9  O   UNL     1       7.553   5.772  15.104  0.00  0.00    +0.000 OA
ATOM     10  C   UNL     1       6.864   5.490  16.345  0.00  0.00    +0.000 C 
ENDROOT
BRANCH   1  14
ATOM     11  C   UNL     1       3.460   4.766  19.049  0.00  0.00    +0.000 A 
ATOM     12  N   UNL     1       3.428   6.111  19.066  0.00  0.00    +0.000 NA
ATOM     13  O   UNL     1       4.151   6.487  17.943  0.00  0.00    +0.000 OA
ATOM     14  C   UNL     1       4.570   5.337  17.354  0.00  0.00    +0.000 A 
ATOM     15  N   UNL     1       4.193   4.255  17.988  0.00  0.00    +0.000 NA
BRANCH  11  22
ATOM     16  C   UNL     1       4.756   2.259  20.155  0.00  0.00    +0.000 C 
ATOM     17  C   UNL     1       3.389   2.739  20.550  0.00  0.00    +0.000 A 
ATOM     18  C   UNL     1       2.651   1.992  21.481  0.00  0.00    +0.000 A 
ATOM     19  C   UNL     1       1.394   2.423  21.886  0.00  0.00    +0.000 A 
ATOM     20  C   UNL     1       0.903   3.597  21.349  0.00  0.00    +0.000 A 
ATOM     21  N   UNL     1       1.571   4.343  20.445  0.00  0.00    +0.000 NA
ATOM     22  C   UNL     1       2.801   3.909  20.043  0.00  0.00    +0.000 A 
ENDBRANCH  11  22
ENDBRANCH   1  14
BRANCH  10  23
ATOM     23  C   UNL     1       7.278   6.553  17.365  0.00  0.00    +0.000 C 
ATOM     24  F   UNL     1       7.987   7.538  16.756  0.00  0.00    +0.000 F 
ATOM     25  F   UNL     1       8.092   6.010  18.307  0.00  0.00    +0.000 F 
ENDBRANCH  10  23
TORSDOF 3
ENDMDL
MODEL 5
REMARK VINA RESULT:      -7.9      2.510      3.056
REMARK  Name = 
REMARK  4 active torsions:
REMARK  status: ('A' for Active; 'I' for Inactive)
REMARK    1  A    between atoms: C_1  and  C_2
REMARK    2  A    between atoms: C_7  and  C_8
REMARK    3  A    between atoms: C_11  and  C_12
REMARK    4  A    between atoms: C_21  and  C_22
REMARK                            x       y       z     vdW  Elec       q    Type
REMARK                         _______ _______ _______ _____ _____    ______ ____
ROOT
ATOM      1  C   UNL     1       5.177   6.174  16.264  0.00  0.00    +0.000 C 
ATOM      2  C   UNL     1       4.674   4.973  15.457  0.00  0.00    +0.000 C 
ATOM      3  C   UNL     1       5.654   4.610  14.382  0.00  0.00    +0.000 A 
ATOM      4  C   UNL     1       5.264   3.772  13.329  0.00  0.00    +0.000 A 
ATOM      5  C   UNL     1       6.165   3.454  12.312  0.00  0.00    +0.000 A 
ATOM      6  C   UNL     1       7.458   3.973  12.339  0.00  0.00    +0.000 A 
ATOM      7  C   UNL     1       7.858   4.791  13.395  0.00  0.00    +0.000 A 
ATOM      8  C   UNL     1       6.967   5.089  14.424  0.00  0.00    +0.000 A 
ATOM      9  O   UNL     1       7.447   5.892  15.422  0.00  0.00    +0.000 OA
ATOM     10  C   UNL     1       6.645   5.924  16.627  0.00  0.00    +0.000 C 
ENDROOT
BRANCH   1  14
ATOM     11  C   UNL     1       2.990   6.968  18.971  0.00  0.00    +0.000 A 
ATOM     12  N   UNL     1       3.571   5.856  19.456  0.00  0.00    +0.000 NA
ATOM     13  O   UNL     1       4.450   5.464  18.457  0.00  0.00    +0.000 OA
ATOM     14  C   UNL     1       4.314   6.365  17.450  0.00  0.00    +0.000 A 
ATOM     15  N   UNL     1       3.428   7.298  17.697  0.00  0.00    +0.000 NA
BRANCH  11  22
ATOM     16  C   UNL     1       1.859   9.558  17.874  0.00  0.00    +0.000 C 
ATOM     17  C   UNL     1       1.469   8.971  19.199  0.00  0.00    +0.000 A 
ATOM     18  C   UNL     1       0.533   9.649  19.992  0.00  0.00    +0.000 A 
ATOM     19  C   UNL     1       0.133   9.119  21.213  0.00  0.00    +0.000 A 
ATOM     20  C   UNL     1       0.681   7.915  21.612  0.00  0.00    +0.000 A 
ATOM     21  N   UNL     1       1.591   7.231  20.887  0.00  0.00    +0.000 NA
ATOM     22  C   UNL     1       1.988   7.763  19.695  0.00  0.00    +0.000 A 
ENDBRANCH  11  22
ENDBRANCH   1  14
BRANCH  10  23
ATOM     23  C   UNL     1       7.210   7.013  17.540  0.00  0.00    +0.000 C 
ATOM     24  F   UNL     1       8.064   7.811  16.848  0.00  0.00    +0.000 F 
ATOM     25  F   UNL     1       7.926   6.456  18.551  0.00  0.00    +0.000 F 
ENDBRANCH  10  23
TORSDOF 3
ENDMDL
MODEL 6
REMARK VINA RESULT:      -7.8      4.786      5.978
REMARK  Name = 
REMARK  4 active torsions:
REMARK  status: ('A' for Active; 'I' for Inactive)
REMARK    1  A    between atoms: C_1  and  C_2
REMARK    2  A    between atoms: C_7  and  C_8
REMARK    3  A    between atoms: C_11  and  C_12
REMARK    4  A    between atoms: C_21  and  C_22
REMARK                            x       y       z     vdW  Elec       q    Type
REMARK                         _______ _______ _______ _____ _____    ______ ____
ROOT
ATOM      1  C   UNL     1       3.058   6.954  18.545  0.00  0.00    +0.000 C 
ATOM      2  C   UNL     1       3.734   7.248  17.202  0.00  0.00    +0.000 C 
ATOM      3  C   UNL     1       4.470   6.040  16.704  0.00  0.00    +0.000 A 
ATOM      4  C   UNL     1       5.418   6.167  15.681  0.00  0.00    +0.000 A 
ATOM      5  C   UNL     1       6.126   5.050  15.235  0.00  0.00    +0.000 A 
ATOM      6  C   UNL     1       5.892   3.802  15.809  0.00  0.00    +0.000 A 
ATOM      7  C   UNL     1       4.935   3.666  16.813  0.00  0.00    +0.000 A 
ATOM      8  C   UNL     1       4.210   4.776  17.243  0.00  0.00    +0.000 A 
ATOM      9  O   UNL     1       3.286   4.549  18.225  0.00  0.00    +0.000 OA
ATOM     10  C   UNL     1       2.326   5.613  18.427  0.00  0.00    +0.000 C 
ENDROOT
BRANCH   1  14
ATOM     11  C   UNL     1       0.950   9.567  19.760  0.00  0.00    +0.000 A 
ATOM     12  N   UNL     1       0.700   9.656  18.442  0.00  0.00    +0.000 NA
ATOM     13  O   UNL     1       1.488   8.666  17.873  0.00  0.00    +0.000 OA
ATOM     14  C   UNL     1       2.158   8.074  18.897  0.00  0.00    +0.000 A 
ATOM     15  N   UNL     1       1.884   8.589  20.070  0.00  0.00    +0.000 NA
BRANCH  11  22
ATOM     16  C   UNL     1      -0.503   8.414  22.157  0.00  0.00    +0.000 C 
ATOM     17  C   UNL     1      -0.368   9.885  21.889  0.00  0.00    +0.000 A 
ATOM     18  C   UNL     1      -0.947  10.794  22.786  0.00  0.00    +0.000 A 
ATOM     19  C   UNL     1      -0.818  12.162  22.579  0.00  0.00    +0.000 A 
ATOM     20  C   UNL     1      -0.108  12.590  21.475  0.00  0.00    +0.000 A 
ATOM     21  N   UNL     1       0.459  11.754  20.579  0.00  0.00    +0.000 NA
ATOM     22  C   UNL     1       0.319  10.412  20.782  0.00  0.00    +0.000 A 
ENDBRANCH  11  22
ENDBRANCH   1  14
BRANCH  10  23
ATOM     23  C   UNL     1       1.514   5.284  19.682  0.00  0.00    +0.000 C 
ATOM     24  F   UNL     1       2.314   5.307  20.779  0.00  0.00    +0.000 F 
ATOM     25  F   UNL     1       1.004   4.028  19.596  0.00  0.00    +0.000 F 
ENDBRANCH  10  23
TORSDOF 3
ENDMDL
MODEL 7
REMARK VINA RESULT:      -7.8      4.760      5.896
REMARK  Name = 
REMARK  4 active torsions:
REMARK  status: ('A' for Active; 'I' for Inactive)
REMARK    1  A    between atoms: C_1  and  C_2
REMARK    2  A    between atoms: C_7  and  C_8
REMARK    3  A    between atoms: C_11  and  C_12
REMARK    4  A    between atoms: C_21  and  C_22
REMARK                            x       y       z     vdW  Elec       q    Type
REMARK                         _______ _______ _______ _____ _____    ______ ____
ROOT
ATOM      1  C   UNL     1       3.118   6.783  18.619  0.00  0.00    +0.000 C 
ATOM      2  C   UNL     1       3.776   7.147  17.284  0.00  0.00    +0.000 C 
ATOM      3  C   UNL     1       4.523   5.972  16.724  0.00  0.00    +0.000 A 
ATOM      4  C   UNL     1       5.459   6.157  15.699  0.00  0.00    +0.000 A 
ATOM      5  C   UNL     1       6.176   5.071  15.196  0.00  0.00    +0.000 A 
ATOM      6  C   UNL     1       5.962   3.795  15.715  0.00  0.00    +0.000 A 
ATOM      7  C   UNL     1       5.017   3.602  16.720  0.00  0.00    +0.000 A 
ATOM      8  C   UNL     1       4.284   4.682  17.207  0.00  0.00    +0.000 A 
ATOM      9  O   UNL     1       3.372   4.398  18.187  0.00  0.00    +0.000 OA
ATOM     10  C   UNL     1       2.402   5.440  18.446  0.00  0.00    +0.000 C 
ENDROOT
BRANCH   1  14
ATOM     11  C   UNL     1       0.949   9.278  19.966  0.00  0.00    +0.000 A 
ATOM     12  N   UNL     1       0.828   9.544  18.654  0.00  0.00    +0.000 NA
ATOM     13  O   UNL     1       1.650   8.613  18.036  0.00  0.00    +0.000 OA
ATOM     14  C   UNL     1       2.208   7.875  19.030  0.00  0.00    +0.000 A 
ATOM     15  N   UNL     1       1.832   8.241  20.230  0.00  0.00    +0.000 NA
BRANCH  11  22
ATOM     16  C   UNL     1       0.330  12.240  19.787  0.00  0.00    +0.000 C 
ATOM     17  C   UNL     1      -0.042  11.377  20.959  0.00  0.00    +0.000 A 
ATOM     18  C   UNL     1      -0.710  11.960  22.045  0.00  0.00    +0.000 A 
ATOM     19  C   UNL     1      -1.089  11.183  23.133  0.00  0.00    +0.000 A 
ATOM     20  C   UNL     1      -0.791   9.834  23.106  0.00  0.00    +0.000 A 
ATOM     21  N   UNL     1      -0.142   9.232  22.088  0.00  0.00    +0.000 NA
ATOM     22  C   UNL     1       0.238  10.002  21.028  0.00  0.00    +0.000 A 
ENDBRANCH  11  22
ENDBRANCH   1  14
BRANCH  10  23
ATOM     23  C   UNL     1       1.607   5.043  19.692  0.00  0.00    +0.000 C 
ATOM     24  F   UNL     1       2.431   4.961  20.769  0.00  0.00    +0.000 F 
ATOM     25  F   UNL     1       1.054   3.814  19.527  0.00  0.00    +0.000 F 
ENDBRANCH  10  23
TORSDOF 3
ENDMDL
MODEL 8
REMARK VINA RESULT:      -7.8      4.873      6.333
REMARK  Name = 
REMARK  4 active torsions:
REMARK  status: ('A' for Active; 'I' for Inactive)
REMARK    1  A    between atoms: C_1  and  C_2
REMARK    2  A    between atoms: C_7  and  C_8
REMARK    3  A    between atoms: C_11  and  C_12
REMARK    4  A    between atoms: C_21  and  C_22
REMARK                            x       y       z     vdW  Elec       q    Type
REMARK                         _______ _______ _______ _____ _____    ______ ____
ROOT
ATOM      1  C   UNL     1       3.130   6.683  18.681  0.00  0.00    +0.000 C 
ATOM      2  C   UNL     1       3.834   7.125  17.393  0.00  0.00    +0.000 C 
ATOM      3  C   UNL     1       4.561   5.972  16.765  0.00  0.00    +0.000 A 
ATOM      4  C   UNL     1       5.528   6.205  15.780  0.00  0.00    +0.000 A 
ATOM      5  C   UNL     1       6.227   5.139  15.214  0.00  0.00    +0.000 A 
ATOM      6  C   UNL     1       5.965   3.834  15.631  0.00  0.00    +0.000 A 
ATOM      7  C   UNL     1       4.988   3.595  16.596  0.00  0.00    +0.000 A 
ATOM      8  C   UNL     1       4.273   4.658  17.144  0.00  0.00    +0.000 A 
ATOM      9  O   UNL     1       3.328   4.330  18.078  0.00  0.00    +0.000 OA
ATOM     10  C   UNL     1       2.381   5.379  18.391  0.00  0.00    +0.000 C 
ENDROOT
BRANCH   1  14
ATOM     11  C   UNL     1       0.990   9.433  19.457  0.00  0.00    +0.000 A 
ATOM     12  N   UNL     1       1.199   8.942  20.691  0.00  0.00    +0.000 NA
ATOM     13  O   UNL     1       2.031   7.850  20.490  0.00  0.00    +0.000 OA
ATOM     14  C   UNL     1       2.241   7.768  19.150  0.00  0.00    +0.000 A 
ATOM     15  N   UNL     1       1.621   8.696  18.465  0.00  0.00    +0.000 NA
BRANCH  11  22
ATOM     16  C   UNL     1       2.202  12.052  18.528  0.00  0.00    +0.000 C 
ATOM     17  C   UNL     1       0.732  11.842  18.747  0.00  0.00    +0.000 A 
ATOM     18  C   UNL     1      -0.148  12.911  18.518  0.00  0.00    +0.000 A 
ATOM     19  C   UNL     1      -1.516  12.741  18.687  0.00  0.00    +0.000 A 
ATOM     20  C   UNL     1      -1.975  11.499  19.080  0.00  0.00    +0.000 A 
ATOM     21  N   UNL     1      -1.168  10.444  19.321  0.00  0.00    +0.000 NA
ATOM     22  C   UNL     1       0.176  10.621  19.164  0.00  0.00    +0.000 A 
ENDBRANCH  11  22
ENDBRANCH   1  14
BRANCH  10  23
ATOM     23  C   UNL     1       1.543   4.915  19.584  0.00  0.00    +0.000 C 
ATOM     24  F   UNL     1       2.334   4.735  20.673  0.00  0.00    +0.000 F 
ATOM     25  F   UNL     1       0.966   3.715  19.317  0.00  0.00    +0.000 F 
ENDBRANCH  10  23
TORSDOF 3
ENDMDL
MODEL 9
REMARK VINA RESULT:      -7.6      4.689      7.010
REMARK  Name = 
REMARK  4 active torsions:
REMARK  status: ('A' for Active; 'I' for Inactive)
REMARK    1  A    between atoms: C_1  and  C_2
REMARK    2  A    between atoms: C_7  and  C_8
REMARK    3  A    between atoms: C_11  and  C_12
REMARK    4  A    between atoms: C_21  and  C_22
REMARK                            x       y       z     vdW  Elec       q    Type
REMARK                         _______ _______ _______ _____ _____    ______ ____
ROOT
ATOM      1  C   UNL     1       2.525   6.588  18.629  0.00  0.00    +0.000 C 
ATOM      2  C   UNL     1       2.068   6.065  19.995  0.00  0.00    +0.000 C 
ATOM      3  C   UNL     1       2.643   4.705  20.261  0.00  0.00    +0.000 A 
ATOM      4  C   UNL     1       2.110   3.904  21.279  0.00  0.00    +0.000 A 
ATOM      5  C   UNL     1       2.623   2.627  21.510  0.00  0.00    +0.000 A 
ATOM      6  C   UNL     1       3.670   2.144  20.726  0.00  0.00    +0.000 A 
ATOM      7  C   UNL     1       4.217   2.945  19.725  0.00  0.00    +0.000 A 
ATOM      8  C   UNL     1       3.722   4.229  19.509  0.00  0.00    +0.000 A 
ATOM      9  O   UNL     1       4.324   4.948  18.513  0.00  0.00    +0.000 OA
ATOM     10  C   UNL     1       4.036   6.366  18.516  0.00  0.00    +0.000 C 
ENDROOT
BRANCH   1  14
ATOM     11  C   UNL     1       1.390   9.972  18.623  0.00  0.00    +0.000 A 
ATOM     12  N   UNL     1       2.001   9.926  17.426  0.00  0.00    +0.000 NA
ATOM     13  O   UNL     1       2.485   8.629  17.336  0.00  0.00    +0.000 OA
ATOM     14  C   UNL     1       2.137   8.009  18.493  0.00  0.00    +0.000 A 
ATOM     15  N   UNL     1       1.481   8.779  19.324  0.00  0.00    +0.000 NA
BRANCH  11  22
ATOM     16  C   UNL     1      -1.571  10.459  18.195  0.00  0.00    +0.000 C 
ATOM     17  C   UNL     1      -0.671  11.393  18.950  0.00  0.00    +0.000 A 
ATOM     18  C   UNL     1      -1.213  12.568  19.492  0.00  0.00    +0.000 A 
ATOM     19  C   UNL     1      -0.411  13.440  20.217  0.00  0.00    +0.000 A 
ATOM     20  C   UNL     1       0.921  13.114  20.386  0.00  0.00    +0.000 A 
ATOM     21  N   UNL     1       1.489  12.001  19.876  0.00  0.00    +0.000 NA
ATOM     22  C   UNL     1       0.698  11.154  19.155  0.00  0.00    +0.000 A 
ENDBRANCH  11  22
ENDBRANCH   1  14
BRANCH  10  23
ATOM     23  C   UNL     1       4.615   6.966  17.232  0.00  0.00    +0.000 C 
ATOM     24  F   UNL     1       4.551   6.063  16.220  0.00  0.00    +0.000 F 
ATOM     25  F   UNL     1       5.927   7.270  17.404  0.00  0.00    +0.000 F 
ENDBRANCH  10  23
TORSDOF 3
ENDMDL
