MODEL 1
REMARK VINA RESULT:      -7.8      0.000      0.000
REMARK  Name = 
REMARK  2 active torsions:
REMARK  status: ('A' for Active; 'I' for Inactive)
REMARK    1  A    between atoms: C_2  and  C_15
REMARK    2  A    between atoms: N_8  and  C_9
REMARK                            x       y       z     vdW  Elec       q    Type
REMARK                         _______ _______ _______ _____ _____    ______ ____
ROOT
ATOM      1  O   UNL     1       4.786   5.857  19.170  0.00  0.00    +0.000 OA
ATOM      2  C   UNL     1       4.129   6.544  18.400  0.00  0.00    +0.000 C 
ATOM      3  N   UNL     1       4.144   6.436  17.013  0.00  0.00    +0.000 N 
ATOM      4  C   UNL     1       4.832   5.394  16.435  0.00  0.00    +0.000 A 
ATOM      5  N   UNL     1       5.728   5.525  15.483  0.00  0.00    +0.000 NA
ATOM      6  N   UNL     1       6.343   4.306  15.327  0.00  0.00    +0.000 NA
ATOM      7  C   UNL     1       5.722   3.444  16.103  0.00  0.00    +0.000 A 
ATOM      8  N   UNL     1       4.658   4.047  16.726  0.00  0.00    +0.000 N 
ATOM      9  H   UNL     1       4.095   7.272  16.455  0.00  0.00    +0.000 HD
ENDROOT
BRANCH   2  10
ATOM     10  C   UNL     1       3.092   7.537  18.875  0.00  0.00    +0.000 C 
ATOM     11  C   UNL     1       2.559   8.488  17.789  0.00  0.00    +0.000 C 
ATOM     12  O   UNL     1       1.309   9.156  18.114  0.00  0.00    +0.000 OA
ATOM     13  C   UNL     1       1.042   9.211  19.455  0.00  0.00    +0.000 A 
ATOM     14  C   UNL     1       0.614  10.413  20.005  0.00  0.00    +0.000 A 
ATOM     15  C   UNL     1       0.546  10.534  21.392  0.00  0.00    +0.000 A 
ATOM     16  C   UNL     1       0.853   9.441  22.201  0.00  0.00    +0.000 A 
ATOM     17  F   UNL     1       0.870   9.589  23.531  0.00  0.00    +0.000 F 
ATOM     18  C   UNL     1       1.201   8.208  21.651  0.00  0.00    +0.000 A 
ATOM     19  C   UNL     1       1.295   8.094  20.262  0.00  0.00    +0.000 A 
ATOM     20  C   UNL     1       1.906   6.906  19.591  0.00  0.00    +0.000 C 
ENDBRANCH   2  10
BRANCH   8  21
ATOM     21  C   UNL     1       3.567   3.419  17.389  0.00  0.00    +0.000 A 
ATOM     22  C   UNL     1       3.761   2.270  18.162  0.00  0.00    +0.000 A 
ATOM     23  C   UNL     1       2.685   1.741  18.884  0.00  0.00    +0.000 A 
ATOM     24  C   UNL     1       1.422   2.328  18.818  0.00  0.00    +0.000 A 
ATOM     25  C   UNL     1       1.208   3.421  17.984  0.00  0.00    +0.000 A 
ATOM     26  C   UNL     1       2.272   3.952  17.260  0.00  0.00    +0.000 A 
ENDBRANCH   8  21
TORSDOF 2
ENDMDL
MODEL 2
REMARK VINA RESULT:      -7.8      0.515      1.036
REMARK  Name = 
REMARK  2 active torsions:
REMARK  status: ('A' for Active; 'I' for Inactive)
REMARK    1  A    between atoms: C_2  and  C_15
REMARK    2  A    between atoms: N_8  and  C_9
REMARK                            x       y       z     vdW  Elec       q    Type
REMARK                         _______ _______ _______ _____ _____    ______ ____
ROOT
ATOM      1  O   UNL     1       5.151   6.248  18.847  0.00  0.00    +0.000 OA
ATOM      2  C   UNL     1       4.325   6.775  18.115  0.00  0.00    +0.000 C 
ATOM      3  N   UNL     1       4.191   6.534  16.751  0.00  0.00    +0.000 N 
ATOM      4  C   UNL     1       4.936   5.530  16.176  0.00  0.00    +0.000 A 
ATOM      5  N   UNL     1       5.689   5.673  15.110  0.00  0.00    +0.000 NA
ATOM      6  N   UNL     1       6.435   4.526  14.977  0.00  0.00    +0.000 NA
ATOM      7  C   UNL     1       6.026   3.676  15.894  0.00  0.00    +0.000 A 
ATOM      8  N   UNL     1       4.973   4.207  16.596  0.00  0.00    +0.000 N 
ATOM      9  H   UNL     1       3.970   7.300  16.137  0.00  0.00    +0.000 HD
ENDROOT
BRANCH   2  10
ATOM     10  C   UNL     1       3.230   7.679  18.636  0.00  0.00    +0.000 C 
ATOM     11  C   UNL     1       2.593   8.599  17.581  0.00  0.00    +0.000 C 
ATOM     12  O   UNL     1       1.306   9.166  17.955  0.00  0.00    +0.000 OA
ATOM     13  C   UNL     1       1.079   9.183  19.303  0.00  0.00    +0.000 A 
ATOM     14  C   UNL     1       0.578  10.343  19.884  0.00  0.00    +0.000 A 
ATOM     15  C   UNL     1       0.544  10.441  21.274  0.00  0.00    +0.000 A 
ATOM     16  C   UNL     1       0.959   9.364  22.057  0.00  0.00    +0.000 A 
ATOM     17  F   UNL     1       1.007   9.496  23.388  0.00  0.00    +0.000 F 
ATOM     18  C   UNL     1       1.383   8.168  21.479  0.00  0.00    +0.000 A 
ATOM     19  C   UNL     1       1.441   8.079  20.086  0.00  0.00    +0.000 A 
ATOM     20  C   UNL     1       2.120   6.950  19.379  0.00  0.00    +0.000 C 
ENDBRANCH   2  10
BRANCH   8  21
ATOM     21  C   UNL     1       4.058   3.522  17.444  0.00  0.00    +0.000 A 
ATOM     22  C   UNL     1       2.703   3.424  17.109  0.00  0.00    +0.000 A 
ATOM     23  C   UNL     1       1.854   2.655  17.912  0.00  0.00    +0.000 A 
ATOM     24  C   UNL     1       2.335   2.012  19.052  0.00  0.00    +0.000 A 
ATOM     25  C   UNL     1       3.662   2.177  19.433  0.00  0.00    +0.000 A 
ATOM     26  C   UNL     1       4.515   2.943  18.641  0.00  0.00    +0.000 A 
ENDBRANCH   8  21
TORSDOF 2
ENDMDL
MODEL 3
REMARK VINA RESULT:      -7.7      4.310      7.718
REMARK  Name = 
REMARK  2 active torsions:
REMARK  status: ('A' for Active; 'I' for Inactive)
REMARK    1  A    between atoms: C_2  and  C_15
REMARK    2  A    between atoms: N_8  and  C_9
REMARK                            x       y       z     vdW  Elec       q    Type
REMARK                         _______ _______ _______ _____ _____    ______ ____
ROOT
ATOM      1  O   UNL     1       1.318  10.721  18.786  0.00  0.00    +0.000 OA
ATOM      2  C   UNL     1       1.045   9.731  19.450  0.00  0.00    +0.000 C 
ATOM      3  N   UNL     1       0.175   9.707  20.535  0.00  0.00    +0.000 N 
ATOM      4  C   UNL     1      -0.559  10.834  20.825  0.00  0.00    +0.000 A 
ATOM      5  N   UNL     1      -0.619  11.406  22.005  0.00  0.00    +0.000 NA
ATOM      6  N   UNL     1      -1.261  12.611  21.847  0.00  0.00    +0.000 NA
ATOM      7  C   UNL     1      -1.677  12.679  20.600  0.00  0.00    +0.000 A 
ATOM      8  N   UNL     1      -1.385  11.513  19.938  0.00  0.00    +0.000 N 
ATOM      9  H   UNL     1       0.398   9.132  21.331  0.00  0.00    +0.000 HD
ENDROOT
BRANCH   2  10
ATOM     10  C   UNL     1       1.528   8.345  19.086  0.00  0.00    +0.000 C 
ATOM     11  C   UNL     1       2.491   8.287  17.888  0.00  0.00    +0.000 C 
ATOM     12  O   UNL     1       3.263   7.059  17.777  0.00  0.00    +0.000 OA
ATOM     13  C   UNL     1       2.712   5.996  18.439  0.00  0.00    +0.000 A 
ATOM     14  C   UNL     1       2.634   4.770  17.789  0.00  0.00    +0.000 A 
ATOM     15  C   UNL     1       1.888   3.745  18.370  0.00  0.00    +0.000 A 
ATOM     16  C   UNL     1       1.281   3.944  19.609  0.00  0.00    +0.000 A 
ATOM     17  F   UNL     1       0.495   2.988  20.119  0.00  0.00    +0.000 F 
ATOM     18  C   UNL     1       1.426   5.144  20.303  0.00  0.00    +0.000 A 
ATOM     19  C   UNL     1       2.151   6.180  19.709  0.00  0.00    +0.000 A 
ATOM     20  C   UNL     1       2.147   7.576  20.245  0.00  0.00    +0.000 C 
ENDBRANCH   2  10
BRANCH   8  21
ATOM     21  C   UNL     1      -1.918  11.058  18.700  0.00  0.00    +0.000 A 
ATOM     22  C   UNL     1      -2.590   9.835  18.614  0.00  0.00    +0.000 A 
ATOM     23  C   UNL     1      -3.191   9.468  17.405  0.00  0.00    +0.000 A 
ATOM     24  C   UNL     1      -3.103  10.292  16.283  0.00  0.00    +0.000 A 
ATOM     25  C   UNL     1      -2.363  11.468  16.344  0.00  0.00    +0.000 A 
ATOM     26  C   UNL     1      -1.759  11.840  17.542  0.00  0.00    +0.000 A 
ENDBRANCH   8  21
TORSDOF 2
ENDMDL
MODEL 4
REMARK VINA RESULT:      -7.3      3.391      7.234
REMARK  Name = 
REMARK  2 active torsions:
REMARK  status: ('A' for Active; 'I' for Inactive)
REMARK    1  A    between atoms: C_2  and  C_15
REMARK    2  A    between atoms: N_8  and  C_9
REMARK                            x       y       z     vdW  Elec       q    Type
REMARK                         _______ _______ _______ _____ _____    ______ ____
ROOT
ATOM      1  O   UNL     1       0.059   9.655  18.051  0.00  0.00    +0.000 OA
ATOM      2  C   UNL     1       1.251   9.454  18.234  0.00  0.00    +0.000 C 
ATOM      3  N   UNL     1       2.197  10.435  18.517  0.00  0.00    +0.000 N 
ATOM      4  C   UNL     1       1.771  11.721  18.755  0.00  0.00    +0.000 A 
ATOM      5  N   UNL     1       2.240  12.789  18.151  0.00  0.00    +0.000 NA
ATOM      6  N   UNL     1       1.425  13.843  18.488  0.00  0.00    +0.000 NA
ATOM      7  C   UNL     1       0.560  13.409  19.379  0.00  0.00    +0.000 A 
ATOM      8  N   UNL     1       0.823  12.100  19.696  0.00  0.00    +0.000 N 
ATOM      9  H   UNL     1       3.116  10.362  18.113  0.00  0.00    +0.000 HD
ENDROOT
BRANCH   2  10
ATOM     10  C   UNL     1       1.843   8.065  18.308  0.00  0.00    +0.000 C 
ATOM     11  C   UNL     1       3.089   7.843  17.433  0.00  0.00    +0.000 C 
ATOM     12  O   UNL     1       3.890   6.681  17.785  0.00  0.00    +0.000 OA
ATOM     13  C   UNL     1       3.208   5.732  18.495  0.00  0.00    +0.000 A 
ATOM     14  C   UNL     1       3.331   4.399  18.123  0.00  0.00    +0.000 A 
ATOM     15  C   UNL     1       2.481   3.456  18.701  0.00  0.00    +0.000 A 
ATOM     16  C   UNL     1       1.564   3.851  19.674  0.00  0.00    +0.000 A 
ATOM     17  F   UNL     1       0.693   2.959  20.159  0.00  0.00    +0.000 F 
ATOM     18  C   UNL     1       1.495   5.173  20.111  0.00  0.00    +0.000 A 
ATOM     19  C   UNL     1       2.328   6.122  19.513  0.00  0.00    +0.000 A 
ATOM     20  C   UNL     1       2.152   7.593  19.721  0.00  0.00    +0.000 C 
ENDBRANCH   2  10
BRANCH   8  21
ATOM     21  C   UNL     1       0.338  11.360  20.811  0.00  0.00    +0.000 A 
ATOM     22  C   UNL     1       1.070  10.291  21.337  0.00  0.00    +0.000 A 
ATOM     23  C   UNL     1       0.614   9.654  22.496  0.00  0.00    +0.000 A 
ATOM     24  C   UNL     1      -0.573  10.051  23.112  0.00  0.00    +0.000 A 
ATOM     25  C   UNL     1      -1.345  11.058  22.541  0.00  0.00    +0.000 A 
ATOM     26  C   UNL     1      -0.900  11.696  21.387  0.00  0.00    +0.000 A 
ENDBRANCH   8  21
TORSDOF 2
ENDMDL
MODEL 5
REMARK VINA RESULT:      -7.3      2.243      2.781
REMARK  Name = 
REMARK  2 active torsions:
REMARK  status: ('A' for Active; 'I' for Inactive)
REMARK    1  A    between atoms: C_2  and  C_15
REMARK    2  A    between atoms: N_8  and  C_9
REMARK                            x       y       z     vdW  Elec       q    Type
REMARK                         _______ _______ _______ _____ _____    ______ ____
ROOT
ATOM      1  O   UNL     1       4.051   6.354  19.663  0.00  0.00    +0.000 OA
ATOM      2  C   UNL     1       3.196   6.659  18.844  0.00  0.00    +0.000 C 
ATOM      3  N   UNL     1       3.010   6.044  17.609  0.00  0.00    +0.000 N 
ATOM      4  C   UNL     1       3.735   4.913  17.313  0.00  0.00    +0.000 A 
ATOM      5  N   UNL     1       4.446   4.743  16.222  0.00  0.00    +0.000 NA
ATOM      6  N   UNL     1       5.191   3.600  16.389  0.00  0.00    +0.000 NA
ATOM      7  C   UNL     1       4.820   3.047  17.524  0.00  0.00    +0.000 A 
ATOM      8  N   UNL     1       3.794   3.762  18.088  0.00  0.00    +0.000 N 
ATOM      9  H   UNL     1       2.762   6.607  16.813  0.00  0.00    +0.000 HD
ENDROOT
BRANCH   2  10
ATOM     10  C   UNL     1       2.119   7.681  19.130  0.00  0.00    +0.000 C 
ATOM     11  C   UNL     1       1.927   8.021  20.617  0.00  0.00    +0.000 C 
ATOM     12  O   UNL     1       1.205   9.257  20.878  0.00  0.00    +0.000 OA
ATOM     13  C   UNL     1       0.427   9.676  19.834  0.00  0.00    +0.000 A 
ATOM     14  C   UNL     1      -0.875  10.089  20.091  0.00  0.00    +0.000 A 
ATOM     15  C   UNL     1      -1.737  10.312  19.018  0.00  0.00    +0.000 A 
ATOM     16  C   UNL     1      -1.270  10.171  17.712  0.00  0.00    +0.000 A 
ATOM     17  F   UNL     1      -2.125  10.301  16.690  0.00  0.00    +0.000 F 
ATOM     18  C   UNL     1       0.057   9.839  17.448  0.00  0.00    +0.000 A 
ATOM     19  C   UNL     1       0.914   9.589  18.523  0.00  0.00    +0.000 A 
ATOM     20  C   UNL     1       2.268   8.979  18.349  0.00  0.00    +0.000 C 
ENDBRANCH   2  10
BRANCH   8  21
ATOM     21  C   UNL     1       2.915   3.350  19.128  0.00  0.00    +0.000 A 
ATOM     22  C   UNL     1       3.410   2.985  20.384  0.00  0.00    +0.000 A 
ATOM     23  C   UNL     1       2.510   2.687  21.413  0.00  0.00    +0.000 A 
ATOM     24  C   UNL     1       1.133   2.722  21.194  0.00  0.00    +0.000 A 
ATOM     25  C   UNL     1       0.642   3.003  19.923  0.00  0.00    +0.000 A 
ATOM     26  C   UNL     1       1.530   3.298  18.892  0.00  0.00    +0.000 A 
ENDBRANCH   8  21
TORSDOF 2
ENDMDL
MODEL 6
REMARK VINA RESULT:      -7.2      2.387      3.851
REMARK  Name = 
REMARK  2 active torsions:
REMARK  status: ('A' for Active; 'I' for Inactive)
REMARK    1  A    between atoms: C_2  and  C_15
REMARK    2  A    between atoms: N_8  and  C_9
REMARK                            x       y       z     vdW  Elec       q    Type
REMARK                         _______ _______ _______ _____ _____    ______ ____
ROOT
ATOM      1  O   UNL     1       1.760   4.952  17.471  0.00  0.00    +0.000 OA
ATOM      2  C   UNL     1       1.917   5.218  18.655  0.00  0.00    +0.000 C 
ATOM      3  N   UNL     1       2.538   4.393  19.588  0.00  0.00    +0.000 N 
ATOM      4  C   UNL     1       3.159   3.246  19.153  0.00  0.00    +0.000 A 
ATOM      5  N   UNL     1       2.950   2.047  19.647  0.00  0.00    +0.000 NA
ATOM      6  N   UNL     1       3.574   1.145  18.818  0.00  0.00    +0.000 NA
ATOM      7  C   UNL     1       4.242   1.831  17.916  0.00  0.00    +0.000 A 
ATOM      8  N   UNL     1       4.133   3.176  18.165  0.00  0.00    +0.000 N 
ATOM      9  H   UNL     1       2.169   4.346  20.523  0.00  0.00    +0.000 HD
ENDROOT
BRANCH   2  10
ATOM     10  C   UNL     1       1.564   6.566  19.243  0.00  0.00    +0.000 C 
ATOM     11  C   UNL     1       1.690   6.659  20.773  0.00  0.00    +0.000 C 
ATOM     12  O   UNL     1       1.750   8.011  21.305  0.00  0.00    +0.000 OA
ATOM     13  C   UNL     1       1.235   8.961  20.465  0.00  0.00    +0.000 A 
ATOM     14  C   UNL     1       0.369   9.916  20.984  0.00  0.00    +0.000 A 
ATOM     15  C   UNL     1      -0.322  10.749  20.105  0.00  0.00    +0.000 A 
ATOM     16  C   UNL     1      -0.097  10.650  18.733  0.00  0.00    +0.000 A 
ATOM     17  F   UNL     1      -0.827  11.391  17.890  0.00  0.00    +0.000 F 
ATOM     18  C   UNL     1       0.833   9.750  18.213  0.00  0.00    +0.000 A 
ATOM     19  C   UNL     1       1.505   8.898  19.092  0.00  0.00    +0.000 A 
ATOM     20  C   UNL     1       2.317   7.734  18.621  0.00  0.00    +0.000 C 
ENDBRANCH   2  10
BRANCH   8  21
ATOM     21  C   UNL     1       4.930   4.227  17.632  0.00  0.00    +0.000 A 
ATOM     22  C   UNL     1       4.904   4.528  16.267  0.00  0.00    +0.000 A 
ATOM     23  C   UNL     1       5.619   5.635  15.797  0.00  0.00    +0.000 A 
ATOM     24  C   UNL     1       6.378   6.419  16.665  0.00  0.00    +0.000 A 
ATOM     25  C   UNL     1       6.473   6.071  18.009  0.00  0.00    +0.000 A 
ATOM     26  C   UNL     1       5.766   4.970  18.486  0.00  0.00    +0.000 A 
ENDBRANCH   8  21
TORSDOF 2
ENDMDL
MODEL 7
REMARK VINA RESULT:      -7.2      2.454      3.787
REMARK  Name = 
REMARK  2 active torsions:
REMARK  status: ('A' for Active; 'I' for Inactive)
REMARK    1  A    between atoms: C_2  and  C_15
REMARK    2  A    between atoms: N_8  and  C_9
REMARK                            x       y       z     vdW  Elec       q    Type
REMARK                         _______ _______ _______ _____ _____    ______ ____
ROOT
ATOM      1  O   UNL     1       2.110   5.708  17.864  0.00  0.00    +0.000 OA
ATOM      2  C   UNL     1       2.251   6.434  18.839  0.00  0.00    +0.000 C 
ATOM      3  N   UNL     1       2.661   6.013  20.101  0.00  0.00    +0.000 N 
ATOM      4  C   UNL     1       3.082   4.714  20.265  0.00  0.00    +0.000 A 
ATOM      5  N   UNL     1       2.630   3.891  21.183  0.00  0.00    +0.000 NA
ATOM      6  N   UNL     1       3.121   2.641  20.892  0.00  0.00    +0.000 NA
ATOM      7  C   UNL     1       3.950   2.765  19.878  0.00  0.00    +0.000 A 
ATOM      8  N   UNL     1       4.077   4.085  19.527  0.00  0.00    +0.000 N 
ATOM      9  H   UNL     1       2.241   6.428  20.916  0.00  0.00    +0.000 HD
ENDROOT
BRANCH   2  10
ATOM     10  C   UNL     1       2.122   7.938  18.762  0.00  0.00    +0.000 C 
ATOM     11  C   UNL     1       2.867   8.594  17.587  0.00  0.00    +0.000 C 
ATOM     12  O   UNL     1       2.440   9.946  17.265  0.00  0.00    +0.000 OA
ATOM     13  C   UNL     1       1.804  10.587  18.293  0.00  0.00    +0.000 A 
ATOM     14  C   UNL     1       2.167  11.895  18.593  0.00  0.00    +0.000 A 
ATOM     15  C   UNL     1       1.681  12.478  19.763  0.00  0.00    +0.000 A 
ATOM     16  C   UNL     1       0.804  11.766  20.581  0.00  0.00    +0.000 A 
ATOM     17  F   UNL     1       0.412  12.297  21.746  0.00  0.00    +0.000 F 
ATOM     18  C   UNL     1       0.372  10.485  20.240  0.00  0.00    +0.000 A 
ATOM     19  C   UNL     1       0.879   9.892  19.082  0.00  0.00    +0.000 A 
ATOM     20  C   UNL     1       0.686   8.443  18.769  0.00  0.00    +0.000 C 
ENDBRANCH   2  10
BRANCH   8  21
ATOM     21  C   UNL     1       5.080   4.677  18.710  0.00  0.00    +0.000 A 
ATOM     22  C   UNL     1       6.096   5.457  19.271  0.00  0.00    +0.000 A 
ATOM     23  C   UNL     1       7.123   5.935  18.451  0.00  0.00    +0.000 A 
ATOM     24  C   UNL     1       7.129   5.670  17.082  0.00  0.00    +0.000 A 
ATOM     25  C   UNL     1       6.074   4.966  16.508  0.00  0.00    +0.000 A 
ATOM     26  C   UNL     1       5.046   4.488  17.317  0.00  0.00    +0.000 A 
ENDBRANCH   8  21
TORSDOF 2
ENDMDL
MODEL 8
REMARK VINA RESULT:      -7.1      4.506      8.437
REMARK  Name = 
REMARK  2 active torsions:
REMARK  status: ('A' for Active; 'I' for Inactive)
REMARK    1  A    between atoms: C_2  and  C_15
REMARK    2  A    between atoms: N_8  and  C_9
REMARK                            x       y       z     vdW  Elec       q    Type
REMARK                         _______ _______ _______ _____ _____    ______ ____
ROOT
ATOM      1  O   UNL     1       0.420  10.527  21.517  0.00  0.00    +0.000 OA
ATOM      2  C   UNL     1       0.131  10.052  20.428  0.00  0.00    +0.000 C 
ATOM      3  N   UNL     1      -0.805  10.579  19.544  0.00  0.00    +0.000 N 
ATOM      4  C   UNL     1      -1.366  11.805  19.822  0.00  0.00    +0.000 A 
ATOM      5  N   UNL     1      -2.656  12.050  19.842  0.00  0.00    +0.000 NA
ATOM      6  N   UNL     1      -2.827  13.308  20.369  0.00  0.00    +0.000 NA
ATOM      7  C   UNL     1      -1.633  13.834  20.541  0.00  0.00    +0.000 A 
ATOM      8  N   UNL     1      -0.667  12.977  20.075  0.00  0.00    +0.000 N 
ATOM      9  H   UNL     1      -1.395   9.953  19.022  0.00  0.00    +0.000 HD
ENDROOT
BRANCH   2  10
ATOM     10  C   UNL     1       0.867   8.874  19.830  0.00  0.00    +0.000 C 
ATOM     11  C   UNL     1       1.689   9.195  18.570  0.00  0.00    +0.000 C 
ATOM     12  O   UNL     1       2.697   8.205  18.223  0.00  0.00    +0.000 OA
ATOM     13  C   UNL     1       2.466   6.968  18.758  0.00  0.00    +0.000 A 
ATOM     14  C   UNL     1       2.593   5.850  17.942  0.00  0.00    +0.000 A 
ATOM     15  C   UNL     1       2.156   4.614  18.417  0.00  0.00    +0.000 A 
ATOM     16  C   UNL     1       1.652   4.507  19.712  0.00  0.00    +0.000 A 
ATOM     17  F   UNL     1       1.153   3.337  20.131  0.00  0.00    +0.000 F 
ATOM     18  C   UNL     1       1.601   5.609  20.564  0.00  0.00    +0.000 A 
ATOM     19  C   UNL     1       2.014   6.852  20.079  0.00  0.00    +0.000 A 
ATOM     20  C   UNL     1       1.758   8.129  20.814  0.00  0.00    +0.000 C 
ENDBRANCH   2  10
BRANCH   8  21
ATOM     21  C   UNL     1       0.696  13.273  19.792  0.00  0.00    +0.000 A 
ATOM     22  C   UNL     1       1.206  13.140  18.497  0.00  0.00    +0.000 A 
ATOM     23  C   UNL     1       2.521  13.540  18.235  0.00  0.00    +0.000 A 
ATOM     24  C   UNL     1       3.334  14.039  19.253  0.00  0.00    +0.000 A 
ATOM     25  C   UNL     1       2.855  14.093  20.558  0.00  0.00    +0.000 A 
ATOM     26  C   UNL     1       1.548  13.695  20.828  0.00  0.00    +0.000 A 
ENDBRANCH   8  21
TORSDOF 2
ENDMDL
MODEL 9
REMARK VINA RESULT:      -7.1      7.170      9.913
REMARK  Name = 
REMARK  2 active torsions:
REMARK  status: ('A' for Active; 'I' for Inactive)
REMARK    1  A    between atoms: C_2  and  C_15
REMARK    2  A    between atoms: N_8  and  C_9
REMARK                            x       y       z     vdW  Elec       q    Type
REMARK                         _______ _______ _______ _____ _____    ______ ____
ROOT
ATOM      1  O   UNL     1      -1.175  11.649  23.125  0.00  0.00    +0.000 OA
ATOM      2  C   UNL     1      -1.855  12.643  22.910  0.00  0.00    +0.000 C 
ATOM      3  N   UNL     1      -1.373  13.857  22.430  0.00  0.00    +0.000 N 
ATOM      4  C   UNL     1      -0.061  13.938  22.023  0.00  0.00    +0.000 A 
ATOM      5  N   UNL     1       0.795  14.847  22.431  0.00  0.00    +0.000 NA
ATOM      6  N   UNL     1       2.038  14.471  21.983  0.00  0.00    +0.000 NA
ATOM      7  C   UNL     1       1.883  13.413  21.217  0.00  0.00    +0.000 A 
ATOM      8  N   UNL     1       0.550  13.113  21.088  0.00  0.00    +0.000 N 
ATOM      9  H   UNL     1      -1.758  14.715  22.790  0.00  0.00    +0.000 HD
ENDROOT
BRANCH   2  10
ATOM     10  C   UNL     1      -3.363  12.640  23.016  0.00  0.00    +0.000 C 
ATOM     11  C   UNL     1      -3.917  13.032  24.395  0.00  0.00    +0.000 C 
ATOM     12  O   UNL     1      -5.319  13.420  24.409  0.00  0.00    +0.000 OA
ATOM     13  C   UNL     1      -6.034  12.950  23.341  0.00  0.00    +0.000 A 
ATOM     14  C   UNL     1      -7.275  12.368  23.570  0.00  0.00    +0.000 A 
ATOM     15  C   UNL     1      -7.911  11.701  22.523  0.00  0.00    +0.000 A 
ATOM     16  C   UNL     1      -7.323  11.673  21.259  0.00  0.00    +0.000 A 
ATOM     17  F   UNL     1      -7.894  10.957  20.282  0.00  0.00    +0.000 F 
ATOM     18  C   UNL     1      -6.119  12.328  21.005  0.00  0.00    +0.000 A 
ATOM     19  C   UNL     1      -5.470  12.973  22.060  0.00  0.00    +0.000 A 
ATOM     20  C   UNL     1      -4.065  13.475  21.954  0.00  0.00    +0.000 C 
ENDBRANCH   2  10
BRANCH   8  21
ATOM     21  C   UNL     1      -0.062  12.260  20.127  0.00  0.00    +0.000 A 
ATOM     22  C   UNL     1      -1.016  12.753  19.233  0.00  0.00    +0.000 A 
ATOM     23  C   UNL     1      -1.519  11.911  18.235  0.00  0.00    +0.000 A 
ATOM     24  C   UNL     1      -1.102  10.584  18.142  0.00  0.00    +0.000 A 
ATOM     25  C   UNL     1      -0.216  10.068  19.082  0.00  0.00    +0.000 A 
ATOM     26  C   UNL     1       0.287  10.898  20.081  0.00  0.00    +0.000 A 
ENDBRANCH   8  21
TORSDOF 2
ENDMDL
