MODEL 1
REMARK VINA RESULT:      -8.7      0.000      0.000
REMARK  Name = 
REMARK  5 active torsions:
REMARK  status: ('A' for Active; 'I' for Inactive)
REMARK    1  A    between atoms: C_2  and  O_3
REMARK    2  A    between atoms: C_2  and  C_4
REMARK    3  A    between atoms: N_7  and  C_8
REMARK    4  A    between atoms: C_12  and  N_13
REMARK    5  A    between atoms: C_14  and  C_16
REMARK                            x       y       z     vdW  Elec       q    Type
REMARK                         _______ _______ _______ _____ _____    ______ ____
ROOT
ATOM      1  C   UNL     1       3.898   4.613  18.807  0.00  0.00    +0.000 A 
ATOM      2  C   UNL     1       3.298   3.358  18.973  0.00  0.00    +0.000 A 
ATOM      3  C   UNL     1       2.153   3.235  19.757  0.00  0.00    +0.000 A 
ATOM      4  C   UNL     1       1.603   4.355  20.386  0.00  0.00    +0.000 A 
ATOM      5  C   UNL     1       2.180   5.617  20.233  0.00  0.00    +0.000 A 
ATOM      6  C   UNL     1       3.323   5.741  19.424  0.00  0.00    +0.000 A 
ENDROOT
BRANCH   1  10
ATOM      7  C   UNL     1       6.407   4.646  16.344  0.00  0.00    +0.000 A 
ATOM      8  C   UNL     1       7.246   4.711  17.472  0.00  0.00    +0.000 A 
ATOM      9  C   UNL     1       6.394   4.791  18.546  0.00  0.00    +0.000 A 
ATOM     10  N   UNL     1       5.109   4.714  18.058  0.00  0.00    +0.000 N 
ATOM     11  N   UNL     1       5.103   4.692  16.690  0.00  0.00    +0.000 NA
BRANCH   7  13
ATOM     12  O   UNL     1       6.356   3.742  14.142  0.00  0.00    +0.000 OA
ATOM     13  C   UNL     1       6.817   4.541  14.941  0.00  0.00    +0.000 C 
BRANCH  13  14
ATOM     14  O   UNL     1       7.777   5.450  14.607  0.00  0.00    +0.000 OA
ATOM     15  H   UNL     1       7.778   6.126  15.321  0.00  0.00    +0.000 HD
ENDBRANCH  13  14
ENDBRANCH   7  13
ENDBRANCH   1  10
BRANCH   5  16
ATOM     16  N   UNL     1       1.701   6.779  20.885  0.00  0.00    +0.000 N 
ATOM     17  C   UNL     1       1.514   8.035  20.330  0.00  0.00    +0.000 C 
ATOM     18  O   UNL     1       1.838   8.371  19.196  0.00  0.00    +0.000 OA
ATOM     19  H   UNL     1       1.403   6.684  21.854  0.00  0.00    +0.000 HD
BRANCH  17  20
ATOM     20  C   UNL     1       0.831   8.989  21.187  0.00  0.00    +0.000 A 
ATOM     21  C   UNL     1       1.017   9.141  22.579  0.00  0.00    +0.000 A 
ATOM     22  N   UNL     1       0.347  10.172  23.093  0.00  0.00    +0.000 NA
ATOM     23  N   UNL     1      -0.251  10.740  22.023  0.00  0.00    +0.000 N 
ATOM     24  C   UNL     1      -0.912  11.962  21.974  0.00  0.00    +0.000 A 
ATOM     25  C   UNL     1      -1.453  12.389  20.825  0.00  0.00    +0.000 A 
ATOM     26  C   UNL     1      -1.351  11.435  19.686  0.00  0.00    +0.000 A 
ATOM     27  N   UNL     1      -0.698  10.308  19.677  0.00  0.00    +0.000 NA
ATOM     28  C   UNL     1      -0.084   9.974  20.859  0.00  0.00    +0.000 A 
ENDBRANCH  17  20
ENDBRANCH   5  16
TORSDOF 5
ENDMDL
MODEL 2
REMARK VINA RESULT:      -8.7      1.114      1.756
REMARK  Name = 
REMARK  5 active torsions:
REMARK  status: ('A' for Active; 'I' for Inactive)
REMARK    1  A    between atoms: C_2  and  O_3
REMARK    2  A    between atoms: C_2  and  C_4
REMARK    3  A    between atoms: N_7  and  C_8
REMARK    4  A    between atoms: C_12  and  N_13
REMARK    5  A    between atoms: C_14  and  C_16
REMARK                            x       y       z     vdW  Elec       q    Type
REMARK                         _______ _______ _______ _____ _____    ______ ____
ROOT
ATOM      1  C   UNL     1       4.138   5.085  18.388  0.00  0.00    +0.000 A 
ATOM      2  C   UNL     1       3.527   3.925  18.881  0.00  0.00    +0.000 A 
ATOM      3  C   UNL     1       2.403   4.027  19.698  0.00  0.00    +0.000 A 
ATOM      4  C   UNL     1       1.886   5.281  20.036  0.00  0.00    +0.000 A 
ATOM      5  C   UNL     1       2.474   6.451  19.554  0.00  0.00    +0.000 A 
ATOM      6  C   UNL     1       3.595   6.344  18.713  0.00  0.00    +0.000 A 
ENDROOT
BRANCH   1  10
ATOM      7  C   UNL     1       6.550   4.739  15.854  0.00  0.00    +0.000 A 
ATOM      8  C   UNL     1       7.400   4.534  16.956  0.00  0.00    +0.000 A 
ATOM      9  C   UNL     1       6.606   4.723  18.059  0.00  0.00    +0.000 A 
ATOM     10  N   UNL     1       5.328   4.969  17.609  0.00  0.00    +0.000 N 
ATOM     11  N   UNL     1       5.295   5.048  16.243  0.00  0.00    +0.000 NA
BRANCH   7  13
ATOM     12  O   UNL     1       6.375   3.891  13.635  0.00  0.00    +0.000 OA
ATOM     13  C   UNL     1       6.903   4.648  14.435  0.00  0.00    +0.000 C 
BRANCH  13  14
ATOM     14  O   UNL     1       7.894   5.517  14.085  0.00  0.00    +0.000 OA
ATOM     15  H   UNL     1       8.124   6.016  14.900  0.00  0.00    +0.000 HD
ENDBRANCH  13  14
ENDBRANCH   7  13
ENDBRANCH   1  10
BRANCH   5  16
ATOM     16  N   UNL     1       2.029   7.750  19.901  0.00  0.00    +0.000 N 
ATOM     17  C   UNL     1       1.544   8.726  19.046  0.00  0.00    +0.000 C 
ATOM     18  O   UNL     1       1.522   8.658  17.822  0.00  0.00    +0.000 OA
ATOM     19  H   UNL     1       2.003   7.988  20.891  0.00  0.00    +0.000 HD
BRANCH  17  20
ATOM     20  C   UNL     1       0.983   9.895  19.703  0.00  0.00    +0.000 A 
ATOM     21  C   UNL     1       0.772  11.161  19.113  0.00  0.00    +0.000 A 
ATOM     22  N   UNL     1       0.135  12.017  19.912  0.00  0.00    +0.000 NA
ATOM     23  N   UNL     1      -0.124  11.295  21.025  0.00  0.00    +0.000 N 
ATOM     24  C   UNL     1      -0.940  11.651  22.092  0.00  0.00    +0.000 A 
ATOM     25  C   UNL     1      -1.096  10.817  23.129  0.00  0.00    +0.000 A 
ATOM     26  C   UNL     1      -0.285   9.569  23.062  0.00  0.00    +0.000 A 
ATOM     27  N   UNL     1       0.449   9.176  22.060  0.00  0.00    +0.000 NA
ATOM     28  C   UNL     1       0.489  10.034  20.988  0.00  0.00    +0.000 A 
ENDBRANCH  17  20
ENDBRANCH   5  16
TORSDOF 5
ENDMDL
MODEL 3
REMARK VINA RESULT:      -8.5      2.483      3.922
REMARK  Name = 
REMARK  5 active torsions:
REMARK  status: ('A' for Active; 'I' for Inactive)
REMARK    1  A    between atoms: C_2  and  O_3
REMARK    2  A    between atoms: C_2  and  C_4
REMARK    3  A    between atoms: N_7  and  C_8
REMARK    4  A    between atoms: C_12  and  N_13
REMARK    5  A    between atoms: C_14  and  C_16
REMARK                            x       y       z     vdW  Elec       q    Type
REMARK                         _______ _______ _______ _____ _____    ______ ____
ROOT
ATOM      1  C   UNL     1       6.391   4.831  15.944  0.00  0.00    +0.000 A 
ATOM      2  C   UNL     1       7.501   4.541  16.747  0.00  0.00    +0.000 A 
ATOM      3  C   UNL     1       7.489   4.883  18.098  0.00  0.00    +0.000 A 
ATOM      4  C   UNL     1       6.379   5.523  18.655  0.00  0.00    +0.000 A 
ATOM      5  C   UNL     1       5.259   5.820  17.877  0.00  0.00    +0.000 A 
ATOM      6  C   UNL     1       5.265   5.454  16.520  0.00  0.00    +0.000 A 
ENDROOT
BRANCH   1  10
ATOM      7  C   UNL     1       5.957   3.560  12.695  0.00  0.00    +0.000 A 
ATOM      8  C   UNL     1       7.137   4.288  12.459  0.00  0.00    +0.000 A 
ATOM      9  C   UNL     1       7.404   4.930  13.643  0.00  0.00    +0.000 A 
ATOM     10  N   UNL     1       6.443   4.537  14.549  0.00  0.00    +0.000 N 
ATOM     11  N   UNL     1       5.503   3.741  13.954  0.00  0.00    +0.000 NA
BRANCH   7  13
ATOM     12  O   UNL     1       4.168   2.955  11.244  0.00  0.00    +0.000 OA
ATOM     13  C   UNL     1       5.248   2.693  11.751  0.00  0.00    +0.000 C 
BRANCH  13  14
ATOM     14  O   UNL     1       5.930   1.543  11.482  0.00  0.00    +0.000 OA
ATOM     15  H   UNL     1       6.092   1.108  12.349  0.00  0.00    +0.000 HD
ENDBRANCH  13  14
ENDBRANCH   7  13
ENDBRANCH   1  10
BRANCH   5  16
ATOM     16  N   UNL     1       4.126   6.511  18.371  0.00  0.00    +0.000 N 
ATOM     17  C   UNL     1       3.206   6.056  19.302  0.00  0.00    +0.000 C 
ATOM     18  O   UNL     1       3.167   4.925  19.775  0.00  0.00    +0.000 OA
ATOM     19  H   UNL     1       3.989   7.471  18.060  0.00  0.00    +0.000 HD
BRANCH  17  20
ATOM     20  C   UNL     1       2.253   7.052  19.761  0.00  0.00    +0.000 A 
ATOM     21  C   UNL     1       1.515   7.005  20.965  0.00  0.00    +0.000 A 
ATOM     22  N   UNL     1       0.801   8.108  21.191  0.00  0.00    +0.000 NA
ATOM     23  N   UNL     1       1.108   8.915  20.152  0.00  0.00    +0.000 N 
ATOM     24  C   UNL     1       0.788  10.260  20.002  0.00  0.00    +0.000 A 
ATOM     25  C   UNL     1       1.171  10.925  18.904  0.00  0.00    +0.000 A 
ATOM     26  C   UNL     1       1.867  10.100  17.877  0.00  0.00    +0.000 A 
ATOM     27  N   UNL     1       2.230   8.856  18.000  0.00  0.00    +0.000 NA
ATOM     28  C   UNL     1       1.892   8.259  19.190  0.00  0.00    +0.000 A 
ENDBRANCH  17  20
ENDBRANCH   5  16
TORSDOF 5
ENDMDL
MODEL 4
REMARK VINA RESULT:      -8.4      1.032      1.394
REMARK  Name = 
REMARK  5 active torsions:
REMARK  status: ('A' for Active; 'I' for Inactive)
REMARK    1  A    between atoms: C_2  and  O_3
REMARK    2  A    between atoms: C_2  and  C_4
REMARK    3  A    between atoms: N_7  and  C_8
REMARK    4  A    between atoms: C_12  and  N_13
REMARK    5  A    between atoms: C_14  and  C_16
REMARK                            x       y       z     vdW  Elec       q    Type
REMARK                         _______ _______ _______ _____ _____    ______ ____
ROOT
ATOM      1  C   UNL     1       3.227   4.054  19.005  0.00  0.00    +0.000 A 
ATOM      2  C   UNL     1       2.859   2.841  19.602  0.00  0.00    +0.000 A 
ATOM      3  C   UNL     1       2.010   2.841  20.706  0.00  0.00    +0.000 A 
ATOM      4  C   UNL     1       1.530   4.045  21.229  0.00  0.00    +0.000 A 
ATOM      5  C   UNL     1       1.879   5.266  20.651  0.00  0.00    +0.000 A 
ATOM      6  C   UNL     1       2.718   5.262  19.523  0.00  0.00    +0.000 A 
ENDROOT
BRANCH   1  10
ATOM      7  C   UNL     1       5.971   4.438  16.841  0.00  0.00    +0.000 A 
ATOM      8  C   UNL     1       5.032   4.010  15.885  0.00  0.00    +0.000 A 
ATOM      9  C   UNL     1       3.895   3.731  16.601  0.00  0.00    +0.000 A 
ATOM     10  N   UNL     1       4.151   4.044  17.918  0.00  0.00    +0.000 N 
ATOM     11  N   UNL     1       5.456   4.419  18.089  0.00  0.00    +0.000 NA
BRANCH   7  13
ATOM     12  O   UNL     1       7.674   5.786  15.864  0.00  0.00    +0.000 OA
ATOM     13  C   UNL     1       7.351   4.865  16.598  0.00  0.00    +0.000 C 
BRANCH  13  14
ATOM     14  O   UNL     1       8.259   4.122  17.294  0.00  0.00    +0.000 OA
ATOM     15  H   UNL     1       7.829   3.255  17.471  0.00  0.00    +0.000 HD
ENDBRANCH  13  14
ENDBRANCH   7  13
ENDBRANCH   1  10
BRANCH   5  16
ATOM     16  N   UNL     1       1.467   6.520  21.164  0.00  0.00    +0.000 N 
ATOM     17  C   UNL     1       1.522   7.747  20.523  0.00  0.00    +0.000 C 
ATOM     18  O   UNL     1       2.041   7.962  19.433  0.00  0.00    +0.000 OA
ATOM     19  H   UNL     1       1.027   6.530  22.082  0.00  0.00    +0.000 HD
BRANCH  17  20
ATOM     20  C   UNL     1       0.854   8.834  21.219  0.00  0.00    +0.000 A 
ATOM     21  C   UNL     1       0.991   9.154  22.588  0.00  0.00    +0.000 A 
ATOM     22  N   UNL     1       0.355  10.273  22.936  0.00  0.00    +0.000 NA
ATOM     23  N   UNL     1      -0.169  10.726  21.776  0.00  0.00    +0.000 N 
ATOM     24  C   UNL     1      -0.763  11.961  21.542  0.00  0.00    +0.000 A 
ATOM     25  C   UNL     1      -1.234  12.261  20.324  0.00  0.00    +0.000 A 
ATOM     26  C   UNL     1      -1.135  11.165  19.321  0.00  0.00    +0.000 A 
ATOM     27  N   UNL     1      -0.541  10.017  19.484  0.00  0.00    +0.000 NA
ATOM     28  C   UNL     1       0.006   9.810  20.727  0.00  0.00    +0.000 A 
ENDBRANCH  17  20
ENDBRANCH   5  16
TORSDOF 5
ENDMDL
MODEL 5
REMARK VINA RESULT:      -8.3      1.315      1.963
REMARK  Name = 
REMARK  5 active torsions:
REMARK  status: ('A' for Active; 'I' for Inactive)
REMARK    1  A    between atoms: C_2  and  O_3
REMARK    2  A    between atoms: C_2  and  C_4
REMARK    3  A    between atoms: N_7  and  C_8
REMARK    4  A    between atoms: C_12  and  N_13
REMARK    5  A    between atoms: C_14  and  C_16
REMARK                            x       y       z     vdW  Elec       q    Type
REMARK                         _______ _______ _______ _____ _____    ______ ____
ROOT
ATOM      1  C   UNL     1       3.444   4.894  18.841  0.00  0.00    +0.000 A 
ATOM      2  C   UNL     1       2.955   3.846  19.631  0.00  0.00    +0.000 A 
ATOM      3  C   UNL     1       2.060   4.115  20.665  0.00  0.00    +0.000 A 
ATOM      4  C   UNL     1       1.654   5.427  20.924  0.00  0.00    +0.000 A 
ATOM      5  C   UNL     1       2.123   6.488  20.149  0.00  0.00    +0.000 A 
ATOM      6  C   UNL     1       3.009   6.211  19.093  0.00  0.00    +0.000 A 
ENDROOT
BRANCH   1  10
ATOM      7  C   UNL     1       6.046   4.968  16.478  0.00  0.00    +0.000 A 
ATOM      8  C   UNL     1       5.449   3.763  16.067  0.00  0.00    +0.000 A 
ATOM      9  C   UNL     1       4.436   3.541  16.965  0.00  0.00    +0.000 A 
ATOM     10  N   UNL     1       4.411   4.614  17.830  0.00  0.00    +0.000 N 
ATOM     11  N   UNL     1       5.448   5.471  17.579  0.00  0.00    +0.000 NA
BRANCH   7  13
ATOM     12  O   UNL     1       7.690   5.326  14.792  0.00  0.00    +0.000 OA
ATOM     13  C   UNL     1       7.176   5.657  15.849  0.00  0.00    +0.000 C 
BRANCH  13  14
ATOM     14  O   UNL     1       7.600   6.733  16.571  0.00  0.00    +0.000 OA
ATOM     15  H   UNL     1       7.539   6.473  17.518  0.00  0.00    +0.000 HD
ENDBRANCH  13  14
ENDBRANCH   7  13
ENDBRANCH   1  10
BRANCH   5  16
ATOM     16  N   UNL     1       1.789   7.842  20.394  0.00  0.00    +0.000 N 
ATOM     17  C   UNL     1       1.518   8.822  19.452  0.00  0.00    +0.000 C 
ATOM     18  O   UNL     1       1.629   8.697  18.237  0.00  0.00    +0.000 OA
ATOM     19  H   UNL     1       1.676   8.130  21.364  0.00  0.00    +0.000 HD
BRANCH  17  20
ATOM     20  C   UNL     1       1.018  10.074  19.995  0.00  0.00    +0.000 A 
ATOM     21  C   UNL     1       1.047  11.331  19.351  0.00  0.00    +0.000 A 
ATOM     22  N   UNL     1       0.415  12.288  20.031  0.00  0.00    +0.000 NA
ATOM     23  N   UNL     1      -0.080  11.648  21.114  0.00  0.00    +0.000 N 
ATOM     24  C   UNL     1      -0.985  12.141  22.046  0.00  0.00    +0.000 A 
ATOM     25  C   UNL     1      -1.382  11.374  23.070  0.00  0.00    +0.000 A 
ATOM     26  C   UNL     1      -0.729  10.038  23.148  0.00  0.00    +0.000 A 
ATOM     27  N   UNL     1       0.082   9.520  22.270  0.00  0.00    +0.000 NA
ATOM     28  C   UNL     1       0.374  10.323  21.194  0.00  0.00    +0.000 A 
ENDBRANCH  17  20
ENDBRANCH   5  16
TORSDOF 5
ENDMDL
MODEL 6
REMARK VINA RESULT:      -8.2      1.945      2.411
REMARK  Name = 
REMARK  5 active torsions:
REMARK  status: ('A' for Active; 'I' for Inactive)
REMARK    1  A    between atoms: C_2  and  O_3
REMARK    2  A    between atoms: C_2  and  C_4
REMARK    3  A    between atoms: N_7  and  C_8
REMARK    4  A    between atoms: C_12  and  N_13
REMARK    5  A    between atoms: C_14  and  C_16
REMARK                            x       y       z     vdW  Elec       q    Type
REMARK                         _______ _______ _______ _____ _____    ______ ____
ROOT
ATOM      1  C   UNL     1       4.178   5.404  18.734  0.00  0.00    +0.000 A 
ATOM      2  C   UNL     1       3.676   4.365  19.528  0.00  0.00    +0.000 A 
ATOM      3  C   UNL     1       2.554   4.581  20.324  0.00  0.00    +0.000 A 
ATOM      4  C   UNL     1       1.930   5.832  20.343  0.00  0.00    +0.000 A 
ATOM      5  C   UNL     1       2.408   6.882  19.558  0.00  0.00    +0.000 A 
ATOM      6  C   UNL     1       3.528   6.655  18.739  0.00  0.00    +0.000 A 
ENDROOT
BRANCH   1  10
ATOM      7  C   UNL     1       6.594   4.816  16.248  0.00  0.00    +0.000 A 
ATOM      8  C   UNL     1       7.421   4.618  17.368  0.00  0.00    +0.000 A 
ATOM      9  C   UNL     1       6.627   4.898  18.452  0.00  0.00    +0.000 A 
ATOM     10  N   UNL     1       5.368   5.190  17.975  0.00  0.00    +0.000 N 
ATOM     11  N   UNL     1       5.353   5.209  16.607  0.00  0.00    +0.000 NA
BRANCH   7  13
ATOM     12  O   UNL     1       7.690   5.390  14.213  0.00  0.00    +0.000 OA
ATOM     13  C   UNL     1       6.955   4.643  14.839  0.00  0.00    +0.000 C 
BRANCH  13  14
ATOM     14  O   UNL     1       6.384   3.535  14.285  0.00  0.00    +0.000 OA
ATOM     15  H   UNL     1       6.886   2.763  14.632  0.00  0.00    +0.000 HD
ENDBRANCH  13  14
ENDBRANCH   7  13
ENDBRANCH   1  10
BRANCH   5  16
ATOM     16  N   UNL     1       1.852   8.184  19.572  0.00  0.00    +0.000 N 
ATOM     17  C   UNL     1       1.680   9.033  18.491  0.00  0.00    +0.000 C 
ATOM     18  O   UNL     1       2.084   8.831  17.351  0.00  0.00    +0.000 OA
ATOM     19  H   UNL     1       1.481   8.527  20.456  0.00  0.00    +0.000 HD
BRANCH  17  20
ATOM     20  C   UNL     1       0.909  10.234  18.769  0.00  0.00    +0.000 A 
ATOM     21  C   UNL     1      -0.412  10.277  19.267  0.00  0.00    +0.000 A 
ATOM     22  N   UNL     1      -0.834  11.512  19.540  0.00  0.00    +0.000 NA
ATOM     23  N   UNL     1       0.236  12.291  19.268  0.00  0.00    +0.000 N 
ATOM     24  C   UNL     1       0.399  13.639  19.567  0.00  0.00    +0.000 A 
ATOM     25  C   UNL     1       1.530  14.272  19.230  0.00  0.00    +0.000 A 
ATOM     26  C   UNL     1       2.512  13.448  18.471  0.00  0.00    +0.000 A 
ATOM     27  N   UNL     1       2.421  12.174  18.217  0.00  0.00    +0.000 NA
ATOM     28  C   UNL     1       1.279  11.563  18.675  0.00  0.00    +0.000 A 
ENDBRANCH  17  20
ENDBRANCH   5  16
TORSDOF 5
ENDMDL
MODEL 7
REMARK VINA RESULT:      -8.2      2.950      8.406
REMARK  Name = 
REMARK  5 active torsions:
REMARK  status: ('A' for Active; 'I' for Inactive)
REMARK    1  A    between atoms: C_2  and  O_3
REMARK    2  A    between atoms: C_2  and  C_4
REMARK    3  A    between atoms: N_7  and  C_8
REMARK    4  A    between atoms: C_12  and  N_13
REMARK    5  A    between atoms: C_14  and  C_16
REMARK                            x       y       z     vdW  Elec       q    Type
REMARK                         _______ _______ _______ _____ _____    ______ ____
ROOT
ATOM      1  C   UNL     1      -0.054  10.030  20.178  0.00  0.00    +0.000 A 
ATOM      2  C   UNL     1      -0.333  10.160  21.545  0.00  0.00    +0.000 A 
ATOM      3  C   UNL     1       0.309   9.336  22.466  0.00  0.00    +0.000 A 
ATOM      4  C   UNL     1       1.225   8.372  22.035  0.00  0.00    +0.000 A 
ATOM      5  C   UNL     1       1.523   8.225  20.679  0.00  0.00    +0.000 A 
ATOM      6  C   UNL     1       0.890   9.073  19.754  0.00  0.00    +0.000 A 
ENDROOT
BRANCH   1  10
ATOM      7  C   UNL     1      -2.177  11.312  17.687  0.00  0.00    +0.000 A 
ATOM      8  C   UNL     1      -1.325  12.424  17.802  0.00  0.00    +0.000 A 
ATOM      9  C   UNL     1      -0.461  12.109  18.821  0.00  0.00    +0.000 A 
ATOM     10  N   UNL     1      -0.768  10.833  19.240  0.00  0.00    +0.000 N 
ATOM     11  N   UNL     1      -1.874  10.355  18.591  0.00  0.00    +0.000 NA
BRANCH   7  13
ATOM     12  O   UNL     1      -4.424  10.843  17.048  0.00  0.00    +0.000 OA
ATOM     13  C   UNL     1      -3.279  11.134  16.738  0.00  0.00    +0.000 C 
BRANCH  13  14
ATOM     14  O   UNL     1      -2.894  11.339  15.446  0.00  0.00    +0.000 OA
ATOM     15  H   UNL     1      -3.722  11.433  14.922  0.00  0.00    +0.000 HD
ENDBRANCH  13  14
ENDBRANCH   7  13
ENDBRANCH   1  10
BRANCH   5  16
ATOM     16  N   UNL     1       2.402   7.235  20.176  0.00  0.00    +0.000 N 
ATOM     17  C   UNL     1       2.189   5.866  20.138  0.00  0.00    +0.000 C 
ATOM     18  O   UNL     1       1.236   5.276  20.638  0.00  0.00    +0.000 OA
ATOM     19  H   UNL     1       3.265   7.551  19.739  0.00  0.00    +0.000 HD
BRANCH  17  20
ATOM     20  C   UNL     1       3.182   5.110  19.393  0.00  0.00    +0.000 A 
ATOM     21  C   UNL     1       3.518   3.753  19.593  0.00  0.00    +0.000 A 
ATOM     22  N   UNL     1       4.379   3.282  18.691  0.00  0.00    +0.000 NA
ATOM     23  N   UNL     1       4.578   4.325  17.855  0.00  0.00    +0.000 N 
ATOM     24  C   UNL     1       5.237   4.312  16.630  0.00  0.00    +0.000 A 
ATOM     25  C   UNL     1       5.348   5.439  15.914  0.00  0.00    +0.000 A 
ATOM     26  C   UNL     1       4.795   6.658  16.565  0.00  0.00    +0.000 A 
ATOM     27  N   UNL     1       4.127   6.704  17.683  0.00  0.00    +0.000 NA
ATOM     28  C   UNL     1       3.964   5.498  18.320  0.00  0.00    +0.000 A 
ENDBRANCH  17  20
ENDBRANCH   5  16
TORSDOF 5
ENDMDL
MODEL 8
REMARK VINA RESULT:      -8.1      1.015      1.320
REMARK  Name = 
REMARK  5 active torsions:
REMARK  status: ('A' for Active; 'I' for Inactive)
REMARK    1  A    between atoms: C_2  and  O_3
REMARK    2  A    between atoms: C_2  and  C_4
REMARK    3  A    between atoms: N_7  and  C_8
REMARK    4  A    between atoms: C_12  and  N_13
REMARK    5  A    between atoms: C_14  and  C_16
REMARK                            x       y       z     vdW  Elec       q    Type
REMARK                         _______ _______ _______ _____ _____    ______ ____
ROOT
ATOM      1  C   UNL     1       3.460   5.347  18.445  0.00  0.00    +0.000 A 
ATOM      2  C   UNL     1       3.428   4.033  18.929  0.00  0.00    +0.000 A 
ATOM      3  C   UNL     1       2.748   3.745  20.110  0.00  0.00    +0.000 A 
ATOM      4  C   UNL     1       2.106   4.762  20.822  0.00  0.00    +0.000 A 
ATOM      5  C   UNL     1       2.120   6.079  20.358  0.00  0.00    +0.000 A 
ATOM      6  C   UNL     1       2.788   6.362  19.155  0.00  0.00    +0.000 A 
ENDROOT
BRANCH   1  10
ATOM      7  C   UNL     1       5.665   5.352  15.706  0.00  0.00    +0.000 A 
ATOM      8  C   UNL     1       5.282   6.704  15.645  0.00  0.00    +0.000 A 
ATOM      9  C   UNL     1       4.334   6.851  16.626  0.00  0.00    +0.000 A 
ATOM     10  N   UNL     1       4.217   5.639  17.270  0.00  0.00    +0.000 N 
ATOM     11  N   UNL     1       4.988   4.684  16.665  0.00  0.00    +0.000 NA
BRANCH   7  13
ATOM     12  O   UNL     1       7.759   5.131  14.592  0.00  0.00    +0.000 OA
ATOM     13  C   UNL     1       6.661   4.675  14.872  0.00  0.00    +0.000 C 
BRANCH  13  14
ATOM     14  O   UNL     1       6.237   3.454  14.436  0.00  0.00    +0.000 OA
ATOM     15  H   UNL     1       6.531   2.802  15.111  0.00  0.00    +0.000 HD
ENDBRANCH  13  14
ENDBRANCH   7  13
ENDBRANCH   1  10
BRANCH   5  16
ATOM     16  N   UNL     1       1.532   7.160  21.059  0.00  0.00    +0.000 N 
ATOM     17  C   UNL     1       1.263   8.429  20.570  0.00  0.00    +0.000 C 
ATOM     18  O   UNL     1       1.592   8.855  19.468  0.00  0.00    +0.000 OA
ATOM     19  H   UNL     1       1.215   6.986  22.010  0.00  0.00    +0.000 HD
BRANCH  17  20
ATOM     20  C   UNL     1       0.483   9.276  21.456  0.00  0.00    +0.000 A 
ATOM     21  C   UNL     1       0.514   9.255  22.868  0.00  0.00    +0.000 A 
ATOM     22  N   UNL     1      -0.216  10.220  23.427  0.00  0.00    +0.000 NA
ATOM     23  N   UNL     1      -0.698  10.917  22.375  0.00  0.00    +0.000 N 
ATOM     24  C   UNL     1      -1.359  12.140  22.402  0.00  0.00    +0.000 A 
ATOM     25  C   UNL     1      -1.775  12.706  21.261  0.00  0.00    +0.000 A 
ATOM     26  C   UNL     1      -1.541  11.897  20.033  0.00  0.00    +0.000 A 
ATOM     27  N   UNL     1      -0.882  10.776  19.958  0.00  0.00    +0.000 NA
ATOM     28  C   UNL     1      -0.398  10.298  21.152  0.00  0.00    +0.000 A 
ENDBRANCH  17  20
ENDBRANCH   5  16
TORSDOF 5
ENDMDL
MODEL 9
REMARK VINA RESULT:      -8.1      3.448      8.520
REMARK  Name = 
REMARK  5 active torsions:
REMARK  status: ('A' for Active; 'I' for Inactive)
REMARK    1  A    between atoms: C_2  and  O_3
REMARK    2  A    between atoms: C_2  and  C_4
REMARK    3  A    between atoms: N_7  and  C_8
REMARK    4  A    between atoms: C_12  and  N_13
REMARK    5  A    between atoms: C_14  and  C_16
REMARK                            x       y       z     vdW  Elec       q    Type
REMARK                         _______ _______ _______ _____ _____    ______ ____
ROOT
ATOM      1  C   UNL     1      -1.059  10.673  18.080  0.00  0.00    +0.000 A 
ATOM      2  C   UNL     1      -0.946  11.689  19.038  0.00  0.00    +0.000 A 
ATOM      3  C   UNL     1       0.103  11.665  19.954  0.00  0.00    +0.000 A 
ATOM      4  C   UNL     1       1.039  10.628  19.930  0.00  0.00    +0.000 A 
ATOM      5  C   UNL     1       0.951   9.606  18.983  0.00  0.00    +0.000 A 
ATOM      6  C   UNL     1      -0.096   9.645  18.046  0.00  0.00    +0.000 A 
ENDROOT
BRANCH   1  10
ATOM      7  C   UNL     1      -3.273  10.388  15.364  0.00  0.00    +0.000 A 
ATOM      8  C   UNL     1      -4.095  11.165  16.199  0.00  0.00    +0.000 A 
ATOM      9  C   UNL     1      -3.390  11.301  17.369  0.00  0.00    +0.000 A 
ATOM     10  N   UNL     1      -2.176  10.673  17.192  0.00  0.00    +0.000 N 
ATOM     11  N   UNL     1      -2.120  10.046  15.977  0.00  0.00    +0.000 NA
BRANCH   7  13
ATOM     12  O   UNL     1      -4.674   9.742  13.549  0.00  0.00    +0.000 OA
ATOM     13  C   UNL     1      -3.557   9.959  13.992  0.00  0.00    +0.000 C 
BRANCH  13  14
ATOM     14  O   UNL     1      -2.427   9.833  13.239  0.00  0.00    +0.000 OA
ATOM     15  H   UNL     1      -2.338  10.671  12.731  0.00  0.00    +0.000 HD
ENDBRANCH  13  14
ENDBRANCH   7  13
ENDBRANCH   1  10
BRANCH   5  16
ATOM     16  N   UNL     1       1.838   8.503  18.939  0.00  0.00    +0.000 N 
ATOM     17  C   UNL     1       1.945   7.476  19.863  0.00  0.00    +0.000 C 
ATOM     18  O   UNL     1       1.353   7.415  20.936  0.00  0.00    +0.000 OA
ATOM     19  H   UNL     1       2.429   8.409  18.116  0.00  0.00    +0.000 HD
BRANCH  17  20
ATOM     20  C   UNL     1       2.810   6.379  19.464  0.00  0.00    +0.000 A 
ATOM     21  C   UNL     1       2.888   5.113  20.086  0.00  0.00    +0.000 A 
ATOM     22  N   UNL     1       3.680   4.255  19.442  0.00  0.00    +0.000 NA
ATOM     23  N   UNL     1       4.092   4.944  18.355  0.00  0.00    +0.000 N 
ATOM     24  C   UNL     1       4.778   4.450  17.251  0.00  0.00    +0.000 A 
ATOM     25  C   UNL     1       5.115   5.269  16.246  0.00  0.00    +0.000 A 
ATOM     26  C   UNL     1       4.769   6.702  16.456  0.00  0.00    +0.000 A 
ATOM     27  N   UNL     1       4.083   7.196  17.447  0.00  0.00    +0.000 NA
ATOM     28  C   UNL     1       3.685   6.286  18.397  0.00  0.00    +0.000 A 
ENDBRANCH  17  20
ENDBRANCH   5  16
TORSDOF 5
ENDMDL
