MODEL 1
REMARK VINA RESULT:      -8.9      0.000      0.000
REMARK  Name = 
REMARK  5 active torsions:
REMARK  status: ('A' for Active; 'I' for Inactive)
REMARK    1  A    between atoms: C_2  and  C_16
REMARK    2  A    between atoms: N_3  and  C_4
REMARK    3  A    between atoms: C_4  and  C_5
REMARK    4  A    between atoms: C_8  and  C_9
REMARK    5  A    between atoms: C_22  and  C_24
REMARK                            x       y       z     vdW  Elec       q    Type
REMARK                         _______ _______ _______ _____ _____    ______ ____
ROOT
ATOM      1  O   UNL     1       4.406   3.729  16.755  0.00  0.00    +0.000 OA
ATOM      2  C   UNL     1       4.563   3.842  17.973  0.00  0.00    +0.000 C 
ATOM      3  N   UNL     1       5.819   4.034  18.525  0.00  0.00    +0.000 N 
ATOM      4  H   UNL     1       5.989   3.713  19.464  0.00  0.00    +0.000 HD
ENDROOT
BRANCH   2   5
ATOM      5  C   UNL     1       3.369   3.701  18.981  0.00  0.00    +0.000 C 
ATOM      6  C   UNL     1       2.364   2.709  18.355  0.00  0.00    +0.000 C 
ATOM      7  C   UNL     1       1.222   2.343  19.306  0.00  0.00    +0.000 C 
ATOM      8  C   UNL     1       0.539   3.591  19.846  0.00  0.00    +0.000 C 
ATOM      9  C   UNL     1       1.578   4.508  20.489  0.00  0.00    +0.000 C 
ATOM     10  N   UNL     1       2.609   4.872  19.513  0.00  0.00    +0.000 N 
ATOM     11  C   UNL     1       2.929   6.190  19.143  0.00  0.00    +0.000 C 
ATOM     12  O   UNL     1       3.844   6.452  18.388  0.00  0.00    +0.000 OA
BRANCH  11  13
ATOM     13  C   UNL     1       2.160   7.360  19.667  0.00  0.00    +0.000 A 
ATOM     14  C   UNL     1       1.878   8.423  18.793  0.00  0.00    +0.000 A 
ATOM     15  C   UNL     1       1.043   9.471  19.198  0.00  0.00    +0.000 A 
ATOM     16  C   UNL     1       0.499   9.470  20.483  0.00  0.00    +0.000 A 
ATOM     17  C   UNL     1       0.781   8.429  21.361  0.00  0.00    +0.000 A 
ATOM     18  C   UNL     1       1.575   7.367  20.940  0.00  0.00    +0.000 A 
ENDBRANCH  11  13
ENDBRANCH   2   5
BRANCH   3  19
ATOM     19  C   UNL     1       6.960   4.339  17.692  0.00  0.00    +0.000 C 
BRANCH  19  20
ATOM     20  C   UNL     1       7.458   5.746  17.913  0.00  0.00    +0.000 A 
ATOM     21  C   UNL     1       7.215   6.731  16.948  0.00  0.00    +0.000 A 
ATOM     22  C   UNL     1       7.626   8.051  17.157  0.00  0.00    +0.000 A 
ATOM     23  C   UNL     1       8.310   8.416  18.326  0.00  0.00    +0.000 A 
ATOM     24  C   UNL     1       8.573   7.420  19.279  0.00  0.00    +0.000 A 
ATOM     25  C   UNL     1       8.157   6.099  19.073  0.00  0.00    +0.000 A 
BRANCH  23  26
ATOM     26  C   UNL     1       8.726   9.801  18.522  0.00  0.00    +0.000 A 
ATOM     27  N   UNL     1       9.395  10.317  19.538  0.00  0.00    +0.000 NA
ATOM     28  N   UNL     1       9.544  11.658  19.274  0.00  0.00    +0.000 NA
ATOM     29  N   UNL     1       8.979  11.979  18.121  0.00  0.00    +0.000 NA
ATOM     30  N   UNL     1       8.473  10.831  17.657  0.00  0.00    +0.000 N 
ATOM     31  H   UNL     1       7.975  10.827  16.778  0.00  0.00    +0.000 HD
ENDBRANCH  23  26
ENDBRANCH  19  20
ENDBRANCH   3  19
TORSDOF 5
ENDMDL
MODEL 2
REMARK VINA RESULT:      -8.9      0.157      1.274
REMARK  Name = 
REMARK  5 active torsions:
REMARK  status: ('A' for Active; 'I' for Inactive)
REMARK    1  A    between atoms: C_2  and  C_16
REMARK    2  A    between atoms: N_3  and  C_4
REMARK    3  A    between atoms: C_4  and  C_5
REMARK    4  A    between atoms: C_8  and  C_9
REMARK    5  A    between atoms: C_22  and  C_24
REMARK                            x       y       z     vdW  Elec       q    Type
REMARK                         _______ _______ _______ _____ _____    ______ ____
ROOT
ATOM      1  O   UNL     1       4.462   3.960  16.656  0.00  0.00    +0.000 OA
ATOM      2  C   UNL     1       4.602   3.939  17.882  0.00  0.00    +0.000 C 
ATOM      3  N   UNL     1       5.855   4.024  18.467  0.00  0.00    +0.000 N 
ATOM      4  H   UNL     1       5.997   3.599  19.369  0.00  0.00    +0.000 HD
ENDROOT
BRANCH   2   5
ATOM      5  C   UNL     1       3.387   3.737  18.853  0.00  0.00    +0.000 C 
ATOM      6  C   UNL     1       2.435   2.724  18.181  0.00  0.00    +0.000 C 
ATOM      7  C   UNL     1       1.280   2.301  19.093  0.00  0.00    +0.000 C 
ATOM      8  C   UNL     1       0.540   3.515  19.637  0.00  0.00    +0.000 C 
ATOM      9  C   UNL     1       1.529   4.454  20.326  0.00  0.00    +0.000 C 
ATOM     10  N   UNL     1       2.572   4.871  19.385  0.00  0.00    +0.000 N 
ATOM     11  C   UNL     1       2.857   6.206  19.049  0.00  0.00    +0.000 C 
ATOM     12  O   UNL     1       3.782   6.514  18.324  0.00  0.00    +0.000 OA
BRANCH  11  13
ATOM     13  C   UNL     1       2.034   7.339  19.573  0.00  0.00    +0.000 A 
ATOM     14  C   UNL     1       1.704   7.353  20.938  0.00  0.00    +0.000 A 
ATOM     15  C   UNL     1       1.059   8.461  21.500  0.00  0.00    +0.000 A 
ATOM     16  C   UNL     1       0.725   9.552  20.697  0.00  0.00    +0.000 A 
ATOM     17  C   UNL     1       1.035   9.544  19.342  0.00  0.00    +0.000 A 
ATOM     18  C   UNL     1       1.717   8.461  18.796  0.00  0.00    +0.000 A 
ENDBRANCH  11  13
ENDBRANCH   2   5
BRANCH   3  19
ATOM     19  C   UNL     1       7.020   4.371  17.686  0.00  0.00    +0.000 C 
BRANCH  19  20
ATOM     20  C   UNL     1       7.436   5.806  17.904  0.00  0.00    +0.000 A 
ATOM     21  C   UNL     1       8.132   6.160  19.066  0.00  0.00    +0.000 A 
ATOM     22  C   UNL     1       8.568   7.475  19.263  0.00  0.00    +0.000 A 
ATOM     23  C   UNL     1       8.300   8.472  18.314  0.00  0.00    +0.000 A 
ATOM     24  C   UNL     1       7.581   8.117  17.163  0.00  0.00    +0.000 A 
ATOM     25  C   UNL     1       7.149   6.800  16.962  0.00  0.00    +0.000 A 
BRANCH  23  26
ATOM     26  C   UNL     1       8.769   9.836  18.541  0.00  0.00    +0.000 A 
ATOM     27  N   UNL     1       9.482  10.295  19.554  0.00  0.00    +0.000 NA
ATOM     28  N   UNL     1       9.671  11.638  19.328  0.00  0.00    +0.000 NA
ATOM     29  N   UNL     1       9.088  12.015  18.200  0.00  0.00    +0.000 NA
ATOM     30  N   UNL     1       8.530  10.900  17.715  0.00  0.00    +0.000 N 
ATOM     31  H   UNL     1       8.010  10.941  16.850  0.00  0.00    +0.000 HD
ENDBRANCH  23  26
ENDBRANCH  19  20
ENDBRANCH   3  19
TORSDOF 5
ENDMDL
MODEL 3
REMARK VINA RESULT:      -8.8      0.217      1.132
REMARK  Name = 
REMARK  5 active torsions:
REMARK  status: ('A' for Active; 'I' for Inactive)
REMARK    1  A    between atoms: C_2  and  C_16
REMARK    2  A    between atoms: N_3  and  C_4
REMARK    3  A    between atoms: C_4  and  C_5
REMARK    4  A    between atoms: C_8  and  C_9
REMARK    5  A    between atoms: C_22  and  C_24
REMARK                            x       y       z     vdW  Elec       q    Type
REMARK                         _______ _______ _______ _____ _____    ______ ____
ROOT
ATOM      1  O   UNL     1       4.541   3.997  16.551  0.00  0.00    +0.000 OA
ATOM      2  C   UNL     1       4.650   3.923  17.778  0.00  0.00    +0.000 C 
ATOM      3  N   UNL     1       5.888   3.959  18.397  0.00  0.00    +0.000 N 
ATOM      4  H   UNL     1       6.000   3.495  19.284  0.00  0.00    +0.000 HD
ENDROOT
BRANCH   2   5
ATOM      5  C   UNL     1       3.407   3.708  18.710  0.00  0.00    +0.000 C 
ATOM      6  C   UNL     1       2.434   2.772  17.958  0.00  0.00    +0.000 C 
ATOM      7  C   UNL     1       1.245   2.337  18.819  0.00  0.00    +0.000 C 
ATOM      8  C   UNL     1       0.537   3.542  19.421  0.00  0.00    +0.000 C 
ATOM      9  C   UNL     1       1.542   4.400  20.186  0.00  0.00    +0.000 C 
ATOM     10  N   UNL     1       2.620   4.836  19.294  0.00  0.00    +0.000 N 
ATOM     11  C   UNL     1       2.959   6.177  19.046  0.00  0.00    +0.000 C 
ATOM     12  O   UNL     1       3.911   6.495  18.361  0.00  0.00    +0.000 OA
BRANCH  11  13
ATOM     13  C   UNL     1       2.165   7.306  19.622  0.00  0.00    +0.000 A 
ATOM     14  C   UNL     1       1.837   8.389  18.789  0.00  0.00    +0.000 A 
ATOM     15  C   UNL     1       0.978   9.396  19.243  0.00  0.00    +0.000 A 
ATOM     16  C   UNL     1       0.456   9.336  20.535  0.00  0.00    +0.000 A 
ATOM     17  C   UNL     1       0.783   8.276  21.372  0.00  0.00    +0.000 A 
ATOM     18  C   UNL     1       1.601   7.252  20.904  0.00  0.00    +0.000 A 
ENDBRANCH  11  13
ENDBRANCH   2   5
BRANCH   3  19
ATOM     19  C   UNL     1       7.079   4.313  17.659  0.00  0.00    +0.000 C 
BRANCH  19  20
ATOM     20  C   UNL     1       7.451   5.763  17.855  0.00  0.00    +0.000 A 
ATOM     21  C   UNL     1       8.146   6.155  19.006  0.00  0.00    +0.000 A 
ATOM     22  C   UNL     1       8.541   7.486  19.181  0.00  0.00    +0.000 A 
ATOM     23  C   UNL     1       8.233   8.461  18.222  0.00  0.00    +0.000 A 
ATOM     24  C   UNL     1       7.515   8.068  17.083  0.00  0.00    +0.000 A 
ATOM     25  C   UNL     1       7.123   6.735  16.903  0.00  0.00    +0.000 A 
BRANCH  23  26
ATOM     26  C   UNL     1       8.660   9.842  18.427  0.00  0.00    +0.000 A 
ATOM     27  N   UNL     1       8.326  10.912  17.727  0.00  0.00    +0.000 NA
ATOM     28  N   UNL     1       8.981  11.978  18.298  0.00  0.00    +0.000 NA
ATOM     29  N   UNL     1       9.711  11.586  19.331  0.00  0.00    +0.000 NA
ATOM     30  N   UNL     1       9.513  10.266  19.409  0.00  0.00    +0.000 N 
ATOM     31  H   UNL     1       9.985   9.735  20.128  0.00  0.00    +0.000 HD
ENDBRANCH  23  26
ENDBRANCH  19  20
ENDBRANCH   3  19
TORSDOF 5
ENDMDL
MODEL 4
REMARK VINA RESULT:      -8.4      4.780      8.769
REMARK  Name = 
REMARK  5 active torsions:
REMARK  status: ('A' for Active; 'I' for Inactive)
REMARK    1  A    between atoms: C_2  and  C_16
REMARK    2  A    between atoms: N_3  and  C_4
REMARK    3  A    between atoms: C_4  and  C_5
REMARK    4  A    between atoms: C_8  and  C_9
REMARK    5  A    between atoms: C_22  and  C_24
REMARK                            x       y       z     vdW  Elec       q    Type
REMARK                         _______ _______ _______ _____ _____    ______ ____
ROOT
ATOM      1  O   UNL     1       1.945   8.145  20.525  0.00  0.00    +0.000 OA
ATOM      2  C   UNL     1       1.799   7.612  19.422  0.00  0.00    +0.000 C 
ATOM      3  N   UNL     1       1.361   8.332  18.324  0.00  0.00    +0.000 N 
ATOM      4  H   UNL     1       0.862   7.847  17.595  0.00  0.00    +0.000 HD
ENDROOT
BRANCH   2   5
ATOM      5  C   UNL     1       2.027   6.075  19.207  0.00  0.00    +0.000 C 
ATOM      6  C   UNL     1       2.063   5.423  20.607  0.00  0.00    +0.000 C 
ATOM      7  C   UNL     1       2.112   3.894  20.548  0.00  0.00    +0.000 C 
ATOM      8  C   UNL     1       3.253   3.417  19.660  0.00  0.00    +0.000 C 
ATOM      9  C   UNL     1       3.135   4.063  18.281  0.00  0.00    +0.000 C 
ATOM     10  N   UNL     1       3.156   5.523  18.399  0.00  0.00    +0.000 N 
ATOM     11  C   UNL     1       4.090   6.362  17.767  0.00  0.00    +0.000 C 
ATOM     12  O   UNL     1       4.026   7.574  17.827  0.00  0.00    +0.000 OA
BRANCH  11  13
ATOM     13  C   UNL     1       5.226   5.809  16.968  0.00  0.00    +0.000 A 
ATOM     14  C   UNL     1       6.325   5.263  17.652  0.00  0.00    +0.000 A 
ATOM     15  C   UNL     1       7.343   4.608  16.950  0.00  0.00    +0.000 A 
ATOM     16  C   UNL     1       7.277   4.509  15.560  0.00  0.00    +0.000 A 
ATOM     17  C   UNL     1       6.202   5.057  14.871  0.00  0.00    +0.000 A 
ATOM     18  C   UNL     1       5.169   5.668  15.575  0.00  0.00    +0.000 A 
ENDBRANCH  11  13
ENDBRANCH   2   5
BRANCH   3  19
ATOM     19  C   UNL     1       1.275   9.774  18.364  0.00  0.00    +0.000 C 
BRANCH  19  20
ATOM     20  C   UNL     1      -0.153  10.255  18.277  0.00  0.00    +0.000 A 
ATOM     21  C   UNL     1      -0.577  11.325  19.075  0.00  0.00    +0.000 A 
ATOM     22  C   UNL     1      -1.883  11.816  18.973  0.00  0.00    +0.000 A 
ATOM     23  C   UNL     1      -2.803  11.236  18.088  0.00  0.00    +0.000 A 
ATOM     24  C   UNL     1      -2.380  10.150  17.309  0.00  0.00    +0.000 A 
ATOM     25  C   UNL     1      -1.072   9.660  17.405  0.00  0.00    +0.000 A 
BRANCH  23  26
ATOM     26  C   UNL     1      -4.159  11.770  17.999  0.00  0.00    +0.000 A 
ATOM     27  N   UNL     1      -5.053  11.571  17.046  0.00  0.00    +0.000 NA
ATOM     28  N   UNL     1      -6.175  12.282  17.401  0.00  0.00    +0.000 NA
ATOM     29  N   UNL     1      -5.989  12.917  18.549  0.00  0.00    +0.000 NA
ATOM     30  N   UNL     1      -4.743  12.601  18.916  0.00  0.00    +0.000 N 
ATOM     31  H   UNL     1      -4.365  12.983  19.772  0.00  0.00    +0.000 HD
ENDBRANCH  23  26
ENDBRANCH  19  20
ENDBRANCH   3  19
TORSDOF 5
ENDMDL
MODEL 5
REMARK VINA RESULT:      -8.4      4.711      8.645
REMARK  Name = 
REMARK  5 active torsions:
REMARK  status: ('A' for Active; 'I' for Inactive)
REMARK    1  A    between atoms: C_2  and  C_16
REMARK    2  A    between atoms: N_3  and  C_4
REMARK    3  A    between atoms: C_4  and  C_5
REMARK    4  A    between atoms: C_8  and  C_9
REMARK    5  A    between atoms: C_22  and  C_24
REMARK                            x       y       z     vdW  Elec       q    Type
REMARK                         _______ _______ _______ _____ _____    ______ ____
ROOT
ATOM      1  O   UNL     1       1.989   8.176  20.534  0.00  0.00    +0.000 OA
ATOM      2  C   UNL     1       1.816   7.609  19.452  0.00  0.00    +0.000 C 
ATOM      3  N   UNL     1       1.412   8.307  18.326  0.00  0.00    +0.000 N 
ATOM      4  H   UNL     1       0.889   7.820  17.616  0.00  0.00    +0.000 HD
ENDROOT
BRANCH   2   5
ATOM      5  C   UNL     1       1.967   6.055  19.296  0.00  0.00    +0.000 C 
ATOM      6  C   UNL     1       1.969   5.456  20.719  0.00  0.00    +0.000 C 
ATOM      7  C   UNL     1       1.942   3.925  20.718  0.00  0.00    +0.000 C 
ATOM      8  C   UNL     1       3.059   3.360  19.853  0.00  0.00    +0.000 C 
ATOM      9  C   UNL     1       2.975   3.957  18.450  0.00  0.00    +0.000 C 
ATOM     10  N   UNL     1       3.069   5.418  18.513  0.00  0.00    +0.000 N 
ATOM     11  C   UNL     1       4.045   6.186  17.853  0.00  0.00    +0.000 C 
ATOM     12  O   UNL     1       4.041   7.400  17.867  0.00  0.00    +0.000 OA
BRANCH  11  13
ATOM     13  C   UNL     1       5.153   5.547  17.079  0.00  0.00    +0.000 A 
ATOM     14  C   UNL     1       5.087   5.560  15.676  0.00  0.00    +0.000 A 
ATOM     15  C   UNL     1       6.166   5.102  14.911  0.00  0.00    +0.000 A 
ATOM     16  C   UNL     1       7.309   4.613  15.544  0.00  0.00    +0.000 A 
ATOM     17  C   UNL     1       7.381   4.583  16.932  0.00  0.00    +0.000 A 
ATOM     18  C   UNL     1       6.326   5.080  17.689  0.00  0.00    +0.000 A 
ENDBRANCH  11  13
ENDBRANCH   2   5
BRANCH   3  19
ATOM     19  C   UNL     1       1.398   9.752  18.311  0.00  0.00    +0.000 C 
BRANCH  19  20
ATOM     20  C   UNL     1      -0.007  10.300  18.230  0.00  0.00    +0.000 A 
ATOM     21  C   UNL     1      -0.966   9.643  17.450  0.00  0.00    +0.000 A 
ATOM     22  C   UNL     1      -2.285  10.108  17.400  0.00  0.00    +0.000 A 
ATOM     23  C   UNL     1      -2.671  11.253  18.112  0.00  0.00    +0.000 A 
ATOM     24  C   UNL     1      -1.700  11.921  18.872  0.00  0.00    +0.000 A 
ATOM     25  C   UNL     1      -0.381  11.454  18.927  0.00  0.00    +0.000 A 
BRANCH  23  26
ATOM     26  C   UNL     1      -4.054  11.716  18.047  0.00  0.00    +0.000 A 
ATOM     27  N   UNL     1      -4.981  11.397  17.160  0.00  0.00    +0.000 NA
ATOM     28  N   UNL     1      -6.118  12.085  17.511  0.00  0.00    +0.000 NA
ATOM     29  N   UNL     1      -5.910  12.822  18.592  0.00  0.00    +0.000 NA
ATOM     30  N   UNL     1      -4.634  12.594  18.921  0.00  0.00    +0.000 N 
ATOM     31  H   UNL     1      -4.237  13.064  19.723  0.00  0.00    +0.000 HD
ENDBRANCH  23  26
ENDBRANCH  19  20
ENDBRANCH   3  19
TORSDOF 5
ENDMDL
MODEL 6
REMARK VINA RESULT:      -8.3      4.696      8.699
REMARK  Name = 
REMARK  5 active torsions:
REMARK  status: ('A' for Active; 'I' for Inactive)
REMARK    1  A    between atoms: C_2  and  C_16
REMARK    2  A    between atoms: N_3  and  C_4
REMARK    3  A    between atoms: C_4  and  C_5
REMARK    4  A    between atoms: C_8  and  C_9
REMARK    5  A    between atoms: C_22  and  C_24
REMARK                            x       y       z     vdW  Elec       q    Type
REMARK                         _______ _______ _______ _____ _____    ______ ____
ROOT
ATOM      1  O   UNL     1       1.977   8.165  20.542  0.00  0.00    +0.000 OA
ATOM      2  C   UNL     1       1.843   7.658  19.425  0.00  0.00    +0.000 C 
ATOM      3  N   UNL     1       1.450   8.411  18.332  0.00  0.00    +0.000 N 
ATOM      4  H   UNL     1       0.956   7.954  17.582  0.00  0.00    +0.000 HD
ENDROOT
BRANCH   2   5
ATOM      5  C   UNL     1       2.034   6.119  19.185  0.00  0.00    +0.000 C 
ATOM      6  C   UNL     1       2.051   5.443  20.574  0.00  0.00    +0.000 C 
ATOM      7  C   UNL     1       2.063   3.914  20.489  0.00  0.00    +0.000 C 
ATOM      8  C   UNL     1       3.194   3.426  19.596  0.00  0.00    +0.000 C 
ATOM      9  C   UNL     1       3.096   4.097  18.227  0.00  0.00    +0.000 C 
ATOM     10  N   UNL     1       3.152   5.554  18.370  0.00  0.00    +0.000 N 
ATOM     11  C   UNL     1       4.108   6.381  17.755  0.00  0.00    +0.000 C 
ATOM     12  O   UNL     1       4.073   7.592  17.836  0.00  0.00    +0.000 OA
BRANCH  11  13
ATOM     13  C   UNL     1       5.233   5.814  16.950  0.00  0.00    +0.000 A 
ATOM     14  C   UNL     1       6.330   5.257  17.628  0.00  0.00    +0.000 A 
ATOM     15  C   UNL     1       7.336   4.590  16.920  0.00  0.00    +0.000 A 
ATOM     16  C   UNL     1       7.260   4.489  15.531  0.00  0.00    +0.000 A 
ATOM     17  C   UNL     1       6.186   5.047  14.848  0.00  0.00    +0.000 A 
ATOM     18  C   UNL     1       5.164   5.670  15.557  0.00  0.00    +0.000 A 
ENDBRANCH  11  13
ENDBRANCH   2   5
BRANCH   3  19
ATOM     19  C   UNL     1       1.403   9.853  18.398  0.00  0.00    +0.000 C 
BRANCH  19  20
ATOM     20  C   UNL     1      -0.015  10.372  18.365  0.00  0.00    +0.000 A 
ATOM     21  C   UNL     1      -0.957   9.769  17.522  0.00  0.00    +0.000 A 
ATOM     22  C   UNL     1      -2.286  10.204  17.513  0.00  0.00    +0.000 A 
ATOM     23  C   UNL     1      -2.702  11.266  18.328  0.00  0.00    +0.000 A 
ATOM     24  C   UNL     1      -1.749  11.882  19.153  0.00  0.00    +0.000 A 
ATOM     25  C   UNL     1      -0.418  11.444  19.167  0.00  0.00    +0.000 A 
BRANCH  23  26
ATOM     26  C   UNL     1      -4.096  11.698  18.303  0.00  0.00    +0.000 A 
ATOM     27  N   UNL     1      -4.802  12.236  19.282  0.00  0.00    +0.000 NA
ATOM     28  N   UNL     1      -6.061  12.468  18.780  0.00  0.00    +0.000 NA
ATOM     29  N   UNL     1      -6.145  12.083  17.517  0.00  0.00    +0.000 NA
ATOM     30  N   UNL     1      -4.931  11.606  17.222  0.00  0.00    +0.000 N 
ATOM     31  H   UNL     1      -4.753  11.236  16.299  0.00  0.00    +0.000 HD
ENDBRANCH  23  26
ENDBRANCH  19  20
ENDBRANCH   3  19
TORSDOF 5
ENDMDL
MODEL 7
REMARK VINA RESULT:      -8.2      4.624      8.520
REMARK  Name = 
REMARK  5 active torsions:
REMARK  status: ('A' for Active; 'I' for Inactive)
REMARK    1  A    between atoms: C_2  and  C_16
REMARK    2  A    between atoms: N_3  and  C_4
REMARK    3  A    between atoms: C_4  and  C_5
REMARK    4  A    between atoms: C_8  and  C_9
REMARK    5  A    between atoms: C_22  and  C_24
REMARK                            x       y       z     vdW  Elec       q    Type
REMARK                         _______ _______ _______ _____ _____    ______ ____
ROOT
ATOM      1  O   UNL     1       2.072   8.063  20.365  0.00  0.00    +0.000 OA
ATOM      2  C   UNL     1       1.903   7.523  19.268  0.00  0.00    +0.000 C 
ATOM      3  N   UNL     1       1.529   8.255  18.154  0.00  0.00    +0.000 N 
ATOM      4  H   UNL     1       1.006   7.795  17.426  0.00  0.00    +0.000 HD
ENDROOT
BRANCH   2   5
ATOM      5  C   UNL     1       2.025   5.971  19.079  0.00  0.00    +0.000 C 
ATOM      6  C   UNL     1       2.004   5.341  20.489  0.00  0.00    +0.000 C 
ATOM      7  C   UNL     1       1.947   3.811  20.454  0.00  0.00    +0.000 C 
ATOM      8  C   UNL     1       3.059   3.242  19.584  0.00  0.00    +0.000 C 
ATOM      9  C   UNL     1       2.998   3.872  18.194  0.00  0.00    +0.000 C 
ATOM     10  N   UNL     1       3.120   5.329  18.291  0.00  0.00    +0.000 N 
ATOM     11  C   UNL     1       4.116   6.091  17.655  0.00  0.00    +0.000 C 
ATOM     12  O   UNL     1       4.136   7.305  17.696  0.00  0.00    +0.000 OA
BRANCH  11  13
ATOM     13  C   UNL     1       5.218   5.448  16.876  0.00  0.00    +0.000 A 
ATOM     14  C   UNL     1       5.128   5.432  15.474  0.00  0.00    +0.000 A 
ATOM     15  C   UNL     1       6.198   4.969  14.700  0.00  0.00    +0.000 A 
ATOM     16  C   UNL     1       7.357   4.504  15.323  0.00  0.00    +0.000 A 
ATOM     17  C   UNL     1       7.452   4.503  16.710  0.00  0.00    +0.000 A 
ATOM     18  C   UNL     1       6.405   5.006  17.475  0.00  0.00    +0.000 A 
ENDBRANCH  11  13
ENDBRANCH   2   5
BRANCH   3  19
ATOM     19  C   UNL     1       1.544   9.700  18.171  0.00  0.00    +0.000 C 
BRANCH  19  20
ATOM     20  C   UNL     1       0.170  10.274  18.415  0.00  0.00    +0.000 A 
ATOM     21  C   UNL     1      -0.020  11.222  19.429  0.00  0.00    +0.000 A 
ATOM     22  C   UNL     1      -1.276  11.800  19.638  0.00  0.00    +0.000 A 
ATOM     23  C   UNL     1      -2.378  11.431  18.854  0.00  0.00    +0.000 A 
ATOM     24  C   UNL     1      -2.189  10.463  17.857  0.00  0.00    +0.000 A 
ATOM     25  C   UNL     1      -0.931   9.886  17.642  0.00  0.00    +0.000 A 
BRANCH  23  26
ATOM     26  C   UNL     1      -3.678  12.052  19.091  0.00  0.00    +0.000 A 
ATOM     27  N   UNL     1      -4.154  12.545  20.220  0.00  0.00    +0.000 NA
ATOM     28  N   UNL     1      -5.416  13.016  19.946  0.00  0.00    +0.000 NA
ATOM     29  N   UNL     1      -5.728  12.820  18.674  0.00  0.00    +0.000 NA
ATOM     30  N   UNL     1      -4.654  12.223  18.146  0.00  0.00    +0.000 N 
ATOM     31  H   UNL     1      -4.661  11.960  17.171  0.00  0.00    +0.000 HD
ENDBRANCH  23  26
ENDBRANCH  19  20
ENDBRANCH   3  19
TORSDOF 5
ENDMDL
MODEL 8
REMARK VINA RESULT:      -8.1      4.153      7.258
REMARK  Name = 
REMARK  5 active torsions:
REMARK  status: ('A' for Active; 'I' for Inactive)
REMARK    1  A    between atoms: C_2  and  C_16
REMARK    2  A    between atoms: N_3  and  C_4
REMARK    3  A    between atoms: C_4  and  C_5
REMARK    4  A    between atoms: C_8  and  C_9
REMARK    5  A    between atoms: C_22  and  C_24
REMARK                            x       y       z     vdW  Elec       q    Type
REMARK                         _______ _______ _______ _____ _____    ______ ____
ROOT
ATOM      1  O   UNL     1       1.141   9.857  21.069  0.00  0.00    +0.000 OA
ATOM      2  C   UNL     1       1.076  10.069  19.855  0.00  0.00    +0.000 C 
ATOM      3  N   UNL     1       1.302   9.061  18.932  0.00  0.00    +0.000 N 
ATOM      4  H   UNL     1       1.654   9.309  18.021  0.00  0.00    +0.000 HD
ENDROOT
BRANCH   2   5
ATOM      5  C   UNL     1       0.810  11.503  19.276  0.00  0.00    +0.000 C 
ATOM      6  C   UNL     1       1.329  12.515  20.321  0.00  0.00    +0.000 C 
ATOM      7  C   UNL     1       1.288  13.961  19.817  0.00  0.00    +0.000 C 
ATOM      8  C   UNL     1      -0.099  14.321  19.304  0.00  0.00    +0.000 C 
ATOM      9  C   UNL     1      -0.534  13.309  18.246  0.00  0.00    +0.000 C 
ATOM     10  N   UNL     1      -0.534  11.955  18.806  0.00  0.00    +0.000 N 
ATOM     11  C   UNL     1      -1.654  11.107  18.847  0.00  0.00    +0.000 C 
ATOM     12  O   UNL     1      -1.593   9.963  19.249  0.00  0.00    +0.000 OA
BRANCH  11  13
ATOM     13  C   UNL     1      -3.001  11.565  18.387  0.00  0.00    +0.000 A 
ATOM     14  C   UNL     1      -3.391  11.284  17.066  0.00  0.00    +0.000 A 
ATOM     15  C   UNL     1      -4.692  11.567  16.636  0.00  0.00    +0.000 A 
ATOM     16  C   UNL     1      -5.606  12.147  17.516  0.00  0.00    +0.000 A 
ATOM     17  C   UNL     1      -5.228  12.442  18.821  0.00  0.00    +0.000 A 
ATOM     18  C   UNL     1      -3.948  12.118  19.260  0.00  0.00    +0.000 A 
ENDBRANCH  11  13
ENDBRANCH   2   5
BRANCH   3  19
ATOM     19  C   UNL     1       1.395   7.680  19.345  0.00  0.00    +0.000 C 
BRANCH  19  20
ATOM     20  C   UNL     1       2.703   7.055  18.925  0.00  0.00    +0.000 A 
ATOM     21  C   UNL     1       3.244   6.001  19.674  0.00  0.00    +0.000 A 
ATOM     22  C   UNL     1       4.430   5.378  19.273  0.00  0.00    +0.000 A 
ATOM     23  C   UNL     1       5.117   5.806  18.128  0.00  0.00    +0.000 A 
ATOM     24  C   UNL     1       4.584   6.877  17.395  0.00  0.00    +0.000 A 
ATOM     25  C   UNL     1       3.393   7.499  17.792  0.00  0.00    +0.000 A 
BRANCH  23  26
ATOM     26  C   UNL     1       6.351   5.136  17.729  0.00  0.00    +0.000 A 
ATOM     27  N   UNL     1       7.325   4.690  18.503  0.00  0.00    +0.000 NA
ATOM     28  N   UNL     1       8.272   4.141  17.671  0.00  0.00    +0.000 NA
ATOM     29  N   UNL     1       7.904   4.243  16.403  0.00  0.00    +0.000 NA
ATOM     30  N   UNL     1       6.718   4.859  16.440  0.00  0.00    +0.000 N 
ATOM     31  H   UNL     1       6.236   5.060  15.574  0.00  0.00    +0.000 HD
ENDBRANCH  23  26
ENDBRANCH  19  20
ENDBRANCH   3  19
TORSDOF 5
ENDMDL
MODEL 9
REMARK VINA RESULT:      -8.1      4.217      7.838
REMARK  Name = 
REMARK  5 active torsions:
REMARK  status: ('A' for Active; 'I' for Inactive)
REMARK    1  A    between atoms: C_2  and  C_16
REMARK    2  A    between atoms: N_3  and  C_4
REMARK    3  A    between atoms: C_4  and  C_5
REMARK    4  A    between atoms: C_8  and  C_9
REMARK    5  A    between atoms: C_22  and  C_24
REMARK                            x       y       z     vdW  Elec       q    Type
REMARK                         _______ _______ _______ _____ _____    ______ ____
ROOT
ATOM      1  O   UNL     1       2.290   5.097  21.716  0.00  0.00    +0.000 OA
ATOM      2  C   UNL     1       1.950   5.534  20.614  0.00  0.00    +0.000 C 
ATOM      3  N   UNL     1       1.617   6.866  20.436  0.00  0.00    +0.000 N 
ATOM      4  H   UNL     1       0.971   7.110  19.702  0.00  0.00    +0.000 HD
ENDROOT
BRANCH   2   5
ATOM      5  C   UNL     1       1.797   4.600  19.362  0.00  0.00    +0.000 C 
ATOM      6  C   UNL     1       1.410   3.200  19.887  0.00  0.00    +0.000 C 
ATOM      7  C   UNL     1       1.063   2.220  18.763  0.00  0.00    +0.000 C 
ATOM      8  C   UNL     1       2.176   2.160  17.727  0.00  0.00    +0.000 C 
ATOM      9  C   UNL     1       2.480   3.567  17.217  0.00  0.00    +0.000 C 
ATOM     10  N   UNL     1       2.866   4.439  18.330  0.00  0.00    +0.000 N 
ATOM     11  C   UNL     1       4.085   5.133  18.417  0.00  0.00    +0.000 C 
ATOM     12  O   UNL     1       4.334   5.908  19.319  0.00  0.00    +0.000 OA
BRANCH  11  13
ATOM     13  C   UNL     1       5.158   4.962  17.389  0.00  0.00    +0.000 A 
ATOM     14  C   UNL     1       4.917   5.423  16.084  0.00  0.00    +0.000 A 
ATOM     15  C   UNL     1       5.940   5.414  15.129  0.00  0.00    +0.000 A 
ATOM     16  C   UNL     1       7.204   4.929  15.468  0.00  0.00    +0.000 A 
ATOM     17  C   UNL     1       7.451   4.459  16.752  0.00  0.00    +0.000 A 
ATOM     18  C   UNL     1       6.445   4.511  17.712  0.00  0.00    +0.000 A 
ENDBRANCH  11  13
ENDBRANCH   2   5
BRANCH   3  19
ATOM     19  C   UNL     1       1.873   7.843  21.469  0.00  0.00    +0.000 C 
BRANCH  19  20
ATOM     20  C   UNL     1       0.853   8.956  21.456  0.00  0.00    +0.000 A 
ATOM     21  C   UNL     1       0.252   9.364  22.654  0.00  0.00    +0.000 A 
ATOM     22  C   UNL     1      -0.658  10.425  22.668  0.00  0.00    +0.000 A 
ATOM     23  C   UNL     1      -1.008  11.091  21.484  0.00  0.00    +0.000 A 
ATOM     24  C   UNL     1      -0.421  10.662  20.284  0.00  0.00    +0.000 A 
ATOM     25  C   UNL     1       0.495   9.603  20.268  0.00  0.00    +0.000 A 
BRANCH  23  26
ATOM     26  C   UNL     1      -1.958  12.198  21.527  0.00  0.00    +0.000 A 
ATOM     27  N   UNL     1      -2.198  13.104  20.595  0.00  0.00    +0.000 NA
ATOM     28  N   UNL     1      -3.169  13.939  21.096  0.00  0.00    +0.000 NA
ATOM     29  N   UNL     1      -3.529  13.568  22.315  0.00  0.00    +0.000 NA
ATOM     30  N   UNL     1      -2.780  12.492  22.581  0.00  0.00    +0.000 N 
ATOM     31  H   UNL     1      -2.871  12.032  23.476  0.00  0.00    +0.000 HD
ENDBRANCH  23  26
ENDBRANCH  19  20
ENDBRANCH   3  19
TORSDOF 5
ENDMDL
