MODEL 1
REMARK VINA RESULT:      -9.0      0.000      0.000
REMARK  Name = 
REMARK  5 active torsions:
REMARK  status: ('A' for Active; 'I' for Inactive)
REMARK    1  A    between atoms: C_1  and  N_2
REMARK    2  A    between atoms: C_6  and  C_7
REMARK    3  A    between atoms: C_7  and  C_8
REMARK    4  A    between atoms: C_8  and  C_9
REMARK    5  A    between atoms: C_13  and  N_14
REMARK                            x       y       z     vdW  Elec       q    Type
REMARK                         _______ _______ _______ _____ _____    ______ ____
ROOT
ATOM      1  C   UNL     1       4.901   5.668  17.670  0.00  0.00    +0.000 A 
ATOM      2  C   UNL     1       4.625   6.892  17.037  0.00  0.00    +0.000 A 
ATOM      3  C   UNL     1       3.570   7.696  17.455  0.00  0.00    +0.000 A 
ATOM      4  C   UNL     1       2.700   7.231  18.431  0.00  0.00    +0.000 A 
ATOM      5  C   UNL     1       2.804   5.902  18.874  0.00  0.00    +0.000 A 
ATOM      6  C   UNL     1       3.985   5.201  18.626  0.00  0.00    +0.000 A 
ENDROOT
BRANCH   5   7
ATOM      7  N   UNL     1       1.589   5.119  19.102  0.00  0.00    +0.000 N 
ATOM      8  C   UNL     1       1.743   4.297  20.336  0.00  0.00    +0.000 C 
ATOM      9  C   UNL     1       2.374   3.065  19.784  0.00  0.00    +0.000 A 
ATOM     10  C   UNL     1       3.466   2.364  20.246  0.00  0.00    +0.000 A 
ATOM     11  F   UNL     1       3.975   2.621  21.457  0.00  0.00    +0.000 F 
ATOM     12  C   UNL     1       4.137   1.503  19.377  0.00  0.00    +0.000 A 
ATOM     13  C   UNL     1       3.687   1.332  18.054  0.00  0.00    +0.000 A 
ATOM     14  C   UNL     1       2.578   2.040  17.583  0.00  0.00    +0.000 A 
ATOM     15  C   UNL     1       1.959   2.914  18.463  0.00  0.00    +0.000 A 
ATOM     16  C   UNL     1       1.282   4.179  18.078  0.00  0.00    +0.000 C 
ATOM     17  O   UNL     1       0.788   4.386  16.986  0.00  0.00    +0.000 OA
ENDBRANCH   5   7
BRANCH   1  18
ATOM     18  C   UNL     1       6.116   4.865  17.288  0.00  0.00    +0.000 C 
ATOM     19  C   UNL     1       7.485   5.252  17.833  0.00  0.00    +0.000 C 
ATOM     20  O   UNL     1       6.756   4.141  18.361  0.00  0.00    +0.000 OA
BRANCH  18  21
ATOM     21  C   UNL     1       6.002   4.038  16.024  0.00  0.00    +0.000 C 
BRANCH  21  27
ATOM     22  C   UNL     1       5.511   3.350  12.974  0.00  0.00    +0.000 C 
ATOM     23  N   UNL     1       6.493   4.244  13.528  0.00  0.00    +0.000 N 
ATOM     24  C   UNL     1       7.427   4.920  12.795  0.00  0.00    +0.000 A 
ATOM     25  N   UNL     1       8.159   5.656  13.595  0.00  0.00    +0.000 NA
ATOM     26  N   UNL     1       7.710   5.450  14.877  0.00  0.00    +0.000 NA
ATOM     27  C   UNL     1       6.718   4.584  14.836  0.00  0.00    +0.000 A 
ENDBRANCH  21  27
ENDBRANCH  18  21
ENDBRANCH   1  18
TORSDOF 4
ENDMDL
MODEL 2
REMARK VINA RESULT:      -9.0      2.327      3.548
REMARK  Name = 
REMARK  5 active torsions:
REMARK  status: ('A' for Active; 'I' for Inactive)
REMARK    1  A    between atoms: C_1  and  N_2
REMARK    2  A    between atoms: C_6  and  C_7
REMARK    3  A    between atoms: C_7  and  C_8
REMARK    4  A    between atoms: C_8  and  C_9
REMARK    5  A    between atoms: C_13  and  N_14
REMARK                            x       y       z     vdW  Elec       q    Type
REMARK                         _______ _______ _______ _____ _____    ______ ____
ROOT
ATOM      1  C   UNL     1       5.239   5.321  16.131  0.00  0.00    +0.000 A 
ATOM      2  C   UNL     1       4.766   6.640  16.240  0.00  0.00    +0.000 A 
ATOM      3  C   UNL     1       3.724   6.961  17.102  0.00  0.00    +0.000 A 
ATOM      4  C   UNL     1       3.056   5.947  17.776  0.00  0.00    +0.000 A 
ATOM      5  C   UNL     1       3.340   4.607  17.465  0.00  0.00    +0.000 A 
ATOM      6  C   UNL     1       4.525   4.309  16.790  0.00  0.00    +0.000 A 
ENDROOT
BRANCH   5   7
ATOM      7  N   UNL     1       2.246   3.640  17.368  0.00  0.00    +0.000 N 
ATOM      8  C   UNL     1       1.059   4.144  18.115  0.00  0.00    +0.000 C 
ATOM      9  C   UNL     1       1.335   3.620  19.483  0.00  0.00    +0.000 A 
ATOM     10  C   UNL     1       1.267   4.271  20.694  0.00  0.00    +0.000 A 
ATOM     11  F   UNL     1       0.690   5.475  20.787  0.00  0.00    +0.000 F 
ATOM     12  C   UNL     1       1.950   3.739  21.789  0.00  0.00    +0.000 A 
ATOM     13  C   UNL     1       2.676   2.539  21.663  0.00  0.00    +0.000 A 
ATOM     14  C   UNL     1       2.745   1.876  20.434  0.00  0.00    +0.000 A 
ATOM     15  C   UNL     1       2.085   2.453  19.360  0.00  0.00    +0.000 A 
ATOM     16  C   UNL     1       2.520   2.367  17.943  0.00  0.00    +0.000 C 
ATOM     17  O   UNL     1       3.190   1.461  17.486  0.00  0.00    +0.000 OA
ENDBRANCH   5   7
BRANCH   1  18
ATOM     18  C   UNL     1       6.446   5.007  15.285  0.00  0.00    +0.000 C 
ATOM     19  C   UNL     1       6.296   4.147  14.036  0.00  0.00    +0.000 C 
ATOM     20  O   UNL     1       6.444   5.566  13.954  0.00  0.00    +0.000 OA
BRANCH  18  21
ATOM     21  C   UNL     1       7.793   5.141  15.964  0.00  0.00    +0.000 C 
BRANCH  21  27
ATOM     22  C   UNL     1       7.778   7.921  17.477  0.00  0.00    +0.000 C 
ATOM     23  N   UNL     1       7.766   6.604  18.055  0.00  0.00    +0.000 N 
ATOM     24  C   UNL     1       7.794   6.346  19.397  0.00  0.00    +0.000 A 
ATOM     25  N   UNL     1       7.761   5.050  19.591  0.00  0.00    +0.000 NA
ATOM     26  N   UNL     1       7.726   4.445  18.359  0.00  0.00    +0.000 NA
ATOM     27  C   UNL     1       7.747   5.383  17.434  0.00  0.00    +0.000 A 
ENDBRANCH  21  27
ENDBRANCH  18  21
ENDBRANCH   1  18
TORSDOF 4
ENDMDL
MODEL 3
REMARK VINA RESULT:      -8.6      1.006      1.149
REMARK  Name = 
REMARK  5 active torsions:
REMARK  status: ('A' for Active; 'I' for Inactive)
REMARK    1  A    between atoms: C_1  and  N_2
REMARK    2  A    between atoms: C_6  and  C_7
REMARK    3  A    between atoms: C_7  and  C_8
REMARK    4  A    between atoms: C_8  and  C_9
REMARK    5  A    between atoms: C_13  and  N_14
REMARK                            x       y       z     vdW  Elec       q    Type
REMARK                         _______ _______ _______ _____ _____    ______ ____
ROOT
ATOM      1  C   UNL     1       4.964   5.929  18.124  0.00  0.00    +0.000 A 
ATOM      2  C   UNL     1       4.643   7.117  17.445  0.00  0.00    +0.000 A 
ATOM      3  C   UNL     1       3.364   7.659  17.507  0.00  0.00    +0.000 A 
ATOM      4  C   UNL     1       2.354   6.955  18.149  0.00  0.00    +0.000 A 
ATOM      5  C   UNL     1       2.598   5.644  18.591  0.00  0.00    +0.000 A 
ATOM      6  C   UNL     1       3.919   5.216  18.731  0.00  0.00    +0.000 A 
ENDROOT
BRANCH   5   7
ATOM      7  N   UNL     1       1.571   4.618  18.412  0.00  0.00    +0.000 N 
ATOM      8  C   UNL     1       1.112   4.125  19.741  0.00  0.00    +0.000 C 
ATOM      9  C   UNL     1       2.092   3.031  19.997  0.00  0.00    +0.000 A 
ATOM     10  C   UNL     1       2.817   2.760  21.136  0.00  0.00    +0.000 A 
ATOM     11  F   UNL     1       2.528   3.377  22.288  0.00  0.00    +0.000 F 
ATOM     12  C   UNL     1       3.959   1.965  21.039  0.00  0.00    +0.000 A 
ATOM     13  C   UNL     1       4.350   1.424  19.799  0.00  0.00    +0.000 A 
ATOM     14  C   UNL     1       3.614   1.695  18.642  0.00  0.00    +0.000 A 
ATOM     15  C   UNL     1       2.505   2.519  18.770  0.00  0.00    +0.000 A 
ATOM     16  C   UNL     1       2.007   3.449  17.725  0.00  0.00    +0.000 C 
ATOM     17  O   UNL     1       2.185   3.297  16.531  0.00  0.00    +0.000 OA
ENDBRANCH   5   7
BRANCH   1  18
ATOM     18  C   UNL     1       6.381   5.419  18.146  0.00  0.00    +0.000 C 
ATOM     19  C   UNL     1       7.500   6.307  18.677  0.00  0.00    +0.000 C 
ATOM     20  O   UNL     1       6.963   5.234  19.454  0.00  0.00    +0.000 OA
BRANCH  18  21
ATOM     21  C   UNL     1       6.694   4.272  17.208  0.00  0.00    +0.000 C 
BRANCH  21  27
ATOM     22  C   UNL     1       5.084   3.283  14.669  0.00  0.00    +0.000 C 
ATOM     23  N   UNL     1       6.206   4.183  14.705  0.00  0.00    +0.000 N 
ATOM     24  C   UNL     1       6.796   4.730  13.601  0.00  0.00    +0.000 A 
ATOM     25  N   UNL     1       7.780   5.511  13.975  0.00  0.00    +0.000 NA
ATOM     26  N   UNL     1       7.848   5.466  15.346  0.00  0.00    +0.000 NA
ATOM     27  C   UNL     1       6.910   4.650  15.783  0.00  0.00    +0.000 A 
ENDBRANCH  21  27
ENDBRANCH  18  21
ENDBRANCH   1  18
TORSDOF 4
ENDMDL
MODEL 4
REMARK VINA RESULT:      -8.5      1.655      2.222
REMARK  Name = 
REMARK  5 active torsions:
REMARK  status: ('A' for Active; 'I' for Inactive)
REMARK    1  A    between atoms: C_1  and  N_2
REMARK    2  A    between atoms: C_6  and  C_7
REMARK    3  A    between atoms: C_7  and  C_8
REMARK    4  A    between atoms: C_8  and  C_9
REMARK    5  A    between atoms: C_13  and  N_14
REMARK                            x       y       z     vdW  Elec       q    Type
REMARK                         _______ _______ _______ _____ _____    ______ ____
ROOT
ATOM      1  C   UNL     1       5.479   6.222  17.444  0.00  0.00    +0.000 A 
ATOM      2  C   UNL     1       4.762   7.393  17.141  0.00  0.00    +0.000 A 
ATOM      3  C   UNL     1       3.399   7.489  17.401  0.00  0.00    +0.000 A 
ATOM      4  C   UNL     1       2.708   6.373  17.853  0.00  0.00    +0.000 A 
ATOM      5  C   UNL     1       3.358   5.128  17.897  0.00  0.00    +0.000 A 
ATOM      6  C   UNL     1       4.753   5.096  17.862  0.00  0.00    +0.000 A 
ENDROOT
BRANCH   5   7
ATOM      7  N   UNL     1       2.644   3.924  17.472  0.00  0.00    +0.000 N 
ATOM      8  C   UNL     1       1.246   3.957  17.986  0.00  0.00    +0.000 C 
ATOM      9  C   UNL     1       1.417   3.324  19.325  0.00  0.00    +0.000 A 
ATOM     10  C   UNL     1       0.937   3.733  20.549  0.00  0.00    +0.000 A 
ATOM     11  F   UNL     1       0.017   4.701  20.629  0.00  0.00    +0.000 F 
ATOM     12  C   UNL     1       1.540   3.247  21.710  0.00  0.00    +0.000 A 
ATOM     13  C   UNL     1       2.606   2.330  21.631  0.00  0.00    +0.000 A 
ATOM     14  C   UNL     1       3.092   1.912  20.389  0.00  0.00    +0.000 A 
ATOM     15  C   UNL     1       2.493   2.443  19.257  0.00  0.00    +0.000 A 
ATOM     16  C   UNL     1       3.182   2.703  17.967  0.00  0.00    +0.000 C 
ATOM     17  O   UNL     1       4.166   2.100  17.583  0.00  0.00    +0.000 OA
ENDBRANCH   5   7
BRANCH   1  18
ATOM     18  C   UNL     1       6.974   6.174  17.270  0.00  0.00    +0.000 C 
ATOM     19  C   UNL     1       7.791   7.458  17.352  0.00  0.00    +0.000 C 
ATOM     20  O   UNL     1       7.755   6.522  18.433  0.00  0.00    +0.000 OA
BRANCH  18  21
ATOM     21  C   UNL     1       7.525   4.962  16.548  0.00  0.00    +0.000 C 
BRANCH  21  27
ATOM     22  C   UNL     1       5.363   3.441  14.807  0.00  0.00    +0.000 C 
ATOM     23  N   UNL     1       6.433   4.283  14.344  0.00  0.00    +0.000 N 
ATOM     24  C   UNL     1       6.715   4.524  13.028  0.00  0.00    +0.000 A 
ATOM     25  N   UNL     1       7.738   5.338  12.945  0.00  0.00    +0.000 NA
ATOM     26  N   UNL     1       8.146   5.627  14.224  0.00  0.00    +0.000 NA
ATOM     27  C   UNL     1       7.369   4.975  15.066  0.00  0.00    +0.000 A 
ENDBRANCH  21  27
ENDBRANCH  18  21
ENDBRANCH   1  18
TORSDOF 4
ENDMDL
MODEL 5
REMARK VINA RESULT:      -8.5      4.367      7.034
REMARK  Name = 
REMARK  5 active torsions:
REMARK  status: ('A' for Active; 'I' for Inactive)
REMARK    1  A    between atoms: C_1  and  N_2
REMARK    2  A    between atoms: C_6  and  C_7
REMARK    3  A    between atoms: C_7  and  C_8
REMARK    4  A    between atoms: C_8  and  C_9
REMARK    5  A    between atoms: C_13  and  N_14
REMARK                            x       y       z     vdW  Elec       q    Type
REMARK                         _______ _______ _______ _____ _____    ______ ____
ROOT
ATOM      1  C   UNL     1       1.451   8.778  19.737  0.00  0.00    +0.000 A 
ATOM      2  C   UNL     1       1.908   9.157  18.463  0.00  0.00    +0.000 A 
ATOM      3  C   UNL     1       2.480   8.230  17.599  0.00  0.00    +0.000 A 
ATOM      4  C   UNL     1       2.715   6.935  18.042  0.00  0.00    +0.000 A 
ATOM      5  C   UNL     1       2.515   6.621  19.397  0.00  0.00    +0.000 A 
ATOM      6  C   UNL     1       1.735   7.476  20.177  0.00  0.00    +0.000 A 
ENDROOT
BRANCH   5   7
ATOM      7  N   UNL     1       3.476   5.762  20.089  0.00  0.00    +0.000 N 
ATOM      8  C   UNL     1       4.499   5.269  19.124  0.00  0.00    +0.000 C 
ATOM      9  C   UNL     1       3.840   4.035  18.611  0.00  0.00    +0.000 A 
ATOM     10  C   UNL     1       3.691   3.603  17.312  0.00  0.00    +0.000 A 
ATOM     11  F   UNL     1       4.368   4.191  16.319  0.00  0.00    +0.000 F 
ATOM     12  C   UNL     1       2.705   2.659  17.020  0.00  0.00    +0.000 A 
ATOM     13  C   UNL     1       1.892   2.136  18.043  0.00  0.00    +0.000 A 
ATOM     14  C   UNL     1       2.043   2.571  19.363  0.00  0.00    +0.000 A 
ATOM     15  C   UNL     1       3.008   3.536  19.610  0.00  0.00    +0.000 A 
ATOM     16  C   UNL     1       2.921   4.583  20.660  0.00  0.00    +0.000 C 
ATOM     17  O   UNL     1       2.277   4.472  21.686  0.00  0.00    +0.000 OA
ENDBRANCH   5   7
BRANCH   1  18
ATOM     18  C   UNL     1       0.727   9.764  20.616  0.00  0.00    +0.000 C 
ATOM     19  C   UNL     1       0.032   9.284  21.885  0.00  0.00    +0.000 C 
ATOM     20  O   UNL     1       1.288   9.966  21.930  0.00  0.00    +0.000 OA
BRANCH  18  21
ATOM     21  C   UNL     1       0.311  11.064  19.961  0.00  0.00    +0.000 C 
BRANCH  21  27
ATOM     22  C   UNL     1       2.468  12.570  18.202  0.00  0.00    +0.000 C 
ATOM     23  N   UNL     1       2.067  12.869  19.551  0.00  0.00    +0.000 N 
ATOM     24  C   UNL     1       2.613  13.858  20.320  0.00  0.00    +0.000 A 
ATOM     25  N   UNL     1       2.021  13.876  21.489  0.00  0.00    +0.000 NA
ATOM     26  N   UNL     1       1.081  12.875  21.496  0.00  0.00    +0.000 NA
ATOM     27  C   UNL     1       1.123  12.257  20.332  0.00  0.00    +0.000 A 
ENDBRANCH  21  27
ENDBRANCH  18  21
ENDBRANCH   1  18
TORSDOF 4
ENDMDL
MODEL 6
REMARK VINA RESULT:      -8.5      2.112      3.497
REMARK  Name = 
REMARK  5 active torsions:
REMARK  status: ('A' for Active; 'I' for Inactive)
REMARK    1  A    between atoms: C_1  and  N_2
REMARK    2  A    between atoms: C_6  and  C_7
REMARK    3  A    between atoms: C_7  and  C_8
REMARK    4  A    between atoms: C_8  and  C_9
REMARK    5  A    between atoms: C_13  and  N_14
REMARK                            x       y       z     vdW  Elec       q    Type
REMARK                         _______ _______ _______ _____ _____    ______ ____
ROOT
ATOM      1  C   UNL     1       5.472   4.652  17.202  0.00  0.00    +0.000 A 
ATOM      2  C   UNL     1       5.963   4.665  18.519  0.00  0.00    +0.000 A 
ATOM      3  C   UNL     1       5.505   3.756  19.466  0.00  0.00    +0.000 A 
ATOM      4  C   UNL     1       4.460   2.901  19.145  0.00  0.00    +0.000 A 
ATOM      5  C   UNL     1       3.781   3.066  17.926  0.00  0.00    +0.000 A 
ATOM      6  C   UNL     1       4.390   3.807  16.912  0.00  0.00    +0.000 A 
ENDROOT
BRANCH   5   7
ATOM      7  N   UNL     1       2.324   2.938  17.887  0.00  0.00    +0.000 N 
ATOM      8  C   UNL     1       1.727   4.150  17.258  0.00  0.00    +0.000 C 
ATOM      9  C   UNL     1       1.568   5.041  18.442  0.00  0.00    +0.000 A 
ATOM     10  C   UNL     1       1.909   6.368  18.586  0.00  0.00    +0.000 A 
ATOM     11  F   UNL     1       2.245   7.102  17.518  0.00  0.00    +0.000 F 
ATOM     12  C   UNL     1       2.061   6.893  19.869  0.00  0.00    +0.000 A 
ATOM     13  C   UNL     1       1.843   6.086  21.002  0.00  0.00    +0.000 A 
ATOM     14  C   UNL     1       1.495   4.740  20.859  0.00  0.00    +0.000 A 
ATOM     15  C   UNL     1       1.388   4.242  19.569  0.00  0.00    +0.000 A 
ATOM     16  C   UNL     1       1.697   2.848  19.162  0.00  0.00    +0.000 C 
ATOM     17  O   UNL     1       1.633   1.887  19.906  0.00  0.00    +0.000 OA
ENDBRANCH   5   7
BRANCH   1  18
ATOM     18  C   UNL     1       6.062   5.561  16.156  0.00  0.00    +0.000 C 
ATOM     19  C   UNL     1       5.218   6.682  15.560  0.00  0.00    +0.000 C 
ATOM     20  O   UNL     1       6.224   6.942  16.542  0.00  0.00    +0.000 OA
BRANCH  18  21
ATOM     21  C   UNL     1       7.264   5.028  15.406  0.00  0.00    +0.000 C 
BRANCH  21  27
ATOM     22  C   UNL     1       8.561   5.904  12.655  0.00  0.00    +0.000 C 
ATOM     23  N   UNL     1       7.547   4.906  12.873  0.00  0.00    +0.000 N 
ATOM     24  C   UNL     1       6.937   4.192  11.880  0.00  0.00    +0.000 A 
ATOM     25  N   UNL     1       6.074   3.361  12.411  0.00  0.00    +0.000 NA
ATOM     26  N   UNL     1       6.106   3.539  13.772  0.00  0.00    +0.000 NA
ATOM     27  C   UNL     1       6.982   4.485  14.047  0.00  0.00    +0.000 A 
ENDBRANCH  21  27
ENDBRANCH  18  21
ENDBRANCH   1  18
TORSDOF 4
ENDMDL
MODEL 7
REMARK VINA RESULT:      -8.4      1.120      1.607
REMARK  Name = 
REMARK  5 active torsions:
REMARK  status: ('A' for Active; 'I' for Inactive)
REMARK    1  A    between atoms: C_1  and  N_2
REMARK    2  A    between atoms: C_6  and  C_7
REMARK    3  A    between atoms: C_7  and  C_8
REMARK    4  A    between atoms: C_8  and  C_9
REMARK    5  A    between atoms: C_13  and  N_14
REMARK                            x       y       z     vdW  Elec       q    Type
REMARK                         _______ _______ _______ _____ _____    ______ ____
ROOT
ATOM      1  C   UNL     1       4.923   6.105  17.962  0.00  0.00    +0.000 A 
ATOM      2  C   UNL     1       4.502   7.317  17.388  0.00  0.00    +0.000 A 
ATOM      3  C   UNL     1       3.198   7.774  17.547  0.00  0.00    +0.000 A 
ATOM      4  C   UNL     1       2.262   6.966  18.178  0.00  0.00    +0.000 A 
ATOM      5  C   UNL     1       2.602   5.643  18.510  0.00  0.00    +0.000 A 
ATOM      6  C   UNL     1       3.951   5.288  18.559  0.00  0.00    +0.000 A 
ENDROOT
BRANCH   5   7
ATOM      7  N   UNL     1       1.628   4.572  18.299  0.00  0.00    +0.000 N 
ATOM      8  C   UNL     1       1.117   4.089  19.613  0.00  0.00    +0.000 C 
ATOM      9  C   UNL     1       2.124   3.042  19.946  0.00  0.00    +0.000 A 
ATOM     10  C   UNL     1       2.796   2.825  21.129  0.00  0.00    +0.000 A 
ATOM     11  F   UNL     1       2.420   3.453  22.249  0.00  0.00    +0.000 F 
ATOM     12  C   UNL     1       3.973   2.075  21.112  0.00  0.00    +0.000 A 
ATOM     13  C   UNL     1       4.452   1.525  19.907  0.00  0.00    +0.000 A 
ATOM     14  C   UNL     1       3.770   1.742  18.707  0.00  0.00    +0.000 A 
ATOM     15  C   UNL     1       2.624   2.522  18.756  0.00  0.00    +0.000 A 
ATOM     16  C   UNL     1       2.147   3.409  17.664  0.00  0.00    +0.000 C 
ATOM     17  O   UNL     1       2.396   3.239  16.486  0.00  0.00    +0.000 OA
ENDBRANCH   5   7
BRANCH   1  18
ATOM     18  C   UNL     1       6.366   5.681  17.883  0.00  0.00    +0.000 C 
ATOM     19  C   UNL     1       7.207   5.608  19.152  0.00  0.00    +0.000 C 
ATOM     20  O   UNL     1       6.691   4.431  18.528  0.00  0.00    +0.000 OA
BRANCH  18  21
ATOM     21  C   UNL     1       7.033   5.822  16.531  0.00  0.00    +0.000 C 
BRANCH  21  27
ATOM     22  C   UNL     1       7.981   5.627  13.518  0.00  0.00    +0.000 C 
ATOM     23  N   UNL     1       6.981   4.832  14.179  0.00  0.00    +0.000 N 
ATOM     24  C   UNL     1       6.229   3.868  13.569  0.00  0.00    +0.000 A 
ATOM     25  N   UNL     1       5.423   3.325  14.448  0.00  0.00    +0.000 NA
ATOM     26  N   UNL     1       5.636   3.950  15.652  0.00  0.00    +0.000 NA
ATOM     27  C   UNL     1       6.563   4.872  15.484  0.00  0.00    +0.000 A 
ENDBRANCH  21  27
ENDBRANCH  18  21
ENDBRANCH   1  18
TORSDOF 4
ENDMDL
MODEL 8
REMARK VINA RESULT:      -8.4      1.104      1.339
REMARK  Name = 
REMARK  5 active torsions:
REMARK  status: ('A' for Active; 'I' for Inactive)
REMARK    1  A    between atoms: C_1  and  N_2
REMARK    2  A    between atoms: C_6  and  C_7
REMARK    3  A    between atoms: C_7  and  C_8
REMARK    4  A    between atoms: C_8  and  C_9
REMARK    5  A    between atoms: C_13  and  N_14
REMARK                            x       y       z     vdW  Elec       q    Type
REMARK                         _______ _______ _______ _____ _____    ______ ____
ROOT
ATOM      1  C   UNL     1       4.697   5.626  18.301  0.00  0.00    +0.000 A 
ATOM      2  C   UNL     1       3.856   6.485  17.574  0.00  0.00    +0.000 A 
ATOM      3  C   UNL     1       2.780   7.123  18.183  0.00  0.00    +0.000 A 
ATOM      4  C   UNL     1       2.457   6.816  19.497  0.00  0.00    +0.000 A 
ATOM      5  C   UNL     1       3.120   5.759  20.144  0.00  0.00    +0.000 A 
ATOM      6  C   UNL     1       4.328   5.300  19.615  0.00  0.00    +0.000 A 
ENDROOT
BRANCH   5   7
ATOM      7  N   UNL     1       2.362   4.841  20.993  0.00  0.00    +0.000 N 
ATOM      8  C   UNL     1       3.210   3.671  21.356  0.00  0.00    +0.000 C 
ATOM      9  C   UNL     1       2.943   2.755  20.211  0.00  0.00    +0.000 A 
ATOM     10  C   UNL     1       3.834   2.040  19.442  0.00  0.00    +0.000 A 
ATOM     11  F   UNL     1       5.113   1.921  19.818  0.00  0.00    +0.000 F 
ATOM     12  C   UNL     1       3.431   1.581  18.188  0.00  0.00    +0.000 A 
ATOM     13  C   UNL     1       2.123   1.823  17.726  0.00  0.00    +0.000 A 
ATOM     14  C   UNL     1       1.217   2.548  18.505  0.00  0.00    +0.000 A 
ATOM     15  C   UNL     1       1.663   3.019  19.730  0.00  0.00    +0.000 A 
ATOM     16  C   UNL     1       1.209   4.274  20.381  0.00  0.00    +0.000 C 
ATOM     17  O   UNL     1       0.124   4.790  20.191  0.00  0.00    +0.000 OA
ENDBRANCH   5   7
BRANCH   1  18
ATOM     18  C   UNL     1       5.926   5.036  17.662  0.00  0.00    +0.000 C 
ATOM     19  C   UNL     1       7.302   5.604  17.991  0.00  0.00    +0.000 C 
ATOM     20  O   UNL     1       6.845   4.373  18.556  0.00  0.00    +0.000 OA
BRANCH  18  21
ATOM     21  C   UNL     1       5.707   4.259  16.381  0.00  0.00    +0.000 C 
BRANCH  21  27
ATOM     22  C   UNL     1       5.323   3.506  13.331  0.00  0.00    +0.000 C 
ATOM     23  N   UNL     1       6.353   4.325  13.913  0.00  0.00    +0.000 N 
ATOM     24  C   UNL     1       7.385   4.884  13.214  0.00  0.00    +0.000 A 
ATOM     25  N   UNL     1       8.139   5.578  14.032  0.00  0.00    +0.000 NA
ATOM     26  N   UNL     1       7.603   5.462  15.291  0.00  0.00    +0.000 NA
ATOM     27  C   UNL     1       6.536   4.691  15.220  0.00  0.00    +0.000 A 
ENDBRANCH  21  27
ENDBRANCH  18  21
ENDBRANCH   1  18
TORSDOF 4
ENDMDL
MODEL 9
REMARK VINA RESULT:      -8.4      1.745      2.795
REMARK  Name = 
REMARK  5 active torsions:
REMARK  status: ('A' for Active; 'I' for Inactive)
REMARK    1  A    between atoms: C_1  and  N_2
REMARK    2  A    between atoms: C_6  and  C_7
REMARK    3  A    between atoms: C_7  and  C_8
REMARK    4  A    between atoms: C_8  and  C_9
REMARK    5  A    between atoms: C_13  and  N_14
REMARK                            x       y       z     vdW  Elec       q    Type
REMARK                         _______ _______ _______ _____ _____    ______ ____
ROOT
ATOM      1  C   UNL     1       4.538   5.772  17.152  0.00  0.00    +0.000 A 
ATOM      2  C   UNL     1       4.161   7.099  16.880  0.00  0.00    +0.000 A 
ATOM      3  C   UNL     1       3.293   7.787  17.722  0.00  0.00    +0.000 A 
ATOM      4  C   UNL     1       2.694   7.118  18.781  0.00  0.00    +0.000 A 
ATOM      5  C   UNL     1       2.851   5.727  18.898  0.00  0.00    +0.000 A 
ATOM      6  C   UNL     1       3.890   5.106  18.203  0.00  0.00    +0.000 A 
ENDROOT
BRANCH   5   7
ATOM      7  N   UNL     1       1.706   4.900  19.281  0.00  0.00    +0.000 N 
ATOM      8  C   UNL     1       2.044   4.101  20.493  0.00  0.00    +0.000 C 
ATOM      9  C   UNL     1       2.652   2.887  19.877  0.00  0.00    +0.000 A 
ATOM     10  C   UNL     1       3.819   2.236  20.206  0.00  0.00    +0.000 A 
ATOM     11  F   UNL     1       4.463   2.528  21.343  0.00  0.00    +0.000 F 
ATOM     12  C   UNL     1       4.412   1.390  19.268  0.00  0.00    +0.000 A 
ATOM     13  C   UNL     1       3.810   1.185  18.012  0.00  0.00    +0.000 A 
ATOM     14  C   UNL     1       2.624   1.843  17.676  0.00  0.00    +0.000 A 
ATOM     15  C   UNL     1       2.083   2.704  18.619  0.00  0.00    +0.000 A 
ATOM     16  C   UNL     1       1.313   3.936  18.311  0.00  0.00    +0.000 C 
ATOM     17  O   UNL     1       0.681   4.110  17.286  0.00  0.00    +0.000 OA
ENDBRANCH   5   7
BRANCH   1  18
ATOM     18  C   UNL     1       5.570   5.080  16.300  0.00  0.00    +0.000 C 
ATOM     19  C   UNL     1       5.128   4.119  15.203  0.00  0.00    +0.000 C 
ATOM     20  O   UNL     1       5.578   5.443  14.903  0.00  0.00    +0.000 OA
BRANCH  18  21
ATOM     21  C   UNL     1       6.966   4.990  16.880  0.00  0.00    +0.000 C 
BRANCH  21  27
ATOM     22  C   UNL     1       7.962   5.640  19.813  0.00  0.00    +0.000 C 
ATOM     23  N   UNL     1       7.930   6.523  18.677  0.00  0.00    +0.000 N 
ATOM     24  C   UNL     1       8.297   7.839  18.709  0.00  0.00    +0.000 A 
ATOM     25  N   UNL     1       8.164   8.356  17.512  0.00  0.00    +0.000 NA
ATOM     26  N   UNL     1       7.688   7.370  16.683  0.00  0.00    +0.000 NA
ATOM     27  C   UNL     1       7.530   6.270  17.392  0.00  0.00    +0.000 A 
ENDBRANCH  21  27
ENDBRANCH  18  21
ENDBRANCH   1  18
TORSDOF 4
ENDMDL
