MODEL 1
REMARK VINA RESULT:      -9.0      0.000      0.000
REMARK  Name = 
REMARK  4 active torsions:
REMARK  status: ('A' for Active; 'I' for Inactive)
REMARK    1  A    between atoms: C_2  and  C_3
REMARK    2  A    between atoms: C_3  and  C_4
REMARK    3  A    between atoms: N_14  and  C_15
REMARK    4  A    between atoms: C_20  and  N_21
REMARK                            x       y       z     vdW  Elec       q    Type
REMARK                         _______ _______ _______ _____ _____    ______ ____
ROOT
ATOM      1  O   UNL     1       1.669   5.765  17.687  0.00  0.00    +0.000 OA
ATOM      2  C   UNL     1       2.384   6.536  18.326  0.00  0.00    +0.000 C 
ATOM      3  N   UNL     1       3.189   6.172  19.388  0.00  0.00    +0.000 N 
ATOM      4  H   UNL     1       3.427   6.901  20.054  0.00  0.00    +0.000 HD
ENDROOT
BRANCH   3   5
ATOM      5  C   UNL     1       3.343   4.849  19.850  0.00  0.00    +0.000 A 
ATOM      6  C   UNL     1       2.485   4.334  20.828  0.00  0.00    +0.000 A 
ATOM      7  C   UNL     1       2.591   3.001  21.235  0.00  0.00    +0.000 A 
ATOM      8  C   UNL     1       3.584   2.183  20.701  0.00  0.00    +0.000 A 
ATOM      9  C   UNL     1       4.488   2.705  19.776  0.00  0.00    +0.000 A 
ATOM     10  C   UNL     1       4.363   4.027  19.323  0.00  0.00    +0.000 A 
BRANCH  10  11
ATOM     11  N   UNL     1       5.353   4.526  18.450  0.00  0.00    +0.000 N 
ATOM     12  C   UNL     1       5.289   4.280  17.030  0.00  0.00    +0.000 C 
ATOM     13  C   UNL     1       6.727   4.462  16.574  0.00  0.00    +0.000 C 
ATOM     14  C   UNL     1       7.291   5.472  17.562  0.00  0.00    +0.000 C 
ATOM     15  C   UNL     1       6.549   5.127  18.824  0.00  0.00    +0.000 C 
ATOM     16  O   UNL     1       6.943   5.364  19.957  0.00  0.00    +0.000 OA
ENDBRANCH  10  11
ENDBRANCH   3   5
BRANCH   2  17
ATOM     17  C   UNL     1       2.440   8.023  18.010  0.00  0.00    +0.000 C 
BRANCH  17  18
ATOM     18  C   UNL     1       1.652   8.948  18.916  0.00  0.00    +0.000 A 
ATOM     19  C   UNL     1       1.031  10.075  18.356  0.00  0.00    +0.000 A 
ATOM     20  C   UNL     1       0.197  10.898  19.123  0.00  0.00    +0.000 A 
ATOM     21  C   UNL     1      -0.046  10.612  20.471  0.00  0.00    +0.000 A 
ATOM     22  C   UNL     1      -0.900  11.417  21.249  0.00  0.00    +0.000 A 
ATOM     23  C   UNL     1      -1.148  11.109  22.588  0.00  0.00    +0.000 A 
ATOM     24  C   UNL     1      -0.543   9.997  23.163  0.00  0.00    +0.000 A 
ATOM     25  C   UNL     1       0.304   9.186  22.402  0.00  0.00    +0.000 A 
ATOM     26  C   UNL     1       0.566   9.478  21.050  0.00  0.00    +0.000 A 
ATOM     27  C   UNL     1       1.403   8.658  20.265  0.00  0.00    +0.000 A 
ENDBRANCH  17  18
ENDBRANCH   2  17
TORSDOF 4
ENDMDL
MODEL 2
REMARK VINA RESULT:      -9.0      1.419      1.419
REMARK  Name = 
REMARK  4 active torsions:
REMARK  status: ('A' for Active; 'I' for Inactive)
REMARK    1  A    between atoms: C_2  and  C_3
REMARK    2  A    between atoms: C_3  and  C_4
REMARK    3  A    between atoms: N_14  and  C_15
REMARK    4  A    between atoms: C_20  and  N_21
REMARK                            x       y       z     vdW  Elec       q    Type
REMARK                         _______ _______ _______ _____ _____    ______ ____
ROOT
ATOM      1  O   UNL     1       3.272   6.419  19.699  0.00  0.00    +0.000 OA
ATOM      2  C   UNL     1       2.733   6.604  18.609  0.00  0.00    +0.000 C 
ATOM      3  N   UNL     1       2.319   5.603  17.751  0.00  0.00    +0.000 N 
ATOM      4  H   UNL     1       2.245   5.844  16.766  0.00  0.00    +0.000 HD
ENDROOT
BRANCH   3   5
ATOM      5  C   UNL     1       2.410   4.225  18.036  0.00  0.00    +0.000 A 
ATOM      6  C   UNL     1       1.333   3.549  18.622  0.00  0.00    +0.000 A 
ATOM      7  C   UNL     1       1.395   2.169  18.839  0.00  0.00    +0.000 A 
ATOM      8  C   UNL     1       2.550   1.461  18.515  0.00  0.00    +0.000 A 
ATOM      9  C   UNL     1       3.653   2.136  17.994  0.00  0.00    +0.000 A 
ATOM     10  C   UNL     1       3.588   3.512  17.726  0.00  0.00    +0.000 A 
BRANCH  10  11
ATOM     11  N   UNL     1       4.760   4.157  17.277  0.00  0.00    +0.000 N 
ATOM     12  C   UNL     1       5.025   4.328  15.870  0.00  0.00    +0.000 C 
ATOM     13  C   UNL     1       6.531   4.518  15.814  0.00  0.00    +0.000 C 
ATOM     14  C   UNL     1       6.862   5.160  17.153  0.00  0.00    +0.000 C 
ATOM     15  C   UNL     1       5.843   4.532  18.064  0.00  0.00    +0.000 C 
ATOM     16  O   UNL     1       5.964   4.407  19.273  0.00  0.00    +0.000 OA
ENDBRANCH  10  11
ENDBRANCH   3   5
BRANCH   2  17
ATOM     17  C   UNL     1       2.476   8.003  18.069  0.00  0.00    +0.000 C 
BRANCH  17  18
ATOM     18  C   UNL     1       1.674   8.941  18.950  0.00  0.00    +0.000 A 
ATOM     19  C   UNL     1       1.070  10.065  18.365  0.00  0.00    +0.000 A 
ATOM     20  C   UNL     1       0.225  10.900  19.106  0.00  0.00    +0.000 A 
ATOM     21  C   UNL     1      -0.047  10.630  20.452  0.00  0.00    +0.000 A 
ATOM     22  C   UNL     1      -0.912  11.447  21.204  0.00  0.00    +0.000 A 
ATOM     23  C   UNL     1      -1.188  11.155  22.541  0.00  0.00    +0.000 A 
ATOM     24  C   UNL     1      -0.601  10.047  23.140  0.00  0.00    +0.000 A 
ATOM     25  C   UNL     1       0.258   9.223  22.405  0.00  0.00    +0.000 A 
ATOM     26  C   UNL     1       0.548   9.499  21.056  0.00  0.00    +0.000 A 
ATOM     27  C   UNL     1       1.397   8.667  20.296  0.00  0.00    +0.000 A 
ENDBRANCH  17  18
ENDBRANCH   2  17
TORSDOF 4
ENDMDL
MODEL 3
REMARK VINA RESULT:      -8.8      2.084      2.793
REMARK  Name = 
REMARK  4 active torsions:
REMARK  status: ('A' for Active; 'I' for Inactive)
REMARK    1  A    between atoms: C_2  and  C_3
REMARK    2  A    between atoms: C_3  and  C_4
REMARK    3  A    between atoms: N_14  and  C_15
REMARK    4  A    between atoms: C_20  and  N_21
REMARK                            x       y       z     vdW  Elec       q    Type
REMARK                         _______ _______ _______ _____ _____    ______ ____
ROOT
ATOM      1  O   UNL     1       2.457   6.900  19.933  0.00  0.00    +0.000 OA
ATOM      2  C   UNL     1       2.442   7.185  18.736  0.00  0.00    +0.000 C 
ATOM      3  N   UNL     1       2.530   6.272  17.703  0.00  0.00    +0.000 N 
ATOM      4  H   UNL     1       2.880   6.617  16.814  0.00  0.00    +0.000 HD
ENDROOT
BRANCH   3   5
ATOM      5  C   UNL     1       2.594   4.875  17.883  0.00  0.00    +0.000 A 
ATOM      6  C   UNL     1       1.458   4.157  18.273  0.00  0.00    +0.000 A 
ATOM      7  C   UNL     1       1.501   2.764  18.381  0.00  0.00    +0.000 A 
ATOM      8  C   UNL     1       2.691   2.080  18.144  0.00  0.00    +0.000 A 
ATOM      9  C   UNL     1       3.846   2.792  17.820  0.00  0.00    +0.000 A 
ATOM     10  C   UNL     1       3.805   4.185  17.661  0.00  0.00    +0.000 A 
BRANCH  10  11
ATOM     11  N   UNL     1       5.019   4.861  17.415  0.00  0.00    +0.000 N 
ATOM     12  C   UNL     1       5.601   4.893  16.095  0.00  0.00    +0.000 C 
ATOM     13  C   UNL     1       7.068   5.186  16.362  0.00  0.00    +0.000 C 
ATOM     14  C   UNL     1       7.044   5.995  17.649  0.00  0.00    +0.000 C 
ATOM     15  C   UNL     1       5.869   5.399  18.375  0.00  0.00    +0.000 C 
ATOM     16  O   UNL     1       5.707   5.419  19.586  0.00  0.00    +0.000 OA
ENDBRANCH  10  11
ENDBRANCH   3   5
BRANCH   2  17
ATOM     17  C   UNL     1       2.340   8.626  18.258  0.00  0.00    +0.000 C 
BRANCH  17  18
ATOM     18  C   UNL     1       1.020   9.335  18.490  0.00  0.00    +0.000 A 
ATOM     19  C   UNL     1       0.892  10.175  19.607  0.00  0.00    +0.000 A 
ATOM     20  C   UNL     1      -0.262  10.942  19.806  0.00  0.00    +0.000 A 
ATOM     21  C   UNL     1      -1.317  10.898  18.889  0.00  0.00    +0.000 A 
ATOM     22  C   UNL     1      -2.475  11.681  19.064  0.00  0.00    +0.000 A 
ATOM     23  C   UNL     1      -3.512  11.640  18.131  0.00  0.00    +0.000 A 
ATOM     24  C   UNL     1      -3.406  10.815  17.018  0.00  0.00    +0.000 A 
ATOM     25  C   UNL     1      -2.262  10.034  16.828  0.00  0.00    +0.000 A 
ATOM     26  C   UNL     1      -1.204  10.062  17.755  0.00  0.00    +0.000 A 
ATOM     27  C   UNL     1      -0.035   9.295  17.568  0.00  0.00    +0.000 A 
ENDBRANCH  17  18
ENDBRANCH   2  17
TORSDOF 4
ENDMDL
MODEL 4
REMARK VINA RESULT:      -8.7      0.916      1.198
REMARK  Name = 
REMARK  4 active torsions:
REMARK  status: ('A' for Active; 'I' for Inactive)
REMARK    1  A    between atoms: C_2  and  C_3
REMARK    2  A    between atoms: C_3  and  C_4
REMARK    3  A    between atoms: N_14  and  C_15
REMARK    4  A    between atoms: C_20  and  N_21
REMARK                            x       y       z     vdW  Elec       q    Type
REMARK                         _______ _______ _______ _____ _____    ______ ____
ROOT
ATOM      1  O   UNL     1       1.802   5.693  17.701  0.00  0.00    +0.000 OA
ATOM      2  C   UNL     1       2.429   6.477  18.412  0.00  0.00    +0.000 C 
ATOM      3  N   UNL     1       3.106   6.131  19.565  0.00  0.00    +0.000 N 
ATOM      4  H   UNL     1       3.257   6.869  20.248  0.00  0.00    +0.000 HD
ENDROOT
BRANCH   3   5
ATOM      5  C   UNL     1       3.215   4.814  20.057  0.00  0.00    +0.000 A 
ATOM      6  C   UNL     1       2.313   4.337  21.015  0.00  0.00    +0.000 A 
ATOM      7  C   UNL     1       2.375   3.010  21.449  0.00  0.00    +0.000 A 
ATOM      8  C   UNL     1       3.367   2.160  20.965  0.00  0.00    +0.000 A 
ATOM      9  C   UNL     1       4.313   2.645  20.061  0.00  0.00    +0.000 A 
ATOM     10  C   UNL     1       4.233   3.960  19.580  0.00  0.00    +0.000 A 
BRANCH  10  11
ATOM     11  N   UNL     1       5.262   4.421  18.732  0.00  0.00    +0.000 N 
ATOM     12  C   UNL     1       6.336   5.240  19.239  0.00  0.00    +0.000 C 
ATOM     13  C   UNL     1       6.856   5.948  17.999  0.00  0.00    +0.000 C 
ATOM     14  C   UNL     1       6.566   4.966  16.875  0.00  0.00    +0.000 C 
ATOM     15  C   UNL     1       5.293   4.316  17.346  0.00  0.00    +0.000 C 
ATOM     16  O   UNL     1       4.467   3.783  16.621  0.00  0.00    +0.000 OA
ENDBRANCH  10  11
ENDBRANCH   3   5
BRANCH   2  17
ATOM     17  C   UNL     1       2.510   7.961  18.088  0.00  0.00    +0.000 C 
BRANCH  17  18
ATOM     18  C   UNL     1       1.705   8.900  18.965  0.00  0.00    +0.000 A 
ATOM     19  C   UNL     1       1.091  10.015  18.375  0.00  0.00    +0.000 A 
ATOM     20  C   UNL     1       0.243  10.849  19.114  0.00  0.00    +0.000 A 
ATOM     21  C   UNL     1      -0.023  10.586  20.462  0.00  0.00    +0.000 A 
ATOM     22  C   UNL     1      -0.892  11.402  21.211  0.00  0.00    +0.000 A 
ATOM     23  C   UNL     1      -1.161  11.117  22.551  0.00  0.00    +0.000 A 
ATOM     24  C   UNL     1      -0.563  10.018  23.155  0.00  0.00    +0.000 A 
ATOM     25  C   UNL     1       0.298   9.195  22.423  0.00  0.00    +0.000 A 
ATOM     26  C   UNL     1       0.582   9.464  21.071  0.00  0.00    +0.000 A 
ATOM     27  C   UNL     1       1.434   8.633  20.314  0.00  0.00    +0.000 A 
ENDBRANCH  17  18
ENDBRANCH   2  17
TORSDOF 4
ENDMDL
MODEL 5
REMARK VINA RESULT:      -8.6      2.200      2.992
REMARK  Name = 
REMARK  4 active torsions:
REMARK  status: ('A' for Active; 'I' for Inactive)
REMARK    1  A    between atoms: C_2  and  C_3
REMARK    2  A    between atoms: C_3  and  C_4
REMARK    3  A    between atoms: N_14  and  C_15
REMARK    4  A    between atoms: C_20  and  N_21
REMARK                            x       y       z     vdW  Elec       q    Type
REMARK                         _______ _______ _______ _____ _____    ______ ____
ROOT
ATOM      1  O   UNL     1       2.571   6.823  19.905  0.00  0.00    +0.000 OA
ATOM      2  C   UNL     1       2.547   7.085  18.704  0.00  0.00    +0.000 C 
ATOM      3  N   UNL     1       2.612   6.151  17.688  0.00  0.00    +0.000 N 
ATOM      4  H   UNL     1       2.956   6.474  16.788  0.00  0.00    +0.000 HD
ENDROOT
BRANCH   3   5
ATOM      5  C   UNL     1       2.661   4.757  17.895  0.00  0.00    +0.000 A 
ATOM      6  C   UNL     1       1.502   4.047  18.229  0.00  0.00    +0.000 A 
ATOM      7  C   UNL     1       1.534   2.657  18.362  0.00  0.00    +0.000 A 
ATOM      8  C   UNL     1       2.735   1.966  18.209  0.00  0.00    +0.000 A 
ATOM      9  C   UNL     1       3.909   2.671  17.943  0.00  0.00    +0.000 A 
ATOM     10  C   UNL     1       3.882   4.061  17.758  0.00  0.00    +0.000 A 
BRANCH  10  11
ATOM     11  N   UNL     1       5.110   4.730  17.573  0.00  0.00    +0.000 N 
ATOM     12  C   UNL     1       5.839   5.274  18.693  0.00  0.00    +0.000 C 
ATOM     13  C   UNL     1       6.723   6.334  18.059  0.00  0.00    +0.000 C 
ATOM     14  C   UNL     1       6.962   5.809  16.652  0.00  0.00    +0.000 C 
ATOM     15  C   UNL     1       5.667   5.102  16.355  0.00  0.00    +0.000 C 
ATOM     16  O   UNL     1       5.223   4.890  15.237  0.00  0.00    +0.000 OA
ENDBRANCH  10  11
ENDBRANCH   3   5
BRANCH   2  17
ATOM     17  C   UNL     1       2.456   8.517  18.198  0.00  0.00    +0.000 C 
BRANCH  17  18
ATOM     18  C   UNL     1       1.159   9.257  18.457  0.00  0.00    +0.000 A 
ATOM     19  C   UNL     1       1.072  10.098  19.577  0.00  0.00    +0.000 A 
ATOM     20  C   UNL     1      -0.059  10.892  19.799  0.00  0.00    +0.000 A 
ATOM     21  C   UNL     1      -1.133  10.874  18.903  0.00  0.00    +0.000 A 
ATOM     22  C   UNL     1      -2.268  11.684  19.102  0.00  0.00    +0.000 A 
ATOM     23  C   UNL     1      -3.324  11.669  18.189  0.00  0.00    +0.000 A 
ATOM     24  C   UNL     1      -3.259  10.844  17.073  0.00  0.00    +0.000 A 
ATOM     25  C   UNL     1      -2.138  10.037  16.860  0.00  0.00    +0.000 A 
ATOM     26  C   UNL     1      -1.061  10.038  17.766  0.00  0.00    +0.000 A 
ATOM     27  C   UNL     1       0.085   9.244  17.556  0.00  0.00    +0.000 A 
ENDBRANCH  17  18
ENDBRANCH   2  17
TORSDOF 4
ENDMDL
MODEL 6
REMARK VINA RESULT:      -8.5      1.599      2.415
REMARK  Name = 
REMARK  4 active torsions:
REMARK  status: ('A' for Active; 'I' for Inactive)
REMARK    1  A    between atoms: C_2  and  C_3
REMARK    2  A    between atoms: C_3  and  C_4
REMARK    3  A    between atoms: N_14  and  C_15
REMARK    4  A    between atoms: C_20  and  N_21
REMARK                            x       y       z     vdW  Elec       q    Type
REMARK                         _______ _______ _______ _____ _____    ______ ____
ROOT
ATOM      1  O   UNL     1       1.874   6.421  17.608  0.00  0.00    +0.000 OA
ATOM      2  C   UNL     1       2.449   7.114  18.446  0.00  0.00    +0.000 C 
ATOM      3  N   UNL     1       3.137   6.626  19.540  0.00  0.00    +0.000 N 
ATOM      4  H   UNL     1       3.240   7.252  20.334  0.00  0.00    +0.000 HD
ENDROOT
BRANCH   3   5
ATOM      5  C   UNL     1       3.318   5.255  19.816  0.00  0.00    +0.000 A 
ATOM      6  C   UNL     1       2.442   4.582  20.675  0.00  0.00    +0.000 A 
ATOM      7  C   UNL     1       2.577   3.208  20.893  0.00  0.00    +0.000 A 
ATOM      8  C   UNL     1       3.616   2.503  20.290  0.00  0.00    +0.000 A 
ATOM      9  C   UNL     1       4.535   3.177  19.486  0.00  0.00    +0.000 A 
ATOM     10  C   UNL     1       4.383   4.546  19.220  0.00  0.00    +0.000 A 
BRANCH  10  11
ATOM     11  N   UNL     1       5.387   5.192  18.469  0.00  0.00    +0.000 N 
ATOM     12  C   UNL     1       5.250   5.377  17.044  0.00  0.00    +0.000 C 
ATOM     13  C   UNL     1       6.683   5.562  16.572  0.00  0.00    +0.000 C 
ATOM     14  C   UNL     1       7.378   6.188  17.771  0.00  0.00    +0.000 C 
ATOM     15  C   UNL     1       6.649   5.554  18.925  0.00  0.00    +0.000 C 
ATOM     16  O   UNL     1       7.102   5.416  20.051  0.00  0.00    +0.000 OA
ENDBRANCH  10  11
ENDBRANCH   3   5
BRANCH   2  17
ATOM     17  C   UNL     1       2.447   8.634  18.366  0.00  0.00    +0.000 C 
BRANCH  17  18
ATOM     18  C   UNL     1       1.118   9.331  18.578  0.00  0.00    +0.000 A 
ATOM     19  C   UNL     1       0.956  10.149  19.706  0.00  0.00    +0.000 A 
ATOM     20  C   UNL     1      -0.207  10.906  19.890  0.00  0.00    +0.000 A 
ATOM     21  C   UNL     1      -1.239  10.873  18.946  0.00  0.00    +0.000 A 
ATOM     22  C   UNL     1      -2.405  11.647  19.106  0.00  0.00    +0.000 A 
ATOM     23  C   UNL     1      -3.418  11.617  18.147  0.00  0.00    +0.000 A 
ATOM     24  C   UNL     1      -3.279  10.814  17.022  0.00  0.00    +0.000 A 
ATOM     25  C   UNL     1      -2.126  10.043  16.846  0.00  0.00    +0.000 A 
ATOM     26  C   UNL     1      -1.092  10.060  17.800  0.00  0.00    +0.000 A 
ATOM     27  C   UNL     1       0.086   9.303  17.629  0.00  0.00    +0.000 A 
ENDBRANCH  17  18
ENDBRANCH   2  17
TORSDOF 4
ENDMDL
MODEL 7
REMARK VINA RESULT:      -8.5      2.618      4.791
REMARK  Name = 
REMARK  4 active torsions:
REMARK  status: ('A' for Active; 'I' for Inactive)
REMARK    1  A    between atoms: C_2  and  C_3
REMARK    2  A    between atoms: C_3  and  C_4
REMARK    3  A    between atoms: N_14  and  C_15
REMARK    4  A    between atoms: C_20  and  N_21
REMARK                            x       y       z     vdW  Elec       q    Type
REMARK                         _______ _______ _______ _____ _____    ______ ____
ROOT
ATOM      1  O   UNL     1       2.247   9.383  17.335  0.00  0.00    +0.000 OA
ATOM      2  C   UNL     1       1.977   8.853  18.412  0.00  0.00    +0.000 C 
ATOM      3  N   UNL     1       2.411   7.603  18.810  0.00  0.00    +0.000 N 
ATOM      4  H   UNL     1       1.851   7.123  19.508  0.00  0.00    +0.000 HD
ENDROOT
BRANCH   3   5
ATOM      5  C   UNL     1       3.273   6.784  18.051  0.00  0.00    +0.000 A 
ATOM      6  C   UNL     1       4.087   7.338  17.057  0.00  0.00    +0.000 A 
ATOM      7  C   UNL     1       4.993   6.540  16.354  0.00  0.00    +0.000 A 
ATOM      8  C   UNL     1       5.063   5.171  16.608  0.00  0.00    +0.000 A 
ATOM      9  C   UNL     1       4.209   4.597  17.549  0.00  0.00    +0.000 A 
ATOM     10  C   UNL     1       3.329   5.395  18.295  0.00  0.00    +0.000 A 
BRANCH  10  11
ATOM     11  N   UNL     1       2.432   4.750  19.173  0.00  0.00    +0.000 N 
ATOM     12  C   UNL     1       2.643   4.767  20.600  0.00  0.00    +0.000 C 
ATOM     13  C   UNL     1       1.852   3.565  21.089  0.00  0.00    +0.000 C 
ATOM     14  C   UNL     1       0.726   3.439  20.075  0.00  0.00    +0.000 C 
ATOM     15  C   UNL     1       1.389   3.907  18.808  0.00  0.00    +0.000 C 
ATOM     16  O   UNL     1       1.039   3.601  17.678  0.00  0.00    +0.000 OA
ENDBRANCH  10  11
ENDBRANCH   3   5
BRANCH   2  17
ATOM     17  C   UNL     1       1.092   9.538  19.443  0.00  0.00    +0.000 C 
BRANCH  17  18
ATOM     18  C   UNL     1      -0.266  10.018  18.972  0.00  0.00    +0.000 A 
ATOM     19  C   UNL     1      -0.953  10.967  19.744  0.00  0.00    +0.000 A 
ATOM     20  C   UNL     1      -2.155  11.529  19.299  0.00  0.00    +0.000 A 
ATOM     21  C   UNL     1      -2.701  11.165  18.063  0.00  0.00    +0.000 A 
ATOM     22  C   UNL     1      -3.897  11.738  17.591  0.00  0.00    +0.000 A 
ATOM     23  C   UNL     1      -4.420  11.378  16.348  0.00  0.00    +0.000 A 
ATOM     24  C   UNL     1      -3.757  10.440  15.567  0.00  0.00    +0.000 A 
ATOM     25  C   UNL     1      -2.566   9.864  16.019  0.00  0.00    +0.000 A 
ATOM     26  C   UNL     1      -2.020  10.215  17.269  0.00  0.00    +0.000 A 
ATOM     27  C   UNL     1      -0.810   9.657  17.731  0.00  0.00    +0.000 A 
ENDBRANCH  17  18
ENDBRANCH   2  17
TORSDOF 4
ENDMDL
MODEL 8
REMARK VINA RESULT:      -8.5      1.548      3.284
REMARK  Name = 
REMARK  4 active torsions:
REMARK  status: ('A' for Active; 'I' for Inactive)
REMARK    1  A    between atoms: C_2  and  C_3
REMARK    2  A    between atoms: C_3  and  C_4
REMARK    3  A    between atoms: N_14  and  C_15
REMARK    4  A    between atoms: C_20  and  N_21
REMARK                            x       y       z     vdW  Elec       q    Type
REMARK                         _______ _______ _______ _____ _____    ______ ____
ROOT
ATOM      1  O   UNL     1       1.632   5.889  18.066  0.00  0.00    +0.000 OA
ATOM      2  C   UNL     1       2.517   6.140  18.883  0.00  0.00    +0.000 C 
ATOM      3  N   UNL     1       3.873   6.046  18.635  0.00  0.00    +0.000 N 
ATOM      4  H   UNL     1       4.478   5.908  19.439  0.00  0.00    +0.000 HD
ENDROOT
BRANCH   3   5
ATOM      5  C   UNL     1       4.429   5.699  17.387  0.00  0.00    +0.000 A 
ATOM      6  C   UNL     1       4.906   6.690  16.521  0.00  0.00    +0.000 A 
ATOM      7  C   UNL     1       5.523   6.343  15.316  0.00  0.00    +0.000 A 
ATOM      8  C   UNL     1       5.629   5.005  14.943  0.00  0.00    +0.000 A 
ATOM      9  C   UNL     1       5.096   4.013  15.766  0.00  0.00    +0.000 A 
ATOM     10  C   UNL     1       4.518   4.344  17.001  0.00  0.00    +0.000 A 
BRANCH  10  11
ATOM     11  N   UNL     1       3.922   3.309  17.754  0.00  0.00    +0.000 N 
ATOM     12  C   UNL     1       2.680   2.705  17.338  0.00  0.00    +0.000 C 
ATOM     13  C   UNL     1       2.132   2.105  18.622  0.00  0.00    +0.000 C 
ATOM     14  C   UNL     1       3.379   1.778  19.428  0.00  0.00    +0.000 C 
ATOM     15  C   UNL     1       4.319   2.878  19.014  0.00  0.00    +0.000 C 
ATOM     16  O   UNL     1       5.262   3.283  19.678  0.00  0.00    +0.000 OA
ENDBRANCH  10  11
ENDBRANCH   3   5
BRANCH   2  17
ATOM     17  C   UNL     1       2.194   6.579  20.303  0.00  0.00    +0.000 C 
BRANCH  17  18
ATOM     18  C   UNL     1       1.556   7.944  20.472  0.00  0.00    +0.000 A 
ATOM     19  C   UNL     1       1.513   8.811  19.370  0.00  0.00    +0.000 A 
ATOM     20  C   UNL     1       0.834  10.033  19.437  0.00  0.00    +0.000 A 
ATOM     21  C   UNL     1       0.171  10.420  20.607  0.00  0.00    +0.000 A 
ATOM     22  C   UNL     1      -0.535  11.636  20.683  0.00  0.00    +0.000 A 
ATOM     23  C   UNL     1      -1.206  12.001  21.851  0.00  0.00    +0.000 A 
ATOM     24  C   UNL     1      -1.176  11.157  22.955  0.00  0.00    +0.000 A 
ATOM     25  C   UNL     1      -0.483   9.945  22.894  0.00  0.00    +0.000 A 
ATOM     26  C   UNL     1       0.199   9.557  21.726  0.00  0.00    +0.000 A 
ATOM     27  C   UNL     1       0.887   8.329  21.643  0.00  0.00    +0.000 A 
ENDBRANCH  17  18
ENDBRANCH   2  17
TORSDOF 4
ENDMDL
MODEL 9
REMARK VINA RESULT:      -8.4      0.831      1.671
REMARK  Name = 
REMARK  4 active torsions:
REMARK  status: ('A' for Active; 'I' for Inactive)
REMARK    1  A    between atoms: C_2  and  C_3
REMARK    2  A    between atoms: C_3  and  C_4
REMARK    3  A    between atoms: N_14  and  C_15
REMARK    4  A    between atoms: C_20  and  N_21
REMARK                            x       y       z     vdW  Elec       q    Type
REMARK                         _______ _______ _______ _____ _____    ______ ____
ROOT
ATOM      1  O   UNL     1       1.695   6.308  17.957  0.00  0.00    +0.000 OA
ATOM      2  C   UNL     1       2.294   6.942  18.825  0.00  0.00    +0.000 C 
ATOM      3  N   UNL     1       3.100   6.384  19.799  0.00  0.00    +0.000 N 
ATOM      4  H   UNL     1       3.229   6.922  20.651  0.00  0.00    +0.000 HD
ENDROOT
BRANCH   3   5
ATOM      5  C   UNL     1       3.390   5.008  19.896  0.00  0.00    +0.000 A 
ATOM      6  C   UNL     1       2.593   4.168  20.683  0.00  0.00    +0.000 A 
ATOM      7  C   UNL     1       2.836   2.792  20.722  0.00  0.00    +0.000 A 
ATOM      8  C   UNL     1       3.904   2.249  20.012  0.00  0.00    +0.000 A 
ATOM      9  C   UNL     1       4.745   3.086  19.279  0.00  0.00    +0.000 A 
ATOM     10  C   UNL     1       4.484   4.461  19.191  0.00  0.00    +0.000 A 
BRANCH  10  11
ATOM     11  N   UNL     1       5.414   5.271  18.505  0.00  0.00    +0.000 N 
ATOM     12  C   UNL     1       5.209   5.635  17.124  0.00  0.00    +0.000 C 
ATOM     13  C   UNL     1       6.607   5.981  16.638  0.00  0.00    +0.000 C 
ATOM     14  C   UNL     1       7.307   6.488  17.890  0.00  0.00    +0.000 C 
ATOM     15  C   UNL     1       6.667   5.655  18.967  0.00  0.00    +0.000 C 
ATOM     16  O   UNL     1       7.173   5.399  20.050  0.00  0.00    +0.000 OA
ENDBRANCH  10  11
ENDBRANCH   3   5
BRANCH   2  17
ATOM     17  C   UNL     1       2.189   8.457  18.927  0.00  0.00    +0.000 C 
BRANCH  17  18
ATOM     18  C   UNL     1       1.239   9.011  19.969  0.00  0.00    +0.000 A 
ATOM     19  C   UNL     1       1.287   8.492  21.272  0.00  0.00    +0.000 A 
ATOM     20  C   UNL     1       0.515   9.045  22.300  0.00  0.00    +0.000 A 
ATOM     21  C   UNL     1      -0.321  10.140  22.057  0.00  0.00    +0.000 A 
ATOM     22  C   UNL     1      -1.087  10.721  23.087  0.00  0.00    +0.000 A 
ATOM     23  C   UNL     1      -1.903  11.825  22.833  0.00  0.00    +0.000 A 
ATOM     24  C   UNL     1      -1.966  12.355  21.551  0.00  0.00    +0.000 A 
ATOM     25  C   UNL     1      -1.209  11.792  20.519  0.00  0.00    +0.000 A 
ATOM     26  C   UNL     1      -0.379  10.680  20.753  0.00  0.00    +0.000 A 
ATOM     27  C   UNL     1       0.405  10.112  19.727  0.00  0.00    +0.000 A 
ENDBRANCH  17  18
ENDBRANCH   2  17
TORSDOF 4
ENDMDL
