MODEL 1
REMARK VINA RESULT:      -7.9      0.000      0.000
REMARK  Name = 
REMARK  4 active torsions:
REMARK  status: ('A' for Active; 'I' for Inactive)
REMARK    1  A    between atoms: C_2  and  C_4
REMARK    2  A    between atoms: C_7  and  C_9
REMARK    3  A    between atoms: C_12  and  S_13
REMARK    4  A    between atoms: S_13  and  N_16
REMARK                            x       y       z     vdW  Elec       q    Type
REMARK                         _______ _______ _______ _____ _____    ______ ____
ROOT
ATOM      1  C   UNL     1      -1.671  11.520  21.102  0.00  0.00    +0.000 C 
ATOM      2  C   UNL     1      -1.170  11.037  19.757  0.00  0.00    +0.000 C 
ATOM      3  N   UNL     1      -0.065  11.867  19.242  0.00  0.00    +0.000 N 
ATOM      4  C   UNL     1       1.171  11.382  18.751  0.00  0.00    +0.000 C 
ATOM      5  O   UNL     1       2.072  12.087  18.297  0.00  0.00    +0.000 OA
ATOM      6  C   UNL     1      -0.350  13.278  19.378  0.00  0.00    +0.000 A 
ATOM      7  C   UNL     1       0.330  14.276  18.664  0.00  0.00    +0.000 A 
ATOM      8  C   UNL     1       0.013  15.632  18.824  0.00  0.00    +0.000 A 
ATOM      9  C   UNL     1      -0.999  16.021  19.694  0.00  0.00    +0.000 A 
ATOM     10  C   UNL     1      -1.693  15.053  20.409  0.00  0.00    +0.000 A 
ATOM     11  C   UNL     1      -1.367  13.698  20.264  0.00  0.00    +0.000 A 
ATOM     12  O   UNL     1      -2.105  12.870  21.072  0.00  0.00    +0.000 OA
ENDROOT
BRANCH   4  13
ATOM     13  C   UNL     1       1.528   9.930  18.848  0.00  0.00    +0.000 A 
ATOM     14  C   UNL     1       1.319   9.149  19.987  0.00  0.00    +0.000 A 
ATOM     15  C   UNL     1       1.808   7.841  20.050  0.00  0.00    +0.000 A 
ATOM     16  C   UNL     1       2.374   7.254  18.916  0.00  0.00    +0.000 A 
ATOM     17  C   UNL     1       2.515   7.992  17.740  0.00  0.00    +0.000 A 
ATOM     18  C   UNL     1       2.087   9.324  17.709  0.00  0.00    +0.000 A 
BRANCH  16  19
ATOM     19  S   UNL     1       2.940   5.563  18.998  0.00  0.00    +0.000 S 
ATOM     20  O   UNL     1       2.747   4.981  17.688  0.00  0.00    +0.000 OA
ATOM     21  O   UNL     1       4.245   5.580  19.628  0.00  0.00    +0.000 OA
BRANCH  19  22
ATOM     22  N   UNL     1       1.877   4.822  20.079  0.00  0.00    +0.000 NA
ATOM     23  C   UNL     1       2.325   4.481  21.436  0.00  0.00    +0.000 C 
ATOM     24  C   UNL     1       2.315   2.965  21.463  0.00  0.00    +0.000 C 
ATOM     25  C   UNL     1       1.155   2.587  20.557  0.00  0.00    +0.000 C 
ATOM     26  C   UNL     1       0.983   3.754  19.587  0.00  0.00    +0.000 C 
ENDBRANCH  19  22
ENDBRANCH  16  19
ENDBRANCH   4  13
BRANCH   1  28
ATOM     27  N   UNL     1      -1.099  10.355  23.183  0.00  0.00    +0.000 N 
ATOM     28  C   UNL     1      -0.647  11.173  22.190  0.00  0.00    +0.000 C 
ATOM     29  O   UNL     1       0.535  11.506  22.153  0.00  0.00    +0.000 OA
ATOM     30  H   UNL     1      -0.465  10.155  23.945  0.00  0.00    +0.000 HD
ATOM     31  H   UNL     1      -2.087  10.178  23.304  0.00  0.00    +0.000 HD
ENDBRANCH   1  28
TORSDOF 4
ENDMDL
MODEL 2
REMARK VINA RESULT:      -7.9      1.933      3.109
REMARK  Name = 
REMARK  4 active torsions:
REMARK  status: ('A' for Active; 'I' for Inactive)
REMARK    1  A    between atoms: C_2  and  C_4
REMARK    2  A    between atoms: C_7  and  C_9
REMARK    3  A    between atoms: C_12  and  S_13
REMARK    4  A    between atoms: S_13  and  N_16
REMARK                            x       y       z     vdW  Elec       q    Type
REMARK                         _______ _______ _______ _____ _____    ______ ____
ROOT
ATOM      1  C   UNL     1       1.870  13.239  20.343  0.00  0.00    +0.000 C 
ATOM      2  C   UNL     1       1.444  11.852  20.778  0.00  0.00    +0.000 C 
ATOM      3  N   UNL     1       0.113  11.487  20.258  0.00  0.00    +0.000 N 
ATOM      4  C   UNL     1      -0.210  10.284  19.586  0.00  0.00    +0.000 C 
ATOM      5  O   UNL     1      -1.333   9.983  19.184  0.00  0.00    +0.000 OA
ATOM      6  C   UNL     1      -0.840  12.561  20.434  0.00  0.00    +0.000 A 
ATOM      7  C   UNL     1      -2.229  12.378  20.376  0.00  0.00    +0.000 A 
ATOM      8  C   UNL     1      -3.115  13.450  20.562  0.00  0.00    +0.000 A 
ATOM      9  C   UNL     1      -2.630  14.727  20.820  0.00  0.00    +0.000 A 
ATOM     10  C   UNL     1      -1.258  14.935  20.889  0.00  0.00    +0.000 A 
ATOM     11  C   UNL     1      -0.372  13.870  20.687  0.00  0.00    +0.000 A 
ATOM     12  O   UNL     1       0.949  14.243  20.737  0.00  0.00    +0.000 OA
ENDROOT
BRANCH   4  13
ATOM     13  C   UNL     1       0.854   9.299  19.207  0.00  0.00    +0.000 A 
ATOM     14  C   UNL     1       1.467   9.255  17.952  0.00  0.00    +0.000 A 
ATOM     15  C   UNL     1       2.347   8.219  17.629  0.00  0.00    +0.000 A 
ATOM     16  C   UNL     1       2.738   7.305  18.609  0.00  0.00    +0.000 A 
ATOM     17  C   UNL     1       2.201   7.384  19.895  0.00  0.00    +0.000 A 
ATOM     18  C   UNL     1       1.266   8.383  20.190  0.00  0.00    +0.000 A 
BRANCH  16  19
ATOM     19  S   UNL     1       3.908   6.023  18.193  0.00  0.00    +0.000 S 
ATOM     20  O   UNL     1       4.816   6.571  17.209  0.00  0.00    +0.000 OA
ATOM     21  O   UNL     1       4.397   5.471  19.441  0.00  0.00    +0.000 OA
BRANCH  19  22
ATOM     22  N   UNL     1       2.969   4.830  17.456  0.00  0.00    +0.000 NA
ATOM     23  C   UNL     1       1.559   4.665  17.832  0.00  0.00    +0.000 C 
ATOM     24  C   UNL     1       1.510   3.310  18.511  0.00  0.00    +0.000 C 
ATOM     25  C   UNL     1       2.559   2.490  17.779  0.00  0.00    +0.000 C 
ATOM     26  C   UNL     1       3.562   3.497  17.220  0.00  0.00    +0.000 C 
ENDBRANCH  19  22
ENDBRANCH  16  19
ENDBRANCH   4  13
BRANCH   1  28
ATOM     27  N   UNL     1       2.282  14.443  18.247  0.00  0.00    +0.000 N 
ATOM     28  C   UNL     1       2.241  13.224  18.855  0.00  0.00    +0.000 C 
ATOM     29  O   UNL     1       2.584  12.215  18.243  0.00  0.00    +0.000 OA
ATOM     30  H   UNL     1       2.467  14.460  17.252  0.00  0.00    +0.000 HD
ATOM     31  H   UNL     1       1.882  15.260  18.688  0.00  0.00    +0.000 HD
ENDBRANCH   1  28
TORSDOF 4
ENDMDL
MODEL 3
REMARK VINA RESULT:      -7.8      2.176      3.424
REMARK  Name = 
REMARK  4 active torsions:
REMARK  status: ('A' for Active; 'I' for Inactive)
REMARK    1  A    between atoms: C_2  and  C_4
REMARK    2  A    between atoms: C_7  and  C_9
REMARK    3  A    between atoms: C_12  and  S_13
REMARK    4  A    between atoms: S_13  and  N_16
REMARK                            x       y       z     vdW  Elec       q    Type
REMARK                         _______ _______ _______ _____ _____    ______ ____
ROOT
ATOM      1  C   UNL     1      -0.490  11.465  18.542  0.00  0.00    +0.000 C 
ATOM      2  C   UNL     1       0.675  10.981  19.380  0.00  0.00    +0.000 C 
ATOM      3  N   UNL     1       0.235  10.350  20.639  0.00  0.00    +0.000 N 
ATOM      4  C   UNL     1       0.662   9.091  21.124  0.00  0.00    +0.000 C 
ATOM      5  O   UNL     1       0.307   8.592  22.191  0.00  0.00    +0.000 OA
ATOM      6  C   UNL     1      -0.780  11.139  21.302  0.00  0.00    +0.000 A 
ATOM      7  C   UNL     1      -1.113  10.986  22.656  0.00  0.00    +0.000 A 
ATOM      8  C   UNL     1      -2.100  11.780  23.258  0.00  0.00    +0.000 A 
ATOM      9  C   UNL     1      -2.768  12.751  22.522  0.00  0.00    +0.000 A 
ATOM     10  C   UNL     1      -2.453  12.928  21.181  0.00  0.00    +0.000 A 
ATOM     11  C   UNL     1      -1.480  12.125  20.572  0.00  0.00    +0.000 A 
ATOM     12  O   UNL     1      -1.317  12.385  19.234  0.00  0.00    +0.000 OA
ENDROOT
BRANCH   4  13
ATOM     13  C   UNL     1       1.529   8.194  20.295  0.00  0.00    +0.000 A 
ATOM     14  C   UNL     1       1.980   8.512  19.011  0.00  0.00    +0.000 A 
ATOM     15  C   UNL     1       2.666   7.565  18.245  0.00  0.00    +0.000 A 
ATOM     16  C   UNL     1       3.039   6.346  18.815  0.00  0.00    +0.000 A 
ATOM     17  C   UNL     1       2.671   6.043  20.127  0.00  0.00    +0.000 A 
ATOM     18  C   UNL     1       1.923   6.970  20.863  0.00  0.00    +0.000 A 
BRANCH  16  19
ATOM     19  S   UNL     1       3.965   5.173  17.840  0.00  0.00    +0.000 S 
ATOM     20  O   UNL     1       4.360   5.842  16.620  0.00  0.00    +0.000 OA
ATOM     21  O   UNL     1       4.950   4.571  18.719  0.00  0.00    +0.000 OA
BRANCH  19  22
ATOM     22  N   UNL     1       2.842   3.973  17.459  0.00  0.00    +0.000 NA
ATOM     23  C   UNL     1       1.403   4.241  17.594  0.00  0.00    +0.000 C 
ATOM     24  C   UNL     1       0.958   3.330  18.721  0.00  0.00    +0.000 C 
ATOM     25  C   UNL     1       1.842   2.103  18.578  0.00  0.00    +0.000 C 
ATOM     26  C   UNL     1       3.111   2.581  17.874  0.00  0.00    +0.000 C 
ENDBRANCH  19  22
ENDBRANCH  16  19
ENDBRANCH   4  13
BRANCH   1  28
ATOM     27  N   UNL     1      -2.569  10.278  18.009  0.00  0.00    +0.000 N 
ATOM     28  C   UNL     1      -1.209  10.264  17.914  0.00  0.00    +0.000 C 
ATOM     29  O   UNL     1      -0.642   9.382  17.273  0.00  0.00    +0.000 OA
ATOM     30  H   UNL     1      -3.068   9.472  17.656  0.00  0.00    +0.000 HD
ATOM     31  H   UNL     1      -3.042  10.915  18.637  0.00  0.00    +0.000 HD
ENDBRANCH   1  28
TORSDOF 4
ENDMDL
MODEL 4
REMARK VINA RESULT:      -7.8      1.700      3.045
REMARK  Name = 
REMARK  4 active torsions:
REMARK  status: ('A' for Active; 'I' for Inactive)
REMARK    1  A    between atoms: C_2  and  C_4
REMARK    2  A    between atoms: C_7  and  C_9
REMARK    3  A    between atoms: C_12  and  S_13
REMARK    4  A    between atoms: S_13  and  N_16
REMARK                            x       y       z     vdW  Elec       q    Type
REMARK                         _______ _______ _______ _____ _____    ______ ____
ROOT
ATOM      1  C   UNL     1       2.597  13.587  19.789  0.00  0.00    +0.000 C 
ATOM      2  C   UNL     1       2.027  12.367  20.483  0.00  0.00    +0.000 C 
ATOM      3  N   UNL     1       0.602  12.159  20.167  0.00  0.00    +0.000 N 
ATOM      4  C   UNL     1       0.021  10.943  19.733  0.00  0.00    +0.000 C 
ATOM      5  O   UNL     1      -1.176  10.780  19.501  0.00  0.00    +0.000 OA
ATOM      6  C   UNL     1      -0.150  13.391  20.263  0.00  0.00    +0.000 A 
ATOM      7  C   UNL     1      -1.547  13.436  20.377  0.00  0.00    +0.000 A 
ATOM      8  C   UNL     1      -2.232  14.655  20.477  0.00  0.00    +0.000 A 
ATOM      9  C   UNL     1      -1.533  15.858  20.475  0.00  0.00    +0.000 A 
ATOM     10  C   UNL     1      -0.149  15.842  20.370  0.00  0.00    +0.000 A 
ATOM     11  C   UNL     1       0.537  14.626  20.253  0.00  0.00    +0.000 A 
ATOM     12  O   UNL     1       1.894  14.776  20.108  0.00  0.00    +0.000 OA
ENDROOT
BRANCH   4  13
ATOM     13  C   UNL     1       0.870   9.751  19.411  0.00  0.00    +0.000 A 
ATOM     14  C   UNL     1       1.391   9.482  18.143  0.00  0.00    +0.000 A 
ATOM     15  C   UNL     1       2.053   8.277  17.890  0.00  0.00    +0.000 A 
ATOM     16  C   UNL     1       2.333   7.401  18.940  0.00  0.00    +0.000 A 
ATOM     17  C   UNL     1       1.894   7.693  20.233  0.00  0.00    +0.000 A 
ATOM     18  C   UNL     1       1.170   8.868  20.464  0.00  0.00    +0.000 A 
BRANCH  16  19
ATOM     19  S   UNL     1       3.230   5.895  18.607  0.00  0.00    +0.000 S 
ATOM     20  O   UNL     1       3.830   6.031  17.298  0.00  0.00    +0.000 OA
ATOM     21  O   UNL     1       4.038   5.613  19.778  0.00  0.00    +0.000 OA
BRANCH  19  22
ATOM     22  N   UNL     1       2.034   4.707  18.532  0.00  0.00    +0.000 NA
ATOM     23  C   UNL     1       1.462   4.158  19.769  0.00  0.00    +0.000 C 
ATOM     24  C   UNL     1       1.923   2.713  19.783  0.00  0.00    +0.000 C 
ATOM     25  C   UNL     1       1.959   2.321  18.315  0.00  0.00    +0.000 C 
ATOM     26  C   UNL     1       2.165   3.621  17.540  0.00  0.00    +0.000 C 
ENDBRANCH  19  22
ENDBRANCH  16  19
ENDBRANCH   4  13
BRANCH   1  28
ATOM     27  N   UNL     1       2.952  14.392  17.500  0.00  0.00    +0.000 N 
ATOM     28  C   UNL     1       2.772  13.298  18.293  0.00  0.00    +0.000 C 
ATOM     29  O   UNL     1       2.852  12.168  17.817  0.00  0.00    +0.000 OA
ATOM     30  H   UNL     1       3.012  14.238  16.502  0.00  0.00    +0.000 HD
ATOM     31  H   UNL     1       2.761  15.323  17.844  0.00  0.00    +0.000 HD
ENDBRANCH   1  28
TORSDOF 4
ENDMDL
MODEL 5
REMARK VINA RESULT:      -7.8      2.124      3.289
REMARK  Name = 
REMARK  4 active torsions:
REMARK  status: ('A' for Active; 'I' for Inactive)
REMARK    1  A    between atoms: C_2  and  C_4
REMARK    2  A    between atoms: C_7  and  C_9
REMARK    3  A    between atoms: C_12  and  S_13
REMARK    4  A    between atoms: S_13  and  N_16
REMARK                            x       y       z     vdW  Elec       q    Type
REMARK                         _______ _______ _______ _____ _____    ______ ____
ROOT
ATOM      1  C   UNL     1      -0.868  11.679  18.505  0.00  0.00    +0.000 C 
ATOM      2  C   UNL     1       0.293  11.225  19.366  0.00  0.00    +0.000 C 
ATOM      3  N   UNL     1      -0.152  10.682  20.663  0.00  0.00    +0.000 N 
ATOM      4  C   UNL     1       0.253   9.447  21.224  0.00  0.00    +0.000 C 
ATOM      5  O   UNL     1      -0.106   9.023  22.322  0.00  0.00    +0.000 OA
ATOM      6  C   UNL     1      -1.148  11.530  21.281  0.00  0.00    +0.000 A 
ATOM      7  C   UNL     1      -1.476  11.468  22.643  0.00  0.00    +0.000 A 
ATOM      8  C   UNL     1      -2.443  12.317  23.200  0.00  0.00    +0.000 A 
ATOM      9  C   UNL     1      -3.097  13.255  22.408  0.00  0.00    +0.000 A 
ATOM     10  C   UNL     1      -2.786  13.342  21.057  0.00  0.00    +0.000 A 
ATOM     11  C   UNL     1      -1.832  12.483  20.495  0.00  0.00    +0.000 A 
ATOM     12  O   UNL     1      -1.672  12.657  19.143  0.00  0.00    +0.000 OA
ENDROOT
BRANCH   4  13
ATOM     13  C   UNL     1       1.097   8.484  20.447  0.00  0.00    +0.000 A 
ATOM     14  C   UNL     1       1.446   7.209  20.901  0.00  0.00    +0.000 A 
ATOM     15  C   UNL     1       2.353   6.425  20.183  0.00  0.00    +0.000 A 
ATOM     16  C   UNL     1       2.799   6.846  18.929  0.00  0.00    +0.000 A 
ATOM     17  C   UNL     1       2.394   8.081  18.419  0.00  0.00    +0.000 A 
ATOM     18  C   UNL     1       1.541   8.891  19.177  0.00  0.00    +0.000 A 
BRANCH  16  19
ATOM     19  S   UNL     1       3.911   5.804  18.001  0.00  0.00    +0.000 S 
ATOM     20  O   UNL     1       4.404   6.584  16.887  0.00  0.00    +0.000 OA
ATOM     21  O   UNL     1       4.820   5.196  18.953  0.00  0.00    +0.000 OA
BRANCH  19  22
ATOM     22  N   UNL     1       2.923   4.573  17.402  0.00  0.00    +0.000 NA
ATOM     23  C   UNL     1       1.492   4.551  17.733  0.00  0.00    +0.000 C 
ATOM     24  C   UNL     1       1.327   3.318  18.599  0.00  0.00    +0.000 C 
ATOM     25  C   UNL     1       2.346   2.336  18.043  0.00  0.00    +0.000 C 
ATOM     26  C   UNL     1       3.434   3.187  17.391  0.00  0.00    +0.000 C 
ENDBRANCH  19  22
ENDBRANCH  16  19
ENDBRANCH   4  13
BRANCH   1  28
ATOM     27  N   UNL     1      -0.913   9.688  17.075  0.00  0.00    +0.000 N 
ATOM     28  C   UNL     1      -1.614  10.457  17.956  0.00  0.00    +0.000 C 
ATOM     29  O   UNL     1      -2.728  10.104  18.336  0.00  0.00    +0.000 OA
ATOM     30  H   UNL     1      -1.398   8.908  16.651  0.00  0.00    +0.000 HD
ATOM     31  H   UNL     1      -0.058  10.024  16.653  0.00  0.00    +0.000 HD
ENDBRANCH   1  28
TORSDOF 4
ENDMDL
MODEL 6
REMARK VINA RESULT:      -7.8      2.079      3.483
REMARK  Name = 
REMARK  4 active torsions:
REMARK  status: ('A' for Active; 'I' for Inactive)
REMARK    1  A    between atoms: C_2  and  C_4
REMARK    2  A    between atoms: C_7  and  C_9
REMARK    3  A    between atoms: C_12  and  S_13
REMARK    4  A    between atoms: S_13  and  N_16
REMARK                            x       y       z     vdW  Elec       q    Type
REMARK                         _______ _______ _______ _____ _____    ______ ____
ROOT
ATOM      1  C   UNL     1       1.497  12.518  20.182  0.00  0.00    +0.000 C 
ATOM      2  C   UNL     1       1.840  11.244  20.926  0.00  0.00    +0.000 C 
ATOM      3  N   UNL     1       0.637  10.503  21.349  0.00  0.00    +0.000 N 
ATOM      4  C   UNL     1       0.398   9.125  21.133  0.00  0.00    +0.000 C 
ATOM      5  O   UNL     1      -0.599   8.515  21.519  0.00  0.00    +0.000 OA
ATOM      6  C   UNL     1      -0.345  11.380  21.949  0.00  0.00    +0.000 A 
ATOM      7  C   UNL     1      -1.398  10.923  22.754  0.00  0.00    +0.000 A 
ATOM      8  C   UNL     1      -2.322  11.813  23.321  0.00  0.00    +0.000 A 
ATOM      9  C   UNL     1      -2.207  13.181  23.103  0.00  0.00    +0.000 A 
ATOM     10  C   UNL     1      -1.169  13.661  22.314  0.00  0.00    +0.000 A 
ATOM     11  C   UNL     1      -0.255  12.773  21.733  0.00  0.00    +0.000 A 
ATOM     12  O   UNL     1       0.681  13.393  20.943  0.00  0.00    +0.000 OA
ENDROOT
BRANCH   4  13
ATOM     13  C   UNL     1       1.327   8.299  20.297  0.00  0.00    +0.000 A 
ATOM     14  C   UNL     1       1.732   8.644  19.006  0.00  0.00    +0.000 A 
ATOM     15  C   UNL     1       2.486   7.754  18.236  0.00  0.00    +0.000 A 
ATOM     16  C   UNL     1       2.971   6.576  18.809  0.00  0.00    +0.000 A 
ATOM     17  C   UNL     1       2.648   6.253  20.127  0.00  0.00    +0.000 A 
ATOM     18  C   UNL     1       1.833   7.117  20.868  0.00  0.00    +0.000 A 
BRANCH  16  19
ATOM     19  S   UNL     1       3.981   5.479  17.829  0.00  0.00    +0.000 S 
ATOM     20  O   UNL     1       4.314   6.177  16.606  0.00  0.00    +0.000 OA
ATOM     21  O   UNL     1       5.014   4.957  18.701  0.00  0.00    +0.000 OA
BRANCH  19  22
ATOM     22  N   UNL     1       2.953   4.194  17.453  0.00  0.00    +0.000 NA
ATOM     23  C   UNL     1       1.508   4.314  17.687  0.00  0.00    +0.000 C 
ATOM     24  C   UNL     1       1.223   3.315  18.791  0.00  0.00    +0.000 C 
ATOM     25  C   UNL     1       2.208   2.187  18.532  0.00  0.00    +0.000 C 
ATOM     26  C   UNL     1       3.379   2.818  17.780  0.00  0.00    +0.000 C 
ENDBRANCH  19  22
ENDBRANCH  16  19
ENDBRANCH   4  13
BRANCH   1  28
ATOM     27  N   UNL     1       1.938  11.948  17.838  0.00  0.00    +0.000 N 
ATOM     28  C   UNL     1       0.979  12.175  18.780  0.00  0.00    +0.000 C 
ATOM     29  O   UNL     1      -0.208  12.007  18.508  0.00  0.00    +0.000 OA
ATOM     30  H   UNL     1       1.628  11.777  16.891  0.00  0.00    +0.000 HD
ATOM     31  H   UNL     1       2.902  12.206  18.003  0.00  0.00    +0.000 HD
ENDBRANCH   1  28
TORSDOF 4
ENDMDL
MODEL 7
REMARK VINA RESULT:      -7.7      1.136      1.473
REMARK  Name = 
REMARK  4 active torsions:
REMARK  status: ('A' for Active; 'I' for Inactive)
REMARK    1  A    between atoms: C_2  and  C_4
REMARK    2  A    between atoms: C_7  and  C_9
REMARK    3  A    between atoms: C_12  and  S_13
REMARK    4  A    between atoms: S_13  and  N_16
REMARK                            x       y       z     vdW  Elec       q    Type
REMARK                         _______ _______ _______ _____ _____    ______ ____
ROOT
ATOM      1  C   UNL     1      -1.837  11.742  21.290  0.00  0.00    +0.000 C 
ATOM      2  C   UNL     1      -1.309  11.131  20.008  0.00  0.00    +0.000 C 
ATOM      3  N   UNL     1      -0.173  11.891  19.453  0.00  0.00    +0.000 N 
ATOM      4  C   UNL     1       1.066  11.342  19.044  0.00  0.00    +0.000 C 
ATOM      5  O   UNL     1       1.993  11.986  18.556  0.00  0.00    +0.000 OA
ATOM      6  C   UNL     1      -0.432  13.314  19.455  0.00  0.00    +0.000 A 
ATOM      7  C   UNL     1       0.287  14.230  18.675  0.00  0.00    +0.000 A 
ATOM      8  C   UNL     1      -0.006  15.601  18.703  0.00  0.00    +0.000 A 
ATOM      9  C   UNL     1      -1.034  16.085  19.506  0.00  0.00    +0.000 A 
ATOM     10  C   UNL     1      -1.766  15.198  20.284  0.00  0.00    +0.000 A 
ATOM     11  C   UNL     1      -1.464  13.830  20.270  0.00  0.00    +0.000 A 
ATOM     12  O   UNL     1      -2.242  13.091  21.127  0.00  0.00    +0.000 OA
ENDROOT
BRANCH   4  13
ATOM     13  C   UNL     1       1.389   9.898  19.281  0.00  0.00    +0.000 A 
ATOM     14  C   UNL     1       1.125   9.224  20.476  0.00  0.00    +0.000 A 
ATOM     15  C   UNL     1       1.585   7.919  20.670  0.00  0.00    +0.000 A 
ATOM     16  C   UNL     1       2.178   7.224  19.614  0.00  0.00    +0.000 A 
ATOM     17  C   UNL     1       2.374   7.852  18.383  0.00  0.00    +0.000 A 
ATOM     18  C   UNL     1       1.974   9.184  18.220  0.00  0.00    +0.000 A 
BRANCH  16  19
ATOM     19  S   UNL     1       2.706   5.538  19.864  0.00  0.00    +0.000 S 
ATOM     20  O   UNL     1       4.148   5.516  19.747  0.00  0.00    +0.000 OA
ATOM     21  O   UNL     1       2.041   5.055  21.058  0.00  0.00    +0.000 OA
BRANCH  19  22
ATOM     22  N   UNL     1       2.046   4.699  18.556  0.00  0.00    +0.000 NA
ATOM     23  C   UNL     1       1.053   3.641  18.785  0.00  0.00    +0.000 C 
ATOM     24  C   UNL     1       1.757   2.368  18.357  0.00  0.00    +0.000 C 
ATOM     25  C   UNL     1       2.655   2.808  17.213  0.00  0.00    +0.000 C 
ATOM     26  C   UNL     1       2.932   4.293  17.446  0.00  0.00    +0.000 C 
ENDBRANCH  19  22
ENDBRANCH  16  19
ENDBRANCH   4  13
BRANCH   1  28
ATOM     27  N   UNL     1      -0.950  10.250  23.022  0.00  0.00    +0.000 N 
ATOM     28  C   UNL     1      -0.850  11.476  22.434  0.00  0.00    +0.000 C 
ATOM     29  O   UNL     1       0.048  12.248  22.760  0.00  0.00    +0.000 OA
ATOM     30  H   UNL     1      -0.352  10.066  23.817  0.00  0.00    +0.000 HD
ATOM     31  H   UNL     1      -1.754   9.658  22.862  0.00  0.00    +0.000 HD
ENDBRANCH   1  28
TORSDOF 4
ENDMDL
MODEL 8
REMARK VINA RESULT:      -7.7      1.888      2.461
REMARK  Name = 
REMARK  4 active torsions:
REMARK  status: ('A' for Active; 'I' for Inactive)
REMARK    1  A    between atoms: C_2  and  C_4
REMARK    2  A    between atoms: C_7  and  C_9
REMARK    3  A    between atoms: C_12  and  S_13
REMARK    4  A    between atoms: S_13  and  N_16
REMARK                            x       y       z     vdW  Elec       q    Type
REMARK                         _______ _______ _______ _____ _____    ______ ____
ROOT
ATOM      1  C   UNL     1      -0.036   9.521  21.248  0.00  0.00    +0.000 C 
ATOM      2  C   UNL     1       0.009   9.197  19.769  0.00  0.00    +0.000 C 
ATOM      3  N   UNL     1       0.963  10.053  19.038  0.00  0.00    +0.000 N 
ATOM      4  C   UNL     1       1.962   9.599  18.145  0.00  0.00    +0.000 C 
ATOM      5  O   UNL     1       2.731  10.329  17.521  0.00  0.00    +0.000 OA
ATOM      6  C   UNL     1       0.823  11.444  19.411  0.00  0.00    +0.000 A 
ATOM      7  C   UNL     1       1.323  12.503  18.640  0.00  0.00    +0.000 A 
ATOM      8  C   UNL     1       1.156  13.837  19.038  0.00  0.00    +0.000 A 
ATOM      9  C   UNL     1       0.477  14.142  20.212  0.00  0.00    +0.000 A 
ATOM     10  C   UNL     1      -0.034  13.112  20.992  0.00  0.00    +0.000 A 
ATOM     11  C   UNL     1       0.146  11.778  20.605  0.00  0.00    +0.000 A 
ATOM     12  O   UNL     1      -0.370  10.875  21.502  0.00  0.00    +0.000 OA
ENDROOT
BRANCH   4  13
ATOM     13  C   UNL     1       2.237   8.137  17.967  0.00  0.00    +0.000 A 
ATOM     14  C   UNL     1       1.242   7.158  17.895  0.00  0.00    +0.000 A 
ATOM     15  C   UNL     1       1.581   5.803  17.872  0.00  0.00    +0.000 A 
ATOM     16  C   UNL     1       2.921   5.421  17.767  0.00  0.00    +0.000 A 
ATOM     17  C   UNL     1       3.926   6.388  17.751  0.00  0.00    +0.000 A 
ATOM     18  C   UNL     1       3.581   7.741  17.846  0.00  0.00    +0.000 A 
BRANCH  16  19
ATOM     19  S   UNL     1       3.331   3.686  17.680  0.00  0.00    +0.000 S 
ATOM     20  O   UNL     1       2.389   3.065  16.775  0.00  0.00    +0.000 OA
ATOM     21  O   UNL     1       4.760   3.597  17.454  0.00  0.00    +0.000 OA
BRANCH  19  22
ATOM     22  N   UNL     1       3.038   3.113  19.240  0.00  0.00    +0.000 NA
ATOM     23  C   UNL     1       1.860   2.277  19.508  0.00  0.00    +0.000 C 
ATOM     24  C   UNL     1       0.990   3.135  20.406  0.00  0.00    +0.000 C 
ATOM     25  C   UNL     1       1.984   3.936  21.230  0.00  0.00    +0.000 C 
ATOM     26  C   UNL     1       3.257   4.016  20.388  0.00  0.00    +0.000 C 
ENDBRANCH  19  22
ENDBRANCH  16  19
ENDBRANCH   4  13
BRANCH   1  28
ATOM     27  N   UNL     1       1.745   7.845  21.434  0.00  0.00    +0.000 N 
ATOM     28  C   UNL     1       1.241   9.012  21.929  0.00  0.00    +0.000 C 
ATOM     29  O   UNL     1       1.854   9.633  22.793  0.00  0.00    +0.000 OA
ATOM     30  H   UNL     1       2.553   7.454  21.900  0.00  0.00    +0.000 HD
ATOM     31  H   UNL     1       1.195   7.257  20.822  0.00  0.00    +0.000 HD
ENDBRANCH   1  28
TORSDOF 4
ENDMDL
MODEL 9
REMARK VINA RESULT:      -7.7      1.919      2.453
REMARK  Name = 
REMARK  4 active torsions:
REMARK  status: ('A' for Active; 'I' for Inactive)
REMARK    1  A    between atoms: C_2  and  C_4
REMARK    2  A    between atoms: C_7  and  C_9
REMARK    3  A    between atoms: C_12  and  S_13
REMARK    4  A    between atoms: S_13  and  N_16
REMARK                            x       y       z     vdW  Elec       q    Type
REMARK                         _______ _______ _______ _____ _____    ______ ____
ROOT
ATOM      1  C   UNL     1      -1.186  10.662  21.096  0.00  0.00    +0.000 C 
ATOM      2  C   UNL     1      -0.771  10.096  19.754  0.00  0.00    +0.000 C 
ATOM      3  N   UNL     1       0.363  10.830  19.164  0.00  0.00    +0.000 N 
ATOM      4  C   UNL     1       1.545  10.247  18.647  0.00  0.00    +0.000 C 
ATOM      5  O   UNL     1       2.470  10.873  18.131  0.00  0.00    +0.000 OA
ATOM      6  C   UNL     1       0.175  12.262  19.253  0.00  0.00    +0.000 A 
ATOM      7  C   UNL     1       0.888  13.184  18.474  0.00  0.00    +0.000 A 
ATOM      8  C   UNL     1       0.665  14.563  18.589  0.00  0.00    +0.000 A 
ATOM      9  C   UNL     1      -0.284  15.051  19.480  0.00  0.00    +0.000 A 
ATOM     10  C   UNL     1      -1.009  14.159  20.260  0.00  0.00    +0.000 A 
ATOM     11  C   UNL     1      -0.776  12.781  20.159  0.00  0.00    +0.000 A 
ATOM     12  O   UNL     1      -1.533  12.035  21.027  0.00  0.00    +0.000 OA
ENDROOT
BRANCH   4  13
ATOM     13  C   UNL     1       1.811   8.779  18.790  0.00  0.00    +0.000 A 
ATOM     14  C   UNL     1       1.813   8.101  20.011  0.00  0.00    +0.000 A 
ATOM     15  C   UNL     1       2.210   6.763  20.079  0.00  0.00    +0.000 A 
ATOM     16  C   UNL     1       2.461   6.050  18.904  0.00  0.00    +0.000 A 
ATOM     17  C   UNL     1       2.381   6.688  17.666  0.00  0.00    +0.000 A 
ATOM     18  C   UNL     1       2.052   8.048  17.613  0.00  0.00    +0.000 A 
BRANCH  16  19
ATOM     19  S   UNL     1       2.910   4.326  19.007  0.00  0.00    +0.000 S 
ATOM     20  O   UNL     1       2.856   3.949  20.403  0.00  0.00    +0.000 OA
ATOM     21  O   UNL     1       2.130   3.622  18.008  0.00  0.00    +0.000 OA
BRANCH  19  22
ATOM     22  N   UNL     1       4.519   4.286  18.499  0.00  0.00    +0.000 NA
ATOM     23  C   UNL     1       5.499   5.210  19.084  0.00  0.00    +0.000 C 
ATOM     24  C   UNL     1       5.882   6.124  17.936  0.00  0.00    +0.000 C 
ATOM     25  C   UNL     1       5.805   5.231  16.710  0.00  0.00    +0.000 C 
ATOM     26  C   UNL     1       4.811   4.124  17.060  0.00  0.00    +0.000 C 
ENDBRANCH  19  22
ENDBRANCH  16  19
ENDBRANCH   4  13
BRANCH   1  28
ATOM     27  N   UNL     1      -0.563   9.412  23.112  0.00  0.00    +0.000 N 
ATOM     28  C   UNL     1      -0.143  10.291  22.158  0.00  0.00    +0.000 C 
ATOM     29  O   UNL     1       1.029  10.659  22.129  0.00  0.00    +0.000 OA
ATOM     30  H   UNL     1       0.083   9.192  23.859  0.00  0.00    +0.000 HD
ATOM     31  H   UNL     1      -1.545   9.201  23.231  0.00  0.00    +0.000 HD
ENDBRANCH   1  28
TORSDOF 4
ENDMDL
