MODEL 1
REMARK VINA RESULT:      -8.8      0.000      0.000
REMARK  Name = 
REMARK  6 active torsions:
REMARK  status: ('A' for Active; 'I' for Inactive)
REMARK    1  A    between atoms: C_1  and  C_2
REMARK    2  A    between atoms: C_5  and  C_6
REMARK    3  A    between atoms: C_8  and  C_9
REMARK    4  A    between atoms: N_11  and  C_12
REMARK    5  A    between atoms: C_16  and  C_17
REMARK    6  A    between atoms: N_21  and  C_22
REMARK                            x       y       z     vdW  Elec       q    Type
REMARK                         _______ _______ _______ _____ _____    ______ ____
ROOT
ATOM      1  C   UNL     1       1.750   7.732  20.230  0.00  0.00    +0.000 C 
ATOM      2  O   UNL     1       2.165   7.975  19.101  0.00  0.00    +0.000 OA
ATOM      3  N   UNL     1       1.836   6.503  20.869  0.00  0.00    +0.000 N 
ATOM      4  H   UNL     1       1.324   6.409  21.740  0.00  0.00    +0.000 HD
ENDROOT
BRANCH   3   5
ATOM      5  C   UNL     1       2.453   5.341  20.358  0.00  0.00    +0.000 A 
ATOM      6  C   UNL     1       1.870   4.079  20.474  0.00  0.00    +0.000 A 
ATOM      7  C   UNL     1       2.547   2.946  20.045  0.00  0.00    +0.000 A 
ATOM      8  C   UNL     1       3.802   3.071  19.469  0.00  0.00    +0.000 A 
ATOM      9  C   UNL     1       4.367   4.331  19.225  0.00  0.00    +0.000 A 
ATOM     10  C   UNL     1       3.690   5.467  19.705  0.00  0.00    +0.000 A 
BRANCH   9  11
ATOM     11  C   UNL     1       5.643   4.468  18.504  0.00  0.00    +0.000 A 
ATOM     12  N   UNL     1       6.813   4.738  19.071  0.00  0.00    +0.000 NA
ATOM     13  C   UNL     1       7.738   4.772  18.061  0.00  0.00    +0.000 A 
ATOM     14  C   UNL     1       7.140   4.551  16.848  0.00  0.00    +0.000 A 
ATOM     15  N   UNL     1       5.812   4.384  17.132  0.00  0.00    +0.000 N 
ATOM     16  C   UNL     1       4.789   4.228  16.124  0.00  0.00    +0.000 C 
ENDBRANCH   9  11
ENDBRANCH   3   5
BRANCH   1  19
ATOM     17  C   UNL     1      -0.187  10.362  21.834  0.00  0.00    +0.000 A 
ATOM     18  C   UNL     1       0.079   9.622  20.654  0.00  0.00    +0.000 A 
ATOM     19  C   UNL     1       1.082   8.753  20.997  0.00  0.00    +0.000 A 
ATOM     20  O   UNL     1       1.424   8.964  22.296  0.00  0.00    +0.000 OA
ATOM     21  N   UNL     1       0.629   9.962  22.821  0.00  0.00    +0.000 NA
BRANCH  17  26
ATOM     22  C   UNL     1      -4.420  14.219  22.557  0.00  0.00    +0.000 C 
ATOM     23  C   UNL     1      -3.286  13.252  22.391  0.00  0.00    +0.000 A 
ATOM     24  C   UNL     1      -2.895  12.420  23.444  0.00  0.00    +0.000 A 
ATOM     25  C   UNL     1      -1.862  11.496  23.267  0.00  0.00    +0.000 A 
ATOM     26  C   UNL     1      -1.210  11.383  22.032  0.00  0.00    +0.000 A 
ATOM     27  C   UNL     1      -1.589  12.235  20.985  0.00  0.00    +0.000 A 
ATOM     28  C   UNL     1      -2.620  13.161  21.164  0.00  0.00    +0.000 A 
ENDBRANCH  17  26
ENDBRANCH   1  19
TORSDOF 4
ENDMDL
MODEL 2
REMARK VINA RESULT:      -8.8      0.789      1.076
REMARK  Name = 
REMARK  6 active torsions:
REMARK  status: ('A' for Active; 'I' for Inactive)
REMARK    1  A    between atoms: C_1  and  C_2
REMARK    2  A    between atoms: C_5  and  C_6
REMARK    3  A    between atoms: C_8  and  C_9
REMARK    4  A    between atoms: N_11  and  C_12
REMARK    5  A    between atoms: C_16  and  C_17
REMARK    6  A    between atoms: N_21  and  C_22
REMARK                            x       y       z     vdW  Elec       q    Type
REMARK                         _______ _______ _______ _____ _____    ______ ____
ROOT
ATOM      1  C   UNL     1       1.559   7.983  20.250  0.00  0.00    +0.000 C 
ATOM      2  O   UNL     1       1.800   8.286  19.086  0.00  0.00    +0.000 OA
ATOM      3  N   UNL     1       1.744   6.724  20.806  0.00  0.00    +0.000 N 
ATOM      4  H   UNL     1       1.368   6.581  21.737  0.00  0.00    +0.000 HD
ENDROOT
BRANCH   3   5
ATOM      5  C   UNL     1       2.284   5.597  20.151  0.00  0.00    +0.000 A 
ATOM      6  C   UNL     1       1.557   4.420  19.980  0.00  0.00    +0.000 A 
ATOM      7  C   UNL     1       2.150   3.298  19.415  0.00  0.00    +0.000 A 
ATOM      8  C   UNL     1       3.469   3.358  18.991  0.00  0.00    +0.000 A 
ATOM      9  C   UNL     1       4.193   4.558  19.036  0.00  0.00    +0.000 A 
ATOM     10  C   UNL     1       3.595   5.672  19.650  0.00  0.00    +0.000 A 
BRANCH   9  11
ATOM     11  C   UNL     1       5.550   4.650  18.474  0.00  0.00    +0.000 A 
ATOM     12  N   UNL     1       6.641   4.962  19.165  0.00  0.00    +0.000 NA
ATOM     13  C   UNL     1       7.687   4.931  18.280  0.00  0.00    +0.000 A 
ATOM     14  C   UNL     1       7.246   4.627  17.018  0.00  0.00    +0.000 A 
ATOM     15  N   UNL     1       5.891   4.475  17.143  0.00  0.00    +0.000 N 
ATOM     16  C   UNL     1       5.002   4.247  16.027  0.00  0.00    +0.000 C 
ENDBRANCH   9  11
ENDBRANCH   3   5
BRANCH   1  19
ATOM     17  C   UNL     1      -0.063  10.577  22.220  0.00  0.00    +0.000 A 
ATOM     18  C   UNL     1       0.144   9.999  20.943  0.00  0.00    +0.000 A 
ATOM     19  C   UNL     1       1.007   8.956  21.159  0.00  0.00    +0.000 A 
ATOM     20  O   UNL     1       1.326   8.914  22.480  0.00  0.00    +0.000 OA
ATOM     21  N   UNL     1       0.655   9.919  23.144  0.00  0.00    +0.000 NA
BRANCH  17  26
ATOM     22  C   UNL     1      -3.423  14.996  23.801  0.00  0.00    +0.000 C 
ATOM     23  C   UNL     1      -2.570  13.852  23.341  0.00  0.00    +0.000 A 
ATOM     24  C   UNL     1      -1.344  14.081  22.709  0.00  0.00    +0.000 A 
ATOM     25  C   UNL     1      -0.539  13.008  22.318  0.00  0.00    +0.000 A 
ATOM     26  C   UNL     1      -0.945  11.688  22.561  0.00  0.00    +0.000 A 
ATOM     27  C   UNL     1      -2.184  11.461  23.173  0.00  0.00    +0.000 A 
ATOM     28  C   UNL     1      -2.990  12.535  23.561  0.00  0.00    +0.000 A 
ENDBRANCH  17  26
ENDBRANCH   1  19
TORSDOF 4
ENDMDL
MODEL 3
REMARK VINA RESULT:      -8.6      6.335      8.745
REMARK  Name = 
REMARK  6 active torsions:
REMARK  status: ('A' for Active; 'I' for Inactive)
REMARK    1  A    between atoms: C_1  and  C_2
REMARK    2  A    between atoms: C_5  and  C_6
REMARK    3  A    between atoms: C_8  and  C_9
REMARK    4  A    between atoms: N_11  and  C_12
REMARK    5  A    between atoms: C_16  and  C_17
REMARK    6  A    between atoms: N_21  and  C_22
REMARK                            x       y       z     vdW  Elec       q    Type
REMARK                         _______ _______ _______ _____ _____    ______ ____
ROOT
ATOM      1  C   UNL     1       7.921   7.554  18.205  0.00  0.00    +0.000 C 
ATOM      2  O   UNL     1       8.200   6.628  18.959  0.00  0.00    +0.000 OA
ATOM      3  N   UNL     1       7.088   7.464  17.098  0.00  0.00    +0.000 N 
ATOM      4  H   UNL     1       7.063   8.272  16.484  0.00  0.00    +0.000 HD
ENDROOT
BRANCH   3   5
ATOM      5  C   UNL     1       6.382   6.317  16.678  0.00  0.00    +0.000 A 
ATOM      6  C   UNL     1       6.763   5.581  15.557  0.00  0.00    +0.000 A 
ATOM      7  C   UNL     1       5.992   4.513  15.118  0.00  0.00    +0.000 A 
ATOM      8  C   UNL     1       4.848   4.157  15.817  0.00  0.00    +0.000 A 
ATOM      9  C   UNL     1       4.501   4.796  17.015  0.00  0.00    +0.000 A 
ATOM     10  C   UNL     1       5.266   5.903  17.424  0.00  0.00    +0.000 A 
BRANCH   9  11
ATOM     11  C   UNL     1       3.357   4.337  17.820  0.00  0.00    +0.000 A 
ATOM     12  N   UNL     1       2.099   4.724  17.644  0.00  0.00    +0.000 NA
ATOM     13  C   UNL     1       1.352   4.065  18.584  0.00  0.00    +0.000 A 
ATOM     14  C   UNL     1       2.150   3.282  19.376  0.00  0.00    +0.000 A 
ATOM     15  N   UNL     1       3.420   3.477  18.904  0.00  0.00    +0.000 N 
ATOM     16  C   UNL     1       4.601   2.918  19.519  0.00  0.00    +0.000 C 
ENDBRANCH   9  11
ENDBRANCH   3   5
BRANCH   1  19
ATOM     17  C   UNL     1       9.197  10.959  18.356  0.00  0.00    +0.000 A 
ATOM     18  C   UNL     1       8.516   9.969  17.603  0.00  0.00    +0.000 A 
ATOM     19  C   UNL     1       8.497   8.860  18.409  0.00  0.00    +0.000 A 
ATOM     20  O   UNL     1       9.143   9.146  19.570  0.00  0.00    +0.000 OA
ATOM     21  N   UNL     1       9.575  10.456  19.542  0.00  0.00    +0.000 NA
BRANCH  17  26
ATOM     22  C   UNL     1      10.289  16.489  17.111  0.00  0.00    +0.000 C 
ATOM     23  C   UNL     1       9.990  15.044  17.384  0.00  0.00    +0.000 A 
ATOM     24  C   UNL     1      10.936  14.053  17.107  0.00  0.00    +0.000 A 
ATOM     25  C   UNL     1      10.663  12.715  17.400  0.00  0.00    +0.000 A 
ATOM     26  C   UNL     1       9.442  12.348  17.982  0.00  0.00    +0.000 A 
ATOM     27  C   UNL     1       8.487  13.341  18.236  0.00  0.00    +0.000 A 
ATOM     28  C   UNL     1       8.760  14.679  17.940  0.00  0.00    +0.000 A 
ENDBRANCH  17  26
ENDBRANCH   1  19
TORSDOF 4
ENDMDL
MODEL 4
REMARK VINA RESULT:      -8.5      6.341      8.949
REMARK  Name = 
REMARK  6 active torsions:
REMARK  status: ('A' for Active; 'I' for Inactive)
REMARK    1  A    between atoms: C_1  and  C_2
REMARK    2  A    between atoms: C_5  and  C_6
REMARK    3  A    between atoms: C_8  and  C_9
REMARK    4  A    between atoms: N_11  and  C_12
REMARK    5  A    between atoms: C_16  and  C_17
REMARK    6  A    between atoms: N_21  and  C_22
REMARK                            x       y       z     vdW  Elec       q    Type
REMARK                         _______ _______ _______ _____ _____    ______ ____
ROOT
ATOM      1  C   UNL     1       7.834   7.744  18.037  0.00  0.00    +0.000 C 
ATOM      2  O   UNL     1       8.335   6.944  18.821  0.00  0.00    +0.000 OA
ATOM      3  N   UNL     1       6.915   7.427  17.046  0.00  0.00    +0.000 N 
ATOM      4  H   UNL     1       6.696   8.161  16.381  0.00  0.00    +0.000 HD
ENDROOT
BRANCH   3   5
ATOM      5  C   UNL     1       6.362   6.152  16.801  0.00  0.00    +0.000 A 
ATOM      6  C   UNL     1       6.949   5.246  15.918  0.00  0.00    +0.000 A 
ATOM      7  C   UNL     1       6.329   4.038  15.629  0.00  0.00    +0.000 A 
ATOM      8  C   UNL     1       5.128   3.716  16.245  0.00  0.00    +0.000 A 
ATOM      9  C   UNL     1       4.571   4.546  17.227  0.00  0.00    +0.000 A 
ATOM     10  C   UNL     1       5.186   5.786  17.477  0.00  0.00    +0.000 A 
BRANCH   9  11
ATOM     11  C   UNL     1       3.363   4.146  17.966  0.00  0.00    +0.000 A 
ATOM     12  N   UNL     1       2.145   4.632  17.755  0.00  0.00    +0.000 NA
ATOM     13  C   UNL     1       1.312   3.997  18.640  0.00  0.00    +0.000 A 
ATOM     14  C   UNL     1       2.017   3.129  19.432  0.00  0.00    +0.000 A 
ATOM     15  N   UNL     1       3.316   3.246  19.018  0.00  0.00    +0.000 N 
ATOM     16  C   UNL     1       4.426   2.578  19.658  0.00  0.00    +0.000 C 
ENDBRANCH   9  11
ENDBRANCH   3   5
BRANCH   1  19
ATOM     17  C   UNL     1       9.110  11.136  18.363  0.00  0.00    +0.000 A 
ATOM     18  C   UNL     1       9.212   9.776  18.753  0.00  0.00    +0.000 A 
ATOM     19  C   UNL     1       8.211   9.135  18.072  0.00  0.00    +0.000 A 
ATOM     20  O   UNL     1       7.525  10.046  17.333  0.00  0.00    +0.000 OA
ATOM     21  N   UNL     1       8.088  11.293  17.507  0.00  0.00    +0.000 NA
BRANCH  17  26
ATOM     22  C   UNL     1      12.333  15.631  20.013  0.00  0.00    +0.000 C 
ATOM     23  C   UNL     1      11.540  14.436  19.574  0.00  0.00    +0.000 A 
ATOM     24  C   UNL     1      11.271  13.391  20.462  0.00  0.00    +0.000 A 
ATOM     25  C   UNL     1      10.500  12.299  20.055  0.00  0.00    +0.000 A 
ATOM     26  C   UNL     1       9.978  12.241  18.755  0.00  0.00    +0.000 A 
ATOM     27  C   UNL     1      10.270  13.279  17.860  0.00  0.00    +0.000 A 
ATOM     28  C   UNL     1      11.044  14.369  18.268  0.00  0.00    +0.000 A 
ENDBRANCH  17  26
ENDBRANCH   1  19
TORSDOF 4
ENDMDL
MODEL 5
REMARK VINA RESULT:      -8.4      0.544      1.155
REMARK  Name = 
REMARK  6 active torsions:
REMARK  status: ('A' for Active; 'I' for Inactive)
REMARK    1  A    between atoms: C_1  and  C_2
REMARK    2  A    between atoms: C_5  and  C_6
REMARK    3  A    between atoms: C_8  and  C_9
REMARK    4  A    between atoms: N_11  and  C_12
REMARK    5  A    between atoms: C_16  and  C_17
REMARK    6  A    between atoms: N_21  and  C_22
REMARK                            x       y       z     vdW  Elec       q    Type
REMARK                         _______ _______ _______ _____ _____    ______ ____
ROOT
ATOM      1  C   UNL     1       1.826   7.590  20.218  0.00  0.00    +0.000 C 
ATOM      2  O   UNL     1       2.184   7.788  19.062  0.00  0.00    +0.000 OA
ATOM      3  N   UNL     1       1.979   6.398  20.912  0.00  0.00    +0.000 N 
ATOM      4  H   UNL     1       1.508   6.332  21.808  0.00  0.00    +0.000 HD
ENDROOT
BRANCH   3   5
ATOM      5  C   UNL     1       2.613   5.231  20.433  0.00  0.00    +0.000 A 
ATOM      6  C   UNL     1       2.267   3.959  20.887  0.00  0.00    +0.000 A 
ATOM      7  C   UNL     1       2.973   2.841  20.465  0.00  0.00    +0.000 A 
ATOM      8  C   UNL     1       4.016   2.988  19.561  0.00  0.00    +0.000 A 
ATOM      9  C   UNL     1       4.314   4.233  18.992  0.00  0.00    +0.000 A 
ATOM     10  C   UNL     1       3.619   5.362  19.462  0.00  0.00    +0.000 A 
BRANCH   9  11
ATOM     11  C   UNL     1       5.338   4.366  17.943  0.00  0.00    +0.000 A 
ATOM     12  N   UNL     1       5.234   3.880  16.712  0.00  0.00    +0.000 NA
ATOM     13  C   UNL     1       6.388   4.224  16.057  0.00  0.00    +0.000 A 
ATOM     14  C   UNL     1       7.234   4.905  16.891  0.00  0.00    +0.000 A 
ATOM     15  N   UNL     1       6.576   4.971  18.089  0.00  0.00    +0.000 N 
ATOM     16  C   UNL     1       7.153   5.519  19.295  0.00  0.00    +0.000 C 
ENDBRANCH   9  11
ENDBRANCH   3   5
BRANCH   1  19
ATOM     17  C   UNL     1      -0.111  10.255  21.762  0.00  0.00    +0.000 A 
ATOM     18  C   UNL     1       0.160   9.494  20.597  0.00  0.00    +0.000 A 
ATOM     19  C   UNL     1       1.156   8.627  20.963  0.00  0.00    +0.000 A 
ATOM     20  O   UNL     1       1.489   8.858  22.260  0.00  0.00    +0.000 OA
ATOM     21  N   UNL     1       0.695   9.869  22.763  0.00  0.00    +0.000 NA
BRANCH  17  26
ATOM     22  C   UNL     1      -4.333  14.141  22.398  0.00  0.00    +0.000 C 
ATOM     23  C   UNL     1      -3.201  13.167  22.252  0.00  0.00    +0.000 A 
ATOM     24  C   UNL     1      -2.785  12.386  23.334  0.00  0.00    +0.000 A 
ATOM     25  C   UNL     1      -1.756  11.455  23.178  0.00  0.00    +0.000 A 
ATOM     26  C   UNL     1      -1.131  11.284  21.934  0.00  0.00    +0.000 A 
ATOM     27  C   UNL     1      -1.535  12.085  20.858  0.00  0.00    +0.000 A 
ATOM     28  C   UNL     1      -2.563  13.019  21.016  0.00  0.00    +0.000 A 
ENDBRANCH  17  26
ENDBRANCH   1  19
TORSDOF 4
ENDMDL
MODEL 6
REMARK VINA RESULT:      -8.4      6.380      8.799
REMARK  Name = 
REMARK  6 active torsions:
REMARK  status: ('A' for Active; 'I' for Inactive)
REMARK    1  A    between atoms: C_1  and  C_2
REMARK    2  A    between atoms: C_5  and  C_6
REMARK    3  A    between atoms: C_8  and  C_9
REMARK    4  A    between atoms: N_11  and  C_12
REMARK    5  A    between atoms: C_16  and  C_17
REMARK    6  A    between atoms: N_21  and  C_22
REMARK                            x       y       z     vdW  Elec       q    Type
REMARK                         _______ _______ _______ _____ _____    ______ ____
ROOT
ATOM      1  C   UNL     1       8.034   7.725  18.283  0.00  0.00    +0.000 C 
ATOM      2  O   UNL     1       8.431   6.772  18.947  0.00  0.00    +0.000 OA
ATOM      3  N   UNL     1       7.073   7.661  17.284  0.00  0.00    +0.000 N 
ATOM      4  H   UNL     1       6.948   8.496  16.722  0.00  0.00    +0.000 HD
ENDROOT
BRANCH   3   5
ATOM      5  C   UNL     1       6.353   6.511  16.894  0.00  0.00    +0.000 A 
ATOM      6  C   UNL     1       6.318   6.071  15.572  0.00  0.00    +0.000 A 
ATOM      7  C   UNL     1       5.525   4.992  15.206  0.00  0.00    +0.000 A 
ATOM      8  C   UNL     1       4.782   4.327  16.171  0.00  0.00    +0.000 A 
ATOM      9  C   UNL     1       4.886   4.664  17.527  0.00  0.00    +0.000 A 
ATOM     10  C   UNL     1       5.658   5.786  17.876  0.00  0.00    +0.000 A 
BRANCH   9  11
ATOM     11  C   UNL     1       4.192   3.880  18.562  0.00  0.00    +0.000 A 
ATOM     12  N   UNL     1       4.788   3.074  19.434  0.00  0.00    +0.000 NA
ATOM     13  C   UNL     1       3.797   2.546  20.219  0.00  0.00    +0.000 A 
ATOM     14  C   UNL     1       2.567   3.001  19.819  0.00  0.00    +0.000 A 
ATOM     15  N   UNL     1       2.821   3.824  18.756  0.00  0.00    +0.000 N 
ATOM     16  C   UNL     1       1.791   4.444  17.955  0.00  0.00    +0.000 C 
ENDBRANCH   9  11
ENDBRANCH   3   5
BRANCH   1  19
ATOM     17  C   UNL     1       9.329  11.124  18.397  0.00  0.00    +0.000 A 
ATOM     18  C   UNL     1       8.757  10.087  17.617  0.00  0.00    +0.000 A 
ATOM     19  C   UNL     1       8.593   9.039  18.484  0.00  0.00    +0.000 A 
ATOM     20  O   UNL     1       9.056   9.402  19.710  0.00  0.00    +0.000 OA
ATOM     21  N   UNL     1       9.508  10.704  19.659  0.00  0.00    +0.000 NA
BRANCH  17  26
ATOM     22  C   UNL     1      10.764  16.519  16.929  0.00  0.00    +0.000 C 
ATOM     23  C   UNL     1      10.369  15.111  17.261  0.00  0.00    +0.000 A 
ATOM     24  C   UNL     1      11.179  14.033  16.890  0.00  0.00    +0.000 A 
ATOM     25  C   UNL     1      10.822  12.728  17.238  0.00  0.00    +0.000 A 
ATOM     26  C   UNL     1       9.652  12.481  17.971  0.00  0.00    +0.000 A 
ATOM     27  C   UNL     1       8.831  13.561  18.321  0.00  0.00    +0.000 A 
ATOM     28  C   UNL     1       9.187  14.865  17.970  0.00  0.00    +0.000 A 
ENDBRANCH  17  26
ENDBRANCH   1  19
TORSDOF 4
ENDMDL
MODEL 7
REMARK VINA RESULT:      -8.3      6.419      8.855
REMARK  Name = 
REMARK  6 active torsions:
REMARK  status: ('A' for Active; 'I' for Inactive)
REMARK    1  A    between atoms: C_1  and  C_2
REMARK    2  A    between atoms: C_5  and  C_6
REMARK    3  A    between atoms: C_8  and  C_9
REMARK    4  A    between atoms: N_11  and  C_12
REMARK    5  A    between atoms: C_16  and  C_17
REMARK    6  A    between atoms: N_21  and  C_22
REMARK                            x       y       z     vdW  Elec       q    Type
REMARK                         _______ _______ _______ _____ _____    ______ ____
ROOT
ATOM      1  C   UNL     1       7.743   7.631  17.946  0.00  0.00    +0.000 C 
ATOM      2  O   UNL     1       8.335   6.807  18.636  0.00  0.00    +0.000 OA
ATOM      3  N   UNL     1       6.706   7.343  17.068  0.00  0.00    +0.000 N 
ATOM      4  H   UNL     1       6.408   8.097  16.458  0.00  0.00    +0.000 HD
ENDROOT
BRANCH   3   5
ATOM      5  C   UNL     1       6.124   6.076  16.855  0.00  0.00    +0.000 A 
ATOM      6  C   UNL     1       6.373   5.329  15.704  0.00  0.00    +0.000 A 
ATOM      7  C   UNL     1       5.711   4.129  15.483  0.00  0.00    +0.000 A 
ATOM      8  C   UNL     1       4.814   3.654  16.428  0.00  0.00    +0.000 A 
ATOM      9  C   UNL     1       4.629   4.315  17.650  0.00  0.00    +0.000 A 
ATOM     10  C   UNL     1       5.272   5.551  17.841  0.00  0.00    +0.000 A 
BRANCH   9  11
ATOM     11  C   UNL     1       3.770   3.746  18.701  0.00  0.00    +0.000 A 
ATOM     12  N   UNL     1       4.207   3.065  19.755  0.00  0.00    +0.000 NA
ATOM     13  C   UNL     1       3.099   2.722  20.486  0.00  0.00    +0.000 A 
ATOM     14  C   UNL     1       1.957   3.166  19.871  0.00  0.00    +0.000 A 
ATOM     15  N   UNL     1       2.386   3.791  18.732  0.00  0.00    +0.000 N 
ATOM     16  C   UNL     1       1.498   4.321  17.723  0.00  0.00    +0.000 C 
ENDBRANCH   9  11
ENDBRANCH   3   5
BRANCH   1  19
ATOM     17  C   UNL     1       9.026  11.020  18.269  0.00  0.00    +0.000 A 
ATOM     18  C   UNL     1       9.115   9.664  18.672  0.00  0.00    +0.000 A 
ATOM     19  C   UNL     1       8.125   9.020  17.977  0.00  0.00    +0.000 A 
ATOM     20  O   UNL     1       7.458   9.927  17.215  0.00  0.00    +0.000 OA
ATOM     21  N   UNL     1       8.024  11.174  17.390  0.00  0.00    +0.000 NA
BRANCH  17  26
ATOM     22  C   UNL     1      12.333  15.388  20.088  0.00  0.00    +0.000 C 
ATOM     23  C   UNL     1      11.505  14.248  19.572  0.00  0.00    +0.000 A 
ATOM     24  C   UNL     1      11.881  12.924  19.814  0.00  0.00    +0.000 A 
ATOM     25  C   UNL     1      11.083  11.870  19.362  0.00  0.00    +0.000 A 
ATOM     26  C   UNL     1       9.892  12.125  18.668  0.00  0.00    +0.000 A 
ATOM     27  C   UNL     1       9.530  13.453  18.407  0.00  0.00    +0.000 A 
ATOM     28  C   UNL     1      10.331  14.506  18.856  0.00  0.00    +0.000 A 
ENDBRANCH  17  26
ENDBRANCH   1  19
TORSDOF 4
ENDMDL
MODEL 8
REMARK VINA RESULT:      -8.3      1.266      1.797
REMARK  Name = 
REMARK  6 active torsions:
REMARK  status: ('A' for Active; 'I' for Inactive)
REMARK    1  A    between atoms: C_1  and  C_2
REMARK    2  A    between atoms: C_5  and  C_6
REMARK    3  A    between atoms: C_8  and  C_9
REMARK    4  A    between atoms: N_11  and  C_12
REMARK    5  A    between atoms: C_16  and  C_17
REMARK    6  A    between atoms: N_21  and  C_22
REMARK                            x       y       z     vdW  Elec       q    Type
REMARK                         _______ _______ _______ _____ _____    ______ ____
ROOT
ATOM      1  C   UNL     1       1.281   8.334  20.562  0.00  0.00    +0.000 C 
ATOM      2  O   UNL     1       1.565   8.691  19.423  0.00  0.00    +0.000 OA
ATOM      3  N   UNL     1       1.479   7.060  21.076  0.00  0.00    +0.000 N 
ATOM      4  H   UNL     1       1.066   6.869  21.982  0.00  0.00    +0.000 HD
ENDROOT
BRANCH   3   5
ATOM      5  C   UNL     1       2.081   5.976  20.403  0.00  0.00    +0.000 A 
ATOM      6  C   UNL     1       1.684   4.656  20.618  0.00  0.00    +0.000 A 
ATOM      7  C   UNL     1       2.360   3.607  20.011  0.00  0.00    +0.000 A 
ATOM      8  C   UNL     1       3.422   3.874  19.159  0.00  0.00    +0.000 A 
ATOM      9  C   UNL     1       3.771   5.189  18.825  0.00  0.00    +0.000 A 
ATOM     10  C   UNL     1       3.107   6.241  19.481  0.00  0.00    +0.000 A 
BRANCH   9  11
ATOM     11  C   UNL     1       4.817   5.469  17.828  0.00  0.00    +0.000 A 
ATOM     12  N   UNL     1       4.618   5.548  16.517  0.00  0.00    +0.000 NA
ATOM     13  C   UNL     1       5.835   5.830  15.953  0.00  0.00    +0.000 A 
ATOM     14  C   UNL     1       6.810   5.898  16.913  0.00  0.00    +0.000 A 
ATOM     15  N   UNL     1       6.166   5.646  18.093  0.00  0.00    +0.000 N 
ATOM     16  C   UNL     1       6.839   5.517  19.365  0.00  0.00    +0.000 C 
ENDBRANCH   9  11
ENDBRANCH   3   5
BRANCH   1  19
ATOM     17  C   UNL     1      -0.449  10.846  22.547  0.00  0.00    +0.000 A 
ATOM     18  C   UNL     1      -0.081  10.385  21.258  0.00  0.00    +0.000 A 
ATOM     19  C   UNL     1       0.660   9.254  21.482  0.00  0.00    +0.000 A 
ATOM     20  O   UNL     1       0.759   9.049  22.822  0.00  0.00    +0.000 OA
ATOM     21  N   UNL     1       0.062  10.037  23.488  0.00  0.00    +0.000 NA
BRANCH  17  26
ATOM     22  C   UNL     1      -3.684  15.370  24.089  0.00  0.00    +0.000 C 
ATOM     23  C   UNL     1      -2.858  14.203  23.638  0.00  0.00    +0.000 A 
ATOM     24  C   UNL     1      -1.565  14.390  23.142  0.00  0.00    +0.000 A 
ATOM     25  C   UNL     1      -0.790  13.292  22.760  0.00  0.00    +0.000 A 
ATOM     26  C   UNL     1      -1.294  11.989  22.875  0.00  0.00    +0.000 A 
ATOM     27  C   UNL     1      -2.599  11.807  23.350  0.00  0.00    +0.000 A 
ATOM     28  C   UNL     1      -3.375  12.906  23.729  0.00  0.00    +0.000 A 
ENDBRANCH  17  26
ENDBRANCH   1  19
TORSDOF 4
ENDMDL
MODEL 9
REMARK VINA RESULT:      -8.2      3.055     10.170
REMARK  Name = 
REMARK  6 active torsions:
REMARK  status: ('A' for Active; 'I' for Inactive)
REMARK    1  A    between atoms: C_1  and  C_2
REMARK    2  A    between atoms: C_5  and  C_6
REMARK    3  A    between atoms: C_8  and  C_9
REMARK    4  A    between atoms: N_11  and  C_12
REMARK    5  A    between atoms: C_16  and  C_17
REMARK    6  A    between atoms: N_21  and  C_22
REMARK                            x       y       z     vdW  Elec       q    Type
REMARK                         _______ _______ _______ _____ _____    ______ ____
ROOT
ATOM      1  C   UNL     1       1.288   8.556  20.022  0.00  0.00    +0.000 C 
ATOM      2  O   UNL     1       0.915   8.493  21.190  0.00  0.00    +0.000 OA
ATOM      3  N   UNL     1       0.921   9.541  19.115  0.00  0.00    +0.000 N 
ATOM      4  H   UNL     1       1.189   9.388  18.149  0.00  0.00    +0.000 HD
ENDROOT
BRANCH   3   5
ATOM      5  C   UNL     1       0.102  10.658  19.385  0.00  0.00    +0.000 A 
ATOM      6  C   UNL     1       0.550  11.740  20.143  0.00  0.00    +0.000 A 
ATOM      7  C   UNL     1      -0.310  12.779  20.468  0.00  0.00    +0.000 A 
ATOM      8  C   UNL     1      -1.621  12.756  20.013  0.00  0.00    +0.000 A 
ATOM      9  C   UNL     1      -2.071  11.747  19.150  0.00  0.00    +0.000 A 
ATOM     10  C   UNL     1      -1.202  10.679  18.865  0.00  0.00    +0.000 A 
BRANCH   9  11
ATOM     11  C   UNL     1      -3.423  11.789  18.570  0.00  0.00    +0.000 A 
ATOM     12  N   UNL     1      -4.536  12.041  19.249  0.00  0.00    +0.000 NA
ATOM     13  C   UNL     1      -5.565  11.994  18.346  0.00  0.00    +0.000 A 
ATOM     14  C   UNL     1      -5.099  11.681  17.096  0.00  0.00    +0.000 A 
ATOM     15  N   UNL     1      -3.748  11.528  17.248  0.00  0.00    +0.000 N 
ATOM     16  C   UNL     1      -2.864  11.090  16.192  0.00  0.00    +0.000 C 
ENDBRANCH   9  11
ENDBRANCH   3   5
BRANCH   1  19
ATOM     17  C   UNL     1       3.464   6.212  18.288  0.00  0.00    +0.000 A 
ATOM     18  C   UNL     1       2.635   7.359  18.207  0.00  0.00    +0.000 A 
ATOM     19  C   UNL     1       2.154   7.541  19.477  0.00  0.00    +0.000 A 
ATOM     20  O   UNL     1       2.637   6.555  20.278  0.00  0.00    +0.000 OA
ATOM     21  N   UNL     1       3.461   5.729  19.540  0.00  0.00    +0.000 NA
BRANCH  17  26
ATOM     22  C   UNL     1       6.432   3.882  13.919  0.00  0.00    +0.000 C 
ATOM     23  C   UNL     1       5.707   4.493  15.081  0.00  0.00    +0.000 A 
ATOM     24  C   UNL     1       5.628   5.881  15.227  0.00  0.00    +0.000 A 
ATOM     25  C   UNL     1       4.917   6.440  16.292  0.00  0.00    +0.000 A 
ATOM     26  C   UNL     1       4.268   5.618  17.224  0.00  0.00    +0.000 A 
ATOM     27  C   UNL     1       4.369   4.228  17.089  0.00  0.00    +0.000 A 
ATOM     28  C   UNL     1       5.082   3.669  16.025  0.00  0.00    +0.000 A 
ENDBRANCH  17  26
ENDBRANCH   1  19
TORSDOF 4
ENDMDL
