MODEL 1
REMARK VINA RESULT:      -8.1      0.000      0.000
REMARK  Name = 
REMARK  3 active torsions:
REMARK  status: ('A' for Active; 'I' for Inactive)
REMARK    1  A    between atoms: C_2  and  C_3
REMARK    2  A    between atoms: C_6  and  N_7
REMARK    3  A    between atoms: C_17  and  C_18
REMARK                            x       y       z     vdW  Elec       q    Type
REMARK                         _______ _______ _______ _____ _____    ______ ____
ROOT
ATOM      1  O   UNL     1       5.107   2.903  19.944  0.00  0.00    +0.000 OA
ATOM      2  C   UNL     1       4.390   3.417  19.082  0.00  0.00    +0.000 C 
ATOM      3  N   UNL     1       3.027   3.636  19.282  0.00  0.00    +0.000 N 
ATOM      4  C   UNL     1       2.074   4.211  18.335  0.00  0.00    +0.000 C 
ATOM      5  C   UNL     1       1.689   5.568  18.835  0.00  0.00    +0.000 C 
ATOM      6  C   UNL     1       1.826   5.953  20.123  0.00  0.00    +0.000 C 
ATOM      7  C   UNL     1       2.341   5.022  21.190  0.00  0.00    +0.000 C 
ATOM      8  C   UNL     1       2.515   3.592  20.653  0.00  0.00    +0.000 C 
ENDROOT
BRANCH   6   9
ATOM      9  C   UNL     1       1.543   7.284  20.536  0.00  0.00    +0.000 A 
ATOM     10  C   UNL     1       0.883   7.628  21.694  0.00  0.00    +0.000 A 
ATOM     11  N   UNL     1       0.661   8.981  21.636  0.00  0.00    +0.000 N 
ATOM     12  C   UNL     1       0.834   9.405  20.337  0.00  0.00    +0.000 A 
ATOM     13  C   UNL     1       0.352  10.527  19.658  0.00  0.00    +0.000 A 
ATOM     14  C   UNL     1       0.784  10.707  18.339  0.00  0.00    +0.000 A 
ATOM     15  C   UNL     1       1.744   9.865  17.774  0.00  0.00    +0.000 A 
ATOM     16  C   UNL     1       2.186   8.731  18.458  0.00  0.00    +0.000 A 
ATOM     17  C   UNL     1       1.634   8.447  19.721  0.00  0.00    +0.000 A 
ATOM     18  H   UNL     1       0.312   9.554  22.389  0.00  0.00    +0.000 HD
ENDBRANCH   6   9
BRANCH   2  19
ATOM     19  C   UNL     1       5.063   3.797  17.806  0.00  0.00    +0.000 A 
ATOM     20  C   UNL     1       4.483   3.390  16.599  0.00  0.00    +0.000 A 
ATOM     21  C   UNL     1       5.094   3.681  15.381  0.00  0.00    +0.000 A 
ATOM     22  C   UNL     1       6.308   4.396  15.351  0.00  0.00    +0.000 A 
ATOM     23  C   UNL     1       6.903   4.769  16.560  0.00  0.00    +0.000 A 
ATOM     24  C   UNL     1       6.308   4.434  17.779  0.00  0.00    +0.000 A 
BRANCH  22  25
ATOM     25  N   UNL     1       6.969   4.710  14.140  0.00  0.00    +0.000 N 
ATOM     26  C   UNL     1       6.722   4.253  12.867  0.00  0.00    +0.000 A 
ATOM     27  N   UNL     1       7.576   4.767  12.013  0.00  0.00    +0.000 NA
ATOM     28  C   UNL     1       8.346   5.560  12.806  0.00  0.00    +0.000 A 
ATOM     29  N   UNL     1       8.010   5.576  14.096  0.00  0.00    +0.000 NA
ENDBRANCH  22  25
ENDBRANCH   2  19
TORSDOF 3
ENDMDL
MODEL 2
REMARK VINA RESULT:      -8.0      3.516      6.476
REMARK  Name = 
REMARK  3 active torsions:
REMARK  status: ('A' for Active; 'I' for Inactive)
REMARK    1  A    between atoms: C_2  and  C_3
REMARK    2  A    between atoms: C_6  and  N_7
REMARK    3  A    between atoms: C_17  and  C_18
REMARK                            x       y       z     vdW  Elec       q    Type
REMARK                         _______ _______ _______ _____ _____    ______ ____
ROOT
ATOM      1  O   UNL     1       1.252   8.985  22.385  0.00  0.00    +0.000 OA
ATOM      2  C   UNL     1       0.947   8.968  21.191  0.00  0.00    +0.000 C 
ATOM      3  N   UNL     1       0.118   9.934  20.621  0.00  0.00    +0.000 N 
ATOM      4  C   UNL     1      -0.331  10.008  19.232  0.00  0.00    +0.000 C 
ATOM      5  C   UNL     1       0.356  11.170  18.586  0.00  0.00    +0.000 C 
ATOM      6  C   UNL     1       0.891  12.198  19.281  0.00  0.00    +0.000 C 
ATOM      7  C   UNL     1       0.799  12.289  20.782  0.00  0.00    +0.000 C 
ATOM      8  C   UNL     1      -0.097  11.181  21.359  0.00  0.00    +0.000 C 
ENDROOT
BRANCH   6   9
ATOM      9  C   UNL     1       1.623  13.231  18.634  0.00  0.00    +0.000 A 
ATOM     10  C   UNL     1       2.925  13.123  18.199  0.00  0.00    +0.000 A 
ATOM     11  N   UNL     1       3.312  14.376  17.794  0.00  0.00    +0.000 N 
ATOM     12  C   UNL     1       2.428  15.301  18.303  0.00  0.00    +0.000 A 
ATOM     13  C   UNL     1       2.562  16.669  18.553  0.00  0.00    +0.000 A 
ATOM     14  C   UNL     1       1.426  17.347  19.010  0.00  0.00    +0.000 A 
ATOM     15  C   UNL     1       0.190  16.705  19.097  0.00  0.00    +0.000 A 
ATOM     16  C   UNL     1       0.086  15.330  18.875  0.00  0.00    +0.000 A 
ATOM     17  C   UNL     1       1.254  14.605  18.576  0.00  0.00    +0.000 A 
ATOM     18  H   UNL     1       4.168  14.601  17.308  0.00  0.00    +0.000 HD
ENDBRANCH   6   9
BRANCH   2  19
ATOM     19  C   UNL     1       1.516   7.852  20.382  0.00  0.00    +0.000 A 
ATOM     20  C   UNL     1       1.458   6.554  20.902  0.00  0.00    +0.000 A 
ATOM     21  C   UNL     1       2.014   5.481  20.206  0.00  0.00    +0.000 A 
ATOM     22  C   UNL     1       2.639   5.693  18.962  0.00  0.00    +0.000 A 
ATOM     23  C   UNL     1       2.727   6.997  18.462  0.00  0.00    +0.000 A 
ATOM     24  C   UNL     1       2.208   8.073  19.186  0.00  0.00    +0.000 A 
BRANCH  22  25
ATOM     25  N   UNL     1       3.223   4.638  18.220  0.00  0.00    +0.000 N 
ATOM     26  C   UNL     1       2.991   3.286  18.298  0.00  0.00    +0.000 A 
ATOM     27  N   UNL     1       3.753   2.633  17.453  0.00  0.00    +0.000 NA
ATOM     28  C   UNL     1       4.450   3.633  16.849  0.00  0.00    +0.000 A 
ATOM     29  N   UNL     1       4.154   4.865  17.264  0.00  0.00    +0.000 NA
ENDBRANCH  22  25
ENDBRANCH   2  19
TORSDOF 3
ENDMDL
MODEL 3
REMARK VINA RESULT:      -8.0      4.244      7.720
REMARK  Name = 
REMARK  3 active torsions:
REMARK  status: ('A' for Active; 'I' for Inactive)
REMARK    1  A    between atoms: C_2  and  C_3
REMARK    2  A    between atoms: C_6  and  N_7
REMARK    3  A    between atoms: C_17  and  C_18
REMARK                            x       y       z     vdW  Elec       q    Type
REMARK                         _______ _______ _______ _____ _____    ______ ____
ROOT
ATOM      1  O   UNL     1       2.373  11.058  17.852  0.00  0.00    +0.000 OA
ATOM      2  C   UNL     1       1.592  10.556  18.663  0.00  0.00    +0.000 C 
ATOM      3  N   UNL     1       0.588  11.297  19.287  0.00  0.00    +0.000 N 
ATOM      4  C   UNL     1      -0.377  10.824  20.276  0.00  0.00    +0.000 C 
ATOM      5  C   UNL     1      -1.725  10.789  19.626  0.00  0.00    +0.000 C 
ATOM      6  C   UNL     1      -2.037  11.502  18.522  0.00  0.00    +0.000 C 
ATOM      7  C   UNL     1      -1.059  12.444  17.869  0.00  0.00    +0.000 C 
ATOM      8  C   UNL     1       0.224  12.591  18.705  0.00  0.00    +0.000 C 
ENDROOT
BRANCH   6   9
ATOM      9  C   UNL     1      -3.297  11.362  17.878  0.00  0.00    +0.000 A 
ATOM     10  C   UNL     1      -3.478  10.944  16.579  0.00  0.00    +0.000 A 
ATOM     11  N   UNL     1      -4.810  11.110  16.292  0.00  0.00    +0.000 N 
ATOM     12  C   UNL     1      -5.367  11.946  17.233  0.00  0.00    +0.000 A 
ATOM     13  C   UNL     1      -6.509  12.750  17.197  0.00  0.00    +0.000 A 
ATOM     14  C   UNL     1      -6.846  13.431  18.373  0.00  0.00    +0.000 A 
ATOM     15  C   UNL     1      -6.138  13.219  19.557  0.00  0.00    +0.000 A 
ATOM     16  C   UNL     1      -4.981  12.437  19.562  0.00  0.00    +0.000 A 
ATOM     17  C   UNL     1      -4.536  11.881  18.349  0.00  0.00    +0.000 A 
ATOM     18  H   UNL     1      -5.280  10.778  15.463  0.00  0.00    +0.000 HD
ENDBRANCH   6   9
BRANCH   2  19
ATOM     19  C   UNL     1       1.779   9.103  18.944  0.00  0.00    +0.000 A 
ATOM     20  C   UNL     1       1.547   8.640  20.244  0.00  0.00    +0.000 A 
ATOM     21  C   UNL     1       1.749   7.299  20.569  0.00  0.00    +0.000 A 
ATOM     22  C   UNL     1       2.187   6.391  19.586  0.00  0.00    +0.000 A 
ATOM     23  C   UNL     1       2.452   6.864  18.297  0.00  0.00    +0.000 A 
ATOM     24  C   UNL     1       2.291   8.218  17.989  0.00  0.00    +0.000 A 
BRANCH  22  25
ATOM     25  N   UNL     1       2.411   5.022  19.869  0.00  0.00    +0.000 N 
ATOM     26  C   UNL     1       2.185   4.323  21.030  0.00  0.00    +0.000 A 
ATOM     27  N   UNL     1       2.548   3.069  20.898  0.00  0.00    +0.000 NA
ATOM     28  C   UNL     1       2.994   3.024  19.614  0.00  0.00    +0.000 A 
ATOM     29  N   UNL     1       2.916   4.173  18.942  0.00  0.00    +0.000 NA
ENDBRANCH  22  25
ENDBRANCH   2  19
TORSDOF 3
ENDMDL
MODEL 4
REMARK VINA RESULT:      -7.9      1.628      2.535
REMARK  Name = 
REMARK  3 active torsions:
REMARK  status: ('A' for Active; 'I' for Inactive)
REMARK    1  A    between atoms: C_2  and  C_3
REMARK    2  A    between atoms: C_6  and  N_7
REMARK    3  A    between atoms: C_17  and  C_18
REMARK                            x       y       z     vdW  Elec       q    Type
REMARK                         _______ _______ _______ _____ _____    ______ ____
ROOT
ATOM      1  O   UNL     1       4.750   5.096  19.990  0.00  0.00    +0.000 OA
ATOM      2  C   UNL     1       4.057   5.261  18.984  0.00  0.00    +0.000 C 
ATOM      3  N   UNL     1       2.706   5.601  19.059  0.00  0.00    +0.000 N 
ATOM      4  C   UNL     1       1.779   5.800  17.947  0.00  0.00    +0.000 C 
ATOM      5  C   UNL     1       1.460   7.260  17.867  0.00  0.00    +0.000 C 
ATOM      6  C   UNL     1       1.618   8.113  18.903  0.00  0.00    +0.000 C 
ATOM      7  C   UNL     1       2.090   7.654  20.258  0.00  0.00    +0.000 C 
ATOM      8  C   UNL     1       2.196   6.122  20.329  0.00  0.00    +0.000 C 
ENDROOT
BRANCH   6   9
ATOM      9  C   UNL     1       1.399   9.510  18.755  0.00  0.00    +0.000 A 
ATOM     10  C   UNL     1       2.123  10.340  17.930  0.00  0.00    +0.000 A 
ATOM     11  N   UNL     1       1.718  11.623  18.206  0.00  0.00    +0.000 N 
ATOM     12  C   UNL     1       1.048  11.630  19.409  0.00  0.00    +0.000 A 
ATOM     13  C   UNL     1       0.806  12.655  20.327  0.00  0.00    +0.000 A 
ATOM     14  C   UNL     1       0.011  12.341  21.435  0.00  0.00    +0.000 A 
ATOM     15  C   UNL     1      -0.604  11.093  21.552  0.00  0.00    +0.000 A 
ATOM     16  C   UNL     1      -0.321  10.074  20.641  0.00  0.00    +0.000 A 
ATOM     17  C   UNL     1       0.607  10.325  19.613  0.00  0.00    +0.000 A 
ATOM     18  H   UNL     1       1.970  12.446  17.680  0.00  0.00    +0.000 HD
ENDBRANCH   6   9
BRANCH   2  19
ATOM     19  C   UNL     1       4.744   5.078  17.673  0.00  0.00    +0.000 A 
ATOM     20  C   UNL     1       5.132   6.217  16.958  0.00  0.00    +0.000 A 
ATOM     21  C   UNL     1       5.738   6.102  15.708  0.00  0.00    +0.000 A 
ATOM     22  C   UNL     1       5.974   4.830  15.150  0.00  0.00    +0.000 A 
ATOM     23  C   UNL     1       5.553   3.695  15.852  0.00  0.00    +0.000 A 
ATOM     24  C   UNL     1       4.904   3.820  17.083  0.00  0.00    +0.000 A 
BRANCH  22  25
ATOM     25  N   UNL     1       6.581   4.662  13.883  0.00  0.00    +0.000 N 
ATOM     26  C   UNL     1       6.307   3.741  12.900  0.00  0.00    +0.000 A 
ATOM     27  N   UNL     1       7.111   3.899  11.875  0.00  0.00    +0.000 NA
ATOM     28  C   UNL     1       7.878   4.955  12.262  0.00  0.00    +0.000 A 
ATOM     29  N   UNL     1       7.586   5.464  13.459  0.00  0.00    +0.000 NA
ENDBRANCH  22  25
ENDBRANCH   2  19
TORSDOF 3
ENDMDL
MODEL 5
REMARK VINA RESULT:      -7.9      4.332      7.787
REMARK  Name = 
REMARK  3 active torsions:
REMARK  status: ('A' for Active; 'I' for Inactive)
REMARK    1  A    between atoms: C_2  and  C_3
REMARK    2  A    between atoms: C_6  and  N_7
REMARK    3  A    between atoms: C_17  and  C_18
REMARK                            x       y       z     vdW  Elec       q    Type
REMARK                         _______ _______ _______ _____ _____    ______ ____
ROOT
ATOM      1  O   UNL     1       2.375  11.209  17.812  0.00  0.00    +0.000 OA
ATOM      2  C   UNL     1       1.612  10.732  18.655  0.00  0.00    +0.000 C 
ATOM      3  N   UNL     1       0.603  11.486  19.256  0.00  0.00    +0.000 N 
ATOM      4  C   UNL     1      -0.343  11.044  20.278  0.00  0.00    +0.000 C 
ATOM      5  C   UNL     1      -1.698  10.957  19.646  0.00  0.00    +0.000 C 
ATOM      6  C   UNL     1      -2.034  11.613  18.514  0.00  0.00    +0.000 C 
ATOM      7  C   UNL     1      -1.079  12.539  17.807  0.00  0.00    +0.000 C 
ATOM      8  C   UNL     1       0.211  12.745  18.619  0.00  0.00    +0.000 C 
ENDROOT
BRANCH   6   9
ATOM      9  C   UNL     1      -3.299  11.423  17.893  0.00  0.00    +0.000 A 
ATOM     10  C   UNL     1      -3.486  11.042  16.583  0.00  0.00    +0.000 A 
ATOM     11  N   UNL     1      -4.832  11.141  16.331  0.00  0.00    +0.000 N 
ATOM     12  C   UNL     1      -5.414  11.908  17.315  0.00  0.00    +0.000 A 
ATOM     13  C   UNL     1      -6.600  12.646  17.333  0.00  0.00    +0.000 A 
ATOM     14  C   UNL     1      -6.948  13.262  18.541  0.00  0.00    +0.000 A 
ATOM     15  C   UNL     1      -6.201  13.050  19.700  0.00  0.00    +0.000 A 
ATOM     16  C   UNL     1      -5.001  12.337  19.652  0.00  0.00    +0.000 A 
ATOM     17  C   UNL     1      -4.554  11.852  18.409  0.00  0.00    +0.000 A 
ATOM     18  H   UNL     1      -5.302  10.812  15.501  0.00  0.00    +0.000 HD
ENDBRANCH   6   9
BRANCH   2  19
ATOM     19  C   UNL     1       1.826   9.297  19.001  0.00  0.00    +0.000 A 
ATOM     20  C   UNL     1       2.300   8.435  18.006  0.00  0.00    +0.000 A 
ATOM     21  C   UNL     1       2.476   7.077  18.264  0.00  0.00    +0.000 A 
ATOM     22  C   UNL     1       2.181   6.555  19.539  0.00  0.00    +0.000 A 
ATOM     23  C   UNL     1       1.673   7.413  20.521  0.00  0.00    +0.000 A 
ATOM     24  C   UNL     1       1.456   8.765  20.240  0.00  0.00    +0.000 A 
BRANCH  22  25
ATOM     25  N   UNL     1       2.337   5.183  19.849  0.00  0.00    +0.000 N 
ATOM     26  C   UNL     1       3.199   4.260  19.307  0.00  0.00    +0.000 A 
ATOM     27  N   UNL     1       3.020   3.079  19.850  0.00  0.00    +0.000 NA
ATOM     28  C   UNL     1       2.027   3.315  20.750  0.00  0.00    +0.000 A 
ATOM     29  N   UNL     1       1.592   4.574  20.802  0.00  0.00    +0.000 NA
ENDBRANCH  22  25
ENDBRANCH   2  19
TORSDOF 3
ENDMDL
MODEL 6
REMARK VINA RESULT:      -7.8      3.491      6.530
REMARK  Name = 
REMARK  3 active torsions:
REMARK  status: ('A' for Active; 'I' for Inactive)
REMARK    1  A    between atoms: C_2  and  C_3
REMARK    2  A    between atoms: C_6  and  N_7
REMARK    3  A    between atoms: C_17  and  C_18
REMARK                            x       y       z     vdW  Elec       q    Type
REMARK                         _______ _______ _______ _____ _____    ______ ____
ROOT
ATOM      1  O   UNL     1       1.366   9.017  22.541  0.00  0.00    +0.000 OA
ATOM      2  C   UNL     1       1.008   8.976  21.362  0.00  0.00    +0.000 C 
ATOM      3  N   UNL     1       0.148   9.928  20.812  0.00  0.00    +0.000 N 
ATOM      4  C   UNL     1      -0.364   9.974  19.445  0.00  0.00    +0.000 C 
ATOM      5  C   UNL     1       0.288  11.126  18.746  0.00  0.00    +0.000 C 
ATOM      6  C   UNL     1       0.848  12.169  19.397  0.00  0.00    +0.000 C 
ATOM      7  C   UNL     1       0.824  12.288  20.898  0.00  0.00    +0.000 C 
ATOM      8  C   UNL     1      -0.039  11.187  21.536  0.00  0.00    +0.000 C 
ENDROOT
BRANCH   6   9
ATOM      9  C   UNL     1       1.545  13.193  18.698  0.00  0.00    +0.000 A 
ATOM     10  C   UNL     1       2.857  13.116  18.286  0.00  0.00    +0.000 A 
ATOM     11  N   UNL     1       3.196  14.358  17.811  0.00  0.00    +0.000 N 
ATOM     12  C   UNL     1       2.266  15.273  18.253  0.00  0.00    +0.000 A 
ATOM     13  C   UNL     1       2.338  16.658  18.423  0.00  0.00    +0.000 A 
ATOM     14  C   UNL     1       1.168  17.312  18.825  0.00  0.00    +0.000 A 
ATOM     15  C   UNL     1      -0.041  16.623  18.935  0.00  0.00    +0.000 A 
ATOM     16  C   UNL     1      -0.083  15.234  18.795  0.00  0.00    +0.000 A 
ATOM     17  C   UNL     1       1.118  14.543  18.553  0.00  0.00    +0.000 A 
ATOM     18  H   UNL     1       4.048  14.590  17.322  0.00  0.00    +0.000 HD
ENDBRANCH   6   9
BRANCH   2  19
ATOM     19  C   UNL     1       1.545   7.847  20.549  0.00  0.00    +0.000 A 
ATOM     20  C   UNL     1       2.098   8.132  19.296  0.00  0.00    +0.000 A 
ATOM     21  C   UNL     1       2.575   7.108  18.478  0.00  0.00    +0.000 A 
ATOM     22  C   UNL     1       2.508   5.769  18.909  0.00  0.00    +0.000 A 
ATOM     23  C   UNL     1       1.922   5.485  20.147  0.00  0.00    +0.000 A 
ATOM     24  C   UNL     1       1.405   6.511  20.941  0.00  0.00    +0.000 A 
BRANCH  22  25
ATOM     25  N   UNL     1       2.974   4.695  18.113  0.00  0.00    +0.000 N 
ATOM     26  C   UNL     1       4.069   4.634  17.286  0.00  0.00    +0.000 A 
ATOM     27  N   UNL     1       4.147   3.462  16.700  0.00  0.00    +0.000 NA
ATOM     28  C   UNL     1       3.067   2.807  17.206  0.00  0.00    +0.000 A 
ATOM     29  N   UNL     1       2.336   3.501  18.078  0.00  0.00    +0.000 NA
ENDBRANCH  22  25
ENDBRANCH   2  19
TORSDOF 3
ENDMDL
MODEL 7
REMARK VINA RESULT:      -7.7      4.149      7.441
REMARK  Name = 
REMARK  3 active torsions:
REMARK  status: ('A' for Active; 'I' for Inactive)
REMARK    1  A    between atoms: C_2  and  C_3
REMARK    2  A    between atoms: C_6  and  N_7
REMARK    3  A    between atoms: C_17  and  C_18
REMARK                            x       y       z     vdW  Elec       q    Type
REMARK                         _______ _______ _______ _____ _____    ______ ____
ROOT
ATOM      1  O   UNL     1       0.197  10.336  22.646  0.00  0.00    +0.000 OA
ATOM      2  C   UNL     1      -0.001  10.424  21.432  0.00  0.00    +0.000 C 
ATOM      3  N   UNL     1      -0.875  11.365  20.887  0.00  0.00    +0.000 N 
ATOM      4  C   UNL     1      -1.209  11.550  19.477  0.00  0.00    +0.000 C 
ATOM      5  C   UNL     1      -0.595  12.838  19.024  0.00  0.00    +0.000 C 
ATOM      6  C   UNL     1      -0.234  13.828  19.869  0.00  0.00    +0.000 C 
ATOM      7  C   UNL     1      -0.464  13.741  21.355  0.00  0.00    +0.000 C 
ATOM      8  C   UNL     1      -1.284  12.494  21.726  0.00  0.00    +0.000 C 
ENDROOT
BRANCH   6   9
ATOM      9  C   UNL     1       0.438  14.993  19.406  0.00  0.00    +0.000 A 
ATOM     10  C   UNL     1      -0.183  16.125  18.927  0.00  0.00    +0.000 A 
ATOM     11  N   UNL     1       0.806  16.936  18.428  0.00  0.00    +0.000 N 
ATOM     12  C   UNL     1       1.950  16.190  18.256  0.00  0.00    +0.000 A 
ATOM     13  C   UNL     1       3.064  16.379  17.434  0.00  0.00    +0.000 A 
ATOM     14  C   UNL     1       4.110  15.457  17.557  0.00  0.00    +0.000 A 
ATOM     15  C   UNL     1       4.085  14.466  18.540  0.00  0.00    +0.000 A 
ATOM     16  C   UNL     1       2.948  14.274  19.327  0.00  0.00    +0.000 A 
ATOM     17  C   UNL     1       1.824  15.089  19.100  0.00  0.00    +0.000 A 
ATOM     18  H   UNL     1       0.687  17.891  18.122  0.00  0.00    +0.000 HD
ENDBRANCH   6   9
BRANCH   2  19
ATOM     19  C   UNL     1       0.751   9.466  20.572  0.00  0.00    +0.000 A 
ATOM     20  C   UNL     1       1.149   8.244  21.125  0.00  0.00    +0.000 A 
ATOM     21  C   UNL     1       1.892   7.331  20.377  0.00  0.00    +0.000 A 
ATOM     22  C   UNL     1       2.247   7.629  19.047  0.00  0.00    +0.000 A 
ATOM     23  C   UNL     1       1.877   8.867  18.509  0.00  0.00    +0.000 A 
ATOM     24  C   UNL     1       1.173   9.795  19.279  0.00  0.00    +0.000 A 
BRANCH  22  25
ATOM     25  N   UNL     1       3.004   6.738  18.249  0.00  0.00    +0.000 N 
ATOM     26  C   UNL     1       2.877   5.378  18.102  0.00  0.00    +0.000 A 
ATOM     27  N   UNL     1       3.791   4.910  17.284  0.00  0.00    +0.000 NA
ATOM     28  C   UNL     1       4.472   6.033  16.929  0.00  0.00    +0.000 A 
ATOM     29  N   UNL     1       4.026   7.166  17.470  0.00  0.00    +0.000 NA
ENDBRANCH  22  25
ENDBRANCH   2  19
TORSDOF 3
ENDMDL
MODEL 8
REMARK VINA RESULT:      -7.6      1.840      2.705
REMARK  Name = 
REMARK  3 active torsions:
REMARK  status: ('A' for Active; 'I' for Inactive)
REMARK    1  A    between atoms: C_2  and  C_3
REMARK    2  A    between atoms: C_6  and  N_7
REMARK    3  A    between atoms: C_17  and  C_18
REMARK                            x       y       z     vdW  Elec       q    Type
REMARK                         _______ _______ _______ _____ _____    ______ ____
ROOT
ATOM      1  O   UNL     1       4.685   5.513  19.928  0.00  0.00    +0.000 OA
ATOM      2  C   UNL     1       3.990   5.594  18.913  0.00  0.00    +0.000 C 
ATOM      3  N   UNL     1       2.636   5.926  18.963  0.00  0.00    +0.000 N 
ATOM      4  C   UNL     1       1.707   6.030  17.839  0.00  0.00    +0.000 C 
ATOM      5  C   UNL     1       1.375   7.477  17.648  0.00  0.00    +0.000 C 
ATOM      6  C   UNL     1       1.525   8.409  18.615  0.00  0.00    +0.000 C 
ATOM      7  C   UNL     1       2.002   8.061  20.001  0.00  0.00    +0.000 C 
ATOM      8  C   UNL     1       2.121   6.539  20.189  0.00  0.00    +0.000 C 
ENDROOT
BRANCH   6   9
ATOM      9  C   UNL     1       1.293   9.789  18.360  0.00  0.00    +0.000 A 
ATOM     10  C   UNL     1       2.259  10.769  18.383  0.00  0.00    +0.000 A 
ATOM     11  N   UNL     1       1.606  11.970  18.259  0.00  0.00    +0.000 N 
ATOM     12  C   UNL     1       0.269  11.780  18.527  0.00  0.00    +0.000 A 
ATOM     13  C   UNL     1      -0.727  12.667  18.942  0.00  0.00    +0.000 A 
ATOM     14  C   UNL     1      -2.026  12.159  19.052  0.00  0.00    +0.000 A 
ATOM     15  C   UNL     1      -2.328  10.856  18.652  0.00  0.00    +0.000 A 
ATOM     16  C   UNL     1      -1.311   9.977  18.273  0.00  0.00    +0.000 A 
ATOM     17  C   UNL     1       0.021  10.426  18.316  0.00  0.00    +0.000 A 
ATOM     18  H   UNL     1       2.045  12.868  18.115  0.00  0.00    +0.000 HD
ENDBRANCH   6   9
BRANCH   2  19
ATOM     19  C   UNL     1       4.679   5.316  17.620  0.00  0.00    +0.000 A 
ATOM     20  C   UNL     1       4.985   6.395  16.782  0.00  0.00    +0.000 A 
ATOM     21  C   UNL     1       5.589   6.186  15.543  0.00  0.00    +0.000 A 
ATOM     22  C   UNL     1       5.904   4.880  15.121  0.00  0.00    +0.000 A 
ATOM     23  C   UNL     1       5.564   3.801  15.945  0.00  0.00    +0.000 A 
ATOM     24  C   UNL     1       4.917   4.015  17.165  0.00  0.00    +0.000 A 
BRANCH  22  25
ATOM     25  N   UNL     1       6.512   4.616  13.871  0.00  0.00    +0.000 N 
ATOM     26  C   UNL     1       6.235   3.628  12.957  0.00  0.00    +0.000 A 
ATOM     27  N   UNL     1       7.042   3.707  11.925  0.00  0.00    +0.000 NA
ATOM     28  C   UNL     1       7.814   4.783  12.235  0.00  0.00    +0.000 A 
ATOM     29  N   UNL     1       7.523   5.380  13.391  0.00  0.00    +0.000 NA
ENDBRANCH  22  25
ENDBRANCH   2  19
TORSDOF 3
ENDMDL
MODEL 9
REMARK VINA RESULT:      -7.6      3.726      6.258
REMARK  Name = 
REMARK  3 active torsions:
REMARK  status: ('A' for Active; 'I' for Inactive)
REMARK    1  A    between atoms: C_2  and  C_3
REMARK    2  A    between atoms: C_6  and  N_7
REMARK    3  A    between atoms: C_17  and  C_18
REMARK                            x       y       z     vdW  Elec       q    Type
REMARK                         _______ _______ _______ _____ _____    ______ ____
ROOT
ATOM      1  O   UNL     1       1.242   8.757  22.003  0.00  0.00    +0.000 OA
ATOM      2  C   UNL     1       1.041   8.942  20.801  0.00  0.00    +0.000 C 
ATOM      3  N   UNL     1       0.172   9.929  20.334  0.00  0.00    +0.000 N 
ATOM      4  C   UNL     1      -0.165  10.227  18.944  0.00  0.00    +0.000 C 
ATOM      5  C   UNL     1       0.457  11.542  18.591  0.00  0.00    +0.000 C 
ATOM      6  C   UNL     1       0.828  12.460  19.511  0.00  0.00    +0.000 C 
ATOM      7  C   UNL     1       0.603  12.258  20.986  0.00  0.00    +0.000 C 
ATOM      8  C   UNL     1      -0.225  10.991  21.261  0.00  0.00    +0.000 C 
ENDROOT
BRANCH   6   9
ATOM      9  C   UNL     1       1.508  13.653  19.138  0.00  0.00    +0.000 A 
ATOM     10  C   UNL     1       2.872  13.832  19.186  0.00  0.00    +0.000 A 
ATOM     11  N   UNL     1       3.106  15.157  18.916  0.00  0.00    +0.000 N 
ATOM     12  C   UNL     1       1.929  15.857  19.065  0.00  0.00    +0.000 A 
ATOM     13  C   UNL     1       1.682  17.209  19.318  0.00  0.00    +0.000 A 
ATOM     14  C   UNL     1       0.344  17.618  19.337  0.00  0.00    +0.000 A 
ATOM     15  C   UNL     1      -0.685  16.736  19.001  0.00  0.00    +0.000 A 
ATOM     16  C   UNL     1      -0.418  15.383  18.785  0.00  0.00    +0.000 A 
ATOM     17  C   UNL     1       0.904  14.924  18.927  0.00  0.00    +0.000 A 
ATOM     18  H   UNL     1       4.010  15.576  18.753  0.00  0.00    +0.000 HD
ENDBRANCH   6   9
BRANCH   2  19
ATOM     19  C   UNL     1       1.783   8.049  19.864  0.00  0.00    +0.000 A 
ATOM     20  C   UNL     1       2.059   6.738  20.271  0.00  0.00    +0.000 A 
ATOM     21  C   UNL     1       2.787   5.877  19.452  0.00  0.00    +0.000 A 
ATOM     22  C   UNL     1       3.250   6.317  18.196  0.00  0.00    +0.000 A 
ATOM     23  C   UNL     1       3.003   7.638  17.809  0.00  0.00    +0.000 A 
ATOM     24  C   UNL     1       2.313   8.510  18.655  0.00  0.00    +0.000 A 
BRANCH  22  25
ATOM     25  N   UNL     1       3.997   5.481  17.332  0.00  0.00    +0.000 N 
ATOM     26  C   UNL     1       4.040   4.109  17.268  0.00  0.00    +0.000 A 
ATOM     27  N   UNL     1       4.879   3.711  16.340  0.00  0.00    +0.000 NA
ATOM     28  C   UNL     1       5.338   4.888  15.833  0.00  0.00    +0.000 A 
ATOM     29  N   UNL     1       4.823   5.986  16.385  0.00  0.00    +0.000 NA
ENDBRANCH  22  25
ENDBRANCH   2  19
TORSDOF 3
ENDMDL
