MODEL 1
REMARK VINA RESULT:      -8.3      0.000      0.000
REMARK  Name = 
REMARK  5 active torsions:
REMARK  status: ('A' for Active; 'I' for Inactive)
REMARK    1  A    between atoms: C_2  and  C_22
REMARK    2  A    between atoms: N_3  and  C_4
REMARK    3  A    between atoms: C_9  and  S_10
REMARK    4  A    between atoms: S_10  and  N_13
REMARK    5  A    between atoms: N_13  and  C_14
REMARK                            x       y       z     vdW  Elec       q    Type
REMARK                         _______ _______ _______ _____ _____    ______ ____
ROOT
ATOM      1  C   UNL     1       3.981   3.483  17.536  0.00  0.00    +0.000 A 
ATOM      2  C   UNL     1       3.594   2.148  17.662  0.00  0.00    +0.000 A 
ATOM      3  C   UNL     1       2.711   1.747  18.667  0.00  0.00    +0.000 A 
ATOM      4  C   UNL     1       2.183   2.674  19.569  0.00  0.00    +0.000 A 
ATOM      5 CL   UNL     1       1.046   2.043  20.701  0.00  0.00    +0.000 Cl
ATOM      6  C   UNL     1       2.580   4.008  19.472  0.00  0.00    +0.000 A 
ATOM      7  C   UNL     1       3.509   4.400  18.477  0.00  0.00    +0.000 A 
ENDROOT
BRANCH   1  10
ATOM      8  O   UNL     1       6.750   4.331  17.722  0.00  0.00    +0.000 OA
ATOM      9  C   UNL     1       6.134   4.355  16.656  0.00  0.00    +0.000 C 
ATOM     10  N   UNL     1       4.819   3.937  16.496  0.00  0.00    +0.000 N 
ATOM     11  H   UNL     1       4.513   3.866  15.530  0.00  0.00    +0.000 HD
BRANCH   9  12
ATOM     12  C   UNL     1       6.794   4.801  15.420  0.00  0.00    +0.000 A 
ATOM     13  N   UNL     1       7.747   5.755  15.395  0.00  0.00    +0.000 NA
ATOM     14  N   UNL     1       8.111   5.802  14.094  0.00  0.00    +0.000 N 
ATOM     15  C   UNL     1       7.412   4.958  13.274  0.00  0.00    +0.000 A 
ATOM     16  C   UNL     1       7.479   4.718  11.896  0.00  0.00    +0.000 A 
ATOM     17  C   UNL     1       6.595   3.769  11.365  0.00  0.00    +0.000 A 
ATOM     18  C   UNL     1       5.691   3.089  12.181  0.00  0.00    +0.000 A 
ATOM     19  C   UNL     1       5.651   3.337  13.556  0.00  0.00    +0.000 A 
ATOM     20  C   UNL     1       6.529   4.289  14.110  0.00  0.00    +0.000 A 
ATOM     21  H   UNL     1       8.850   6.440  13.823  0.00  0.00    +0.000 HD
ENDBRANCH   9  12
ENDBRANCH   1  10
BRANCH   6  22
ATOM     22  S   UNL     1       2.015   5.276  20.579  0.00  0.00    +0.000 S 
ATOM     23  O   UNL     1       0.626   5.578  20.318  0.00  0.00    +0.000 OA
ATOM     24  O   UNL     1       2.435   4.898  21.913  0.00  0.00    +0.000 OA
BRANCH  22  25
ATOM     25  N   UNL     1       2.897   6.642  20.076  0.00  0.00    +0.000 N 
ATOM     26  H   UNL     1       3.691   6.321  19.516  0.00  0.00    +0.000 HD
BRANCH  25  27
ATOM     27  C   UNL     1       2.152   7.728  19.505  0.00  0.00    +0.000 A 
ATOM     28  C   UNL     1       2.168   7.882  18.117  0.00  0.00    +0.000 A 
ATOM     29  C   UNL     1       1.477   8.939  17.519  0.00  0.00    +0.000 A 
ATOM     30  C   UNL     1       0.770   9.849  18.305  0.00  0.00    +0.000 A 
ATOM     31  C   UNL     1       0.753   9.706  19.692  0.00  0.00    +0.000 A 
ATOM     32  C   UNL     1       1.445   8.650  20.294  0.00  0.00    +0.000 A 
ATOM     33 CL   UNL     1       1.367   8.494  22.013  0.00  0.00    +0.000 Cl
ENDBRANCH  25  27
ENDBRANCH  22  25
ENDBRANCH   6  22
TORSDOF 5
ENDMDL
MODEL 2
REMARK VINA RESULT:      -8.2      2.742      7.891
REMARK  Name = 
REMARK  5 active torsions:
REMARK  status: ('A' for Active; 'I' for Inactive)
REMARK    1  A    between atoms: C_2  and  C_22
REMARK    2  A    between atoms: N_3  and  C_4
REMARK    3  A    between atoms: C_9  and  S_10
REMARK    4  A    between atoms: S_10  and  N_13
REMARK    5  A    between atoms: N_13  and  C_14
REMARK                            x       y       z     vdW  Elec       q    Type
REMARK                         _______ _______ _______ _____ _____    ______ ____
ROOT
ATOM      1  C   UNL     1       2.372   6.484  19.885  0.00  0.00    +0.000 A 
ATOM      2  C   UNL     1       1.789   5.281  20.286  0.00  0.00    +0.000 A 
ATOM      3  C   UNL     1       2.523   4.092  20.291  0.00  0.00    +0.000 A 
ATOM      4  C   UNL     1       3.865   4.078  19.905  0.00  0.00    +0.000 A 
ATOM      5 CL   UNL     1       4.659   2.554  20.040  0.00  0.00    +0.000 Cl
ATOM      6  C   UNL     1       4.455   5.268  19.477  0.00  0.00    +0.000 A 
ATOM      7  C   UNL     1       3.693   6.461  19.434  0.00  0.00    +0.000 A 
ENDROOT
BRANCH   1  10
ATOM      8  O   UNL     1       2.040   8.414  17.744  0.00  0.00    +0.000 OA
ATOM      9  C   UNL     1       1.583   8.609  18.871  0.00  0.00    +0.000 C 
ATOM     10  N   UNL     1       1.683   7.714  19.928  0.00  0.00    +0.000 N 
ATOM     11  H   UNL     1       1.115   7.950  20.736  0.00  0.00    +0.000 HD
BRANCH   9  12
ATOM     12  C   UNL     1       0.825   9.834  19.169  0.00  0.00    +0.000 A 
ATOM     13  N   UNL     1       1.208  10.731  20.100  0.00  0.00    +0.000 NA
ATOM     14  N   UNL     1       0.277  11.706  20.000  0.00  0.00    +0.000 N 
ATOM     15  C   UNL     1      -0.709  11.462  19.082  0.00  0.00    +0.000 A 
ATOM     16  C   UNL     1      -1.833  12.201  18.694  0.00  0.00    +0.000 A 
ATOM     17  C   UNL     1      -2.657  11.645  17.706  0.00  0.00    +0.000 A 
ATOM     18  C   UNL     1      -2.363  10.408  17.134  0.00  0.00    +0.000 A 
ATOM     19  C   UNL     1      -1.229   9.694  17.530  0.00  0.00    +0.000 A 
ATOM     20  C   UNL     1      -0.387  10.234  18.523  0.00  0.00    +0.000 A 
ATOM     21  H   UNL     1       0.369  12.522  20.593  0.00  0.00    +0.000 HD
ENDBRANCH   9  12
ENDBRANCH   1  10
BRANCH   6  22
ATOM     22  S   UNL     1       6.138   5.376  18.922  0.00  0.00    +0.000 S 
ATOM     23  O   UNL     1       6.298   6.511  18.043  0.00  0.00    +0.000 OA
ATOM     24  O   UNL     1       6.984   5.241  20.091  0.00  0.00    +0.000 OA
BRANCH  22  25
ATOM     25  N   UNL     1       6.306   3.995  17.942  0.00  0.00    +0.000 N 
ATOM     26  H   UNL     1       5.699   3.261  18.317  0.00  0.00    +0.000 HD
BRANCH  25  27
ATOM     27  C   UNL     1       6.221   4.186  16.522  0.00  0.00    +0.000 A 
ATOM     28  C   UNL     1       7.380   4.554  15.835  0.00  0.00    +0.000 A 
ATOM     29  C   UNL     1       7.340   4.773  14.455  0.00  0.00    +0.000 A 
ATOM     30  C   UNL     1       6.142   4.629  13.757  0.00  0.00    +0.000 A 
ATOM     31  C   UNL     1       4.978   4.268  14.436  0.00  0.00    +0.000 A 
ATOM     32  C   UNL     1       5.014   4.049  15.817  0.00  0.00    +0.000 A 
ATOM     33 CL   UNL     1       3.556   3.570  16.609  0.00  0.00    +0.000 Cl
ENDBRANCH  25  27
ENDBRANCH  22  25
ENDBRANCH   6  22
TORSDOF 5
ENDMDL
MODEL 3
REMARK VINA RESULT:      -8.2      2.754      8.352
REMARK  Name = 
REMARK  5 active torsions:
REMARK  status: ('A' for Active; 'I' for Inactive)
REMARK    1  A    between atoms: C_2  and  C_22
REMARK    2  A    between atoms: N_3  and  C_4
REMARK    3  A    between atoms: C_9  and  S_10
REMARK    4  A    between atoms: S_10  and  N_13
REMARK    5  A    between atoms: N_13  and  C_14
REMARK                            x       y       z     vdW  Elec       q    Type
REMARK                         _______ _______ _______ _____ _____    ______ ____
ROOT
ATOM      1  C   UNL     1       2.366   6.433  19.988  0.00  0.00    +0.000 A 
ATOM      2  C   UNL     1       1.767   5.211  20.298  0.00  0.00    +0.000 A 
ATOM      3  C   UNL     1       2.484   4.015  20.210  0.00  0.00    +0.000 A 
ATOM      4  C   UNL     1       3.824   4.011  19.817  0.00  0.00    +0.000 A 
ATOM      5 CL   UNL     1       4.596   2.470  19.833  0.00  0.00    +0.000 Cl
ATOM      6  C   UNL     1       4.430   5.221  19.479  0.00  0.00    +0.000 A 
ATOM      7  C   UNL     1       3.685   6.425  19.529  0.00  0.00    +0.000 A 
ENDROOT
BRANCH   1  10
ATOM      8  O   UNL     1       1.903   8.447  17.951  0.00  0.00    +0.000 OA
ATOM      9  C   UNL     1       1.529   8.602  19.115  0.00  0.00    +0.000 C 
ATOM     10  N   UNL     1       1.695   7.665  20.126  0.00  0.00    +0.000 N 
ATOM     11  H   UNL     1       1.188   7.874  20.982  0.00  0.00    +0.000 HD
BRANCH   9  12
ATOM     12  C   UNL     1       0.808   9.820  19.513  0.00  0.00    +0.000 A 
ATOM     13  N   UNL     1       0.611  10.866  18.684  0.00  0.00    +0.000 NA
ATOM     14  N   UNL     1      -0.133  11.718  19.424  0.00  0.00    +0.000 N 
ATOM     15  C   UNL     1      -0.389  11.293  20.700  0.00  0.00    +0.000 A 
ATOM     16  C   UNL     1      -1.098  11.875  21.759  0.00  0.00    +0.000 A 
ATOM     17  C   UNL     1      -1.162  11.155  22.960  0.00  0.00    +0.000 A 
ATOM     18  C   UNL     1      -0.548   9.910  23.089  0.00  0.00    +0.000 A 
ATOM     19  C   UNL     1       0.144   9.345  22.015  0.00  0.00    +0.000 A 
ATOM     20  C   UNL     1       0.224  10.052  20.798  0.00  0.00    +0.000 A 
ATOM     21  H   UNL     1      -0.438  12.585  18.998  0.00  0.00    +0.000 HD
ENDBRANCH   9  12
ENDBRANCH   1  10
BRANCH   6  22
ATOM     22  S   UNL     1       6.113   5.348  18.926  0.00  0.00    +0.000 S 
ATOM     23  O   UNL     1       6.263   6.490  18.054  0.00  0.00    +0.000 OA
ATOM     24  O   UNL     1       6.959   5.212  20.094  0.00  0.00    +0.000 OA
BRANCH  22  25
ATOM     25  N   UNL     1       6.293   3.974  17.938  0.00  0.00    +0.000 N 
ATOM     26  H   UNL     1       5.684   3.236  18.301  0.00  0.00    +0.000 HD
BRANCH  25  27
ATOM     27  C   UNL     1       6.223   4.175  16.518  0.00  0.00    +0.000 A 
ATOM     28  C   UNL     1       7.386   4.560  15.847  0.00  0.00    +0.000 A 
ATOM     29  C   UNL     1       7.359   4.789  14.469  0.00  0.00    +0.000 A 
ATOM     30  C   UNL     1       6.170   4.640  13.756  0.00  0.00    +0.000 A 
ATOM     31  C   UNL     1       5.003   4.262  14.419  0.00  0.00    +0.000 A 
ATOM     32  C   UNL     1       5.025   4.032  15.798  0.00  0.00    +0.000 A 
ATOM     33 CL   UNL     1       3.563   3.533  16.570  0.00  0.00    +0.000 Cl
ENDBRANCH  25  27
ENDBRANCH  22  25
ENDBRANCH   6  22
TORSDOF 5
ENDMDL
MODEL 4
REMARK VINA RESULT:      -8.2      3.645      8.809
REMARK  Name = 
REMARK  5 active torsions:
REMARK  status: ('A' for Active; 'I' for Inactive)
REMARK    1  A    between atoms: C_2  and  C_22
REMARK    2  A    between atoms: N_3  and  C_4
REMARK    3  A    between atoms: C_9  and  S_10
REMARK    4  A    between atoms: S_10  and  N_13
REMARK    5  A    between atoms: N_13  and  C_14
REMARK                            x       y       z     vdW  Elec       q    Type
REMARK                         _______ _______ _______ _____ _____    ______ ____
ROOT
ATOM      1  C   UNL     1       2.823   7.422  18.905  0.00  0.00    +0.000 A 
ATOM      2  C   UNL     1       2.861   7.973  17.623  0.00  0.00    +0.000 A 
ATOM      3  C   UNL     1       3.698   7.444  16.638  0.00  0.00    +0.000 A 
ATOM      4  C   UNL     1       4.513   6.342  16.906  0.00  0.00    +0.000 A 
ATOM      5 CL   UNL     1       5.429   5.755  15.569  0.00  0.00    +0.000 Cl
ATOM      6  C   UNL     1       4.506   5.797  18.190  0.00  0.00    +0.000 A 
ATOM      7  C   UNL     1       3.687   6.365  19.196  0.00  0.00    +0.000 A 
ENDROOT
BRANCH   1  10
ATOM      8  O   UNL     1       1.072   9.733  18.805  0.00  0.00    +0.000 OA
ATOM      9  C   UNL     1       1.150   9.021  19.807  0.00  0.00    +0.000 C 
ATOM     10  N   UNL     1       1.946   7.887  19.907  0.00  0.00    +0.000 N 
ATOM     11  H   UNL     1       1.773   7.322  20.733  0.00  0.00    +0.000 HD
BRANCH   9  12
ATOM     12  C   UNL     1       0.333   9.308  20.995  0.00  0.00    +0.000 A 
ATOM     13  N   UNL     1      -0.098   8.352  21.844  0.00  0.00    +0.000 NA
ATOM     14  N   UNL     1      -0.744   9.051  22.803  0.00  0.00    +0.000 N 
ATOM     15  C   UNL     1      -0.788  10.403  22.594  0.00  0.00    +0.000 A 
ATOM     16  C   UNL     1      -1.357  11.449  23.331  0.00  0.00    +0.000 A 
ATOM     17  C   UNL     1      -1.218  12.745  22.818  0.00  0.00    +0.000 A 
ATOM     18  C   UNL     1      -0.538  12.980  21.624  0.00  0.00    +0.000 A 
ATOM     19  C   UNL     1       0.031  11.921  20.911  0.00  0.00    +0.000 A 
ATOM     20  C   UNL     1      -0.098  10.608  21.408  0.00  0.00    +0.000 A 
ATOM     21  H   UNL     1      -1.142   8.542  23.584  0.00  0.00    +0.000 HD
ENDBRANCH   9  12
ENDBRANCH   1  10
BRANCH   6  22
ATOM     22  S   UNL     1       5.524   4.423  18.670  0.00  0.00    +0.000 S 
ATOM     23  O   UNL     1       6.575   4.222  17.700  0.00  0.00    +0.000 OA
ATOM     24  O   UNL     1       5.855   4.604  20.069  0.00  0.00    +0.000 OA
BRANCH  22  25
ATOM     25  N   UNL     1       4.473   3.095  18.508  0.00  0.00    +0.000 N 
ATOM     26  H   UNL     1       5.037   2.241  18.479  0.00  0.00    +0.000 HD
BRANCH  25  27
ATOM     27  C   UNL     1       3.340   3.044  19.389  0.00  0.00    +0.000 A 
ATOM     28  C   UNL     1       3.548   2.635  20.708  0.00  0.00    +0.000 A 
ATOM     29  C   UNL     1       2.472   2.549  21.595  0.00  0.00    +0.000 A 
ATOM     30  C   UNL     1       1.183   2.865  21.167  0.00  0.00    +0.000 A 
ATOM     31  C   UNL     1       0.965   3.268  19.849  0.00  0.00    +0.000 A 
ATOM     32  C   UNL     1       2.040   3.355  18.959  0.00  0.00    +0.000 A 
ATOM     33 CL   UNL     1       1.727   3.891  17.347  0.00  0.00    +0.000 Cl
ENDBRANCH  25  27
ENDBRANCH  22  25
ENDBRANCH   6  22
TORSDOF 5
ENDMDL
MODEL 5
REMARK VINA RESULT:      -8.1      4.144      6.791
REMARK  Name = 
REMARK  5 active torsions:
REMARK  status: ('A' for Active; 'I' for Inactive)
REMARK    1  A    between atoms: C_2  and  C_22
REMARK    2  A    between atoms: N_3  and  C_4
REMARK    3  A    between atoms: C_9  and  S_10
REMARK    4  A    between atoms: S_10  and  N_13
REMARK    5  A    between atoms: N_13  and  C_14
REMARK                            x       y       z     vdW  Elec       q    Type
REMARK                         _______ _______ _______ _____ _____    ______ ____
ROOT
ATOM      1  C   UNL     1       1.235   8.715  20.559  0.00  0.00    +0.000 A 
ATOM      2  C   UNL     1       1.145   8.661  21.952  0.00  0.00    +0.000 A 
ATOM      3  C   UNL     1       0.320   9.542  22.654  0.00  0.00    +0.000 A 
ATOM      4  C   UNL     1      -0.447  10.496  21.980  0.00  0.00    +0.000 A 
ATOM      5 CL   UNL     1      -1.476  11.457  22.975  0.00  0.00    +0.000 Cl
ATOM      6  C   UNL     1      -0.349  10.579  20.591  0.00  0.00    +0.000 A 
ATOM      7  C   UNL     1       0.523   9.710  19.889  0.00  0.00    +0.000 A 
ENDROOT
BRANCH   1  10
ATOM      8  O   UNL     1       2.173   8.994  17.828  0.00  0.00    +0.000 OA
ATOM      9  C   UNL     1       2.403   7.983  18.493  0.00  0.00    +0.000 C 
ATOM     10  N   UNL     1       2.007   7.801  19.812  0.00  0.00    +0.000 N 
ATOM     11  H   UNL     1       2.415   6.989  20.267  0.00  0.00    +0.000 HD
BRANCH   9  12
ATOM     12  C   UNL     1       3.188   6.876  17.927  0.00  0.00    +0.000 A 
ATOM     13  N   UNL     1       4.400   7.047  17.358  0.00  0.00    +0.000 NA
ATOM     14  N   UNL     1       4.776   5.789  17.038  0.00  0.00    +0.000 N 
ATOM     15  C   UNL     1       3.852   4.823  17.332  0.00  0.00    +0.000 A 
ATOM     16  C   UNL     1       3.857   3.434  17.154  0.00  0.00    +0.000 A 
ATOM     17  C   UNL     1       2.720   2.729  17.573  0.00  0.00    +0.000 A 
ATOM     18  C   UNL     1       1.634   3.388  18.147  0.00  0.00    +0.000 A 
ATOM     19  C   UNL     1       1.657   4.774  18.326  0.00  0.00    +0.000 A 
ATOM     20  C   UNL     1       2.789   5.503  17.910  0.00  0.00    +0.000 A 
ATOM     21  H   UNL     1       5.686   5.652  16.613  0.00  0.00    +0.000 HD
ENDBRANCH   9  12
ENDBRANCH   1  10
BRANCH   6  22
ATOM     22  S   UNL     1      -1.238  11.771  19.621  0.00  0.00    +0.000 S 
ATOM     23  O   UNL     1      -1.605  12.902  20.442  0.00  0.00    +0.000 OA
ATOM     24  O   UNL     1      -0.488  11.975  18.399  0.00  0.00    +0.000 OA
BRANCH  22  25
ATOM     25  N   UNL     1      -2.691  10.961  19.261  0.00  0.00    +0.000 N 
ATOM     26  H   UNL     1      -3.437  11.376  19.825  0.00  0.00    +0.000 HD
BRANCH  25  27
ATOM     27  C   UNL     1      -3.011  10.776  17.874  0.00  0.00    +0.000 A 
ATOM     28  C   UNL     1      -2.197   9.933  17.115  0.00  0.00    +0.000 A 
ATOM     29  C   UNL     1      -2.457   9.741  15.755  0.00  0.00    +0.000 A 
ATOM     30  C   UNL     1      -3.528  10.395  15.147  0.00  0.00    +0.000 A 
ATOM     31  C   UNL     1      -4.342  11.244  15.896  0.00  0.00    +0.000 A 
ATOM     32  C   UNL     1      -4.085  11.439  17.256  0.00  0.00    +0.000 A 
ATOM     33 CL   UNL     1      -5.141  12.473  18.150  0.00  0.00    +0.000 Cl
ENDBRANCH  25  27
ENDBRANCH  22  25
ENDBRANCH   6  22
TORSDOF 5
ENDMDL
MODEL 6
REMARK VINA RESULT:      -8.0      5.146      7.607
REMARK  Name = 
REMARK  5 active torsions:
REMARK  status: ('A' for Active; 'I' for Inactive)
REMARK    1  A    between atoms: C_2  and  C_22
REMARK    2  A    between atoms: N_3  and  C_4
REMARK    3  A    between atoms: C_9  and  S_10
REMARK    4  A    between atoms: S_10  and  N_13
REMARK    5  A    between atoms: N_13  and  C_14
REMARK                            x       y       z     vdW  Elec       q    Type
REMARK                         _______ _______ _______ _____ _____    ______ ____
ROOT
ATOM      1  C   UNL     1       0.823   9.180  21.386  0.00  0.00    +0.000 A 
ATOM      2  C   UNL     1       0.060   9.146  22.555  0.00  0.00    +0.000 A 
ATOM      3  C   UNL     1      -0.719  10.240  22.938  0.00  0.00    +0.000 A 
ATOM      4  C   UNL     1      -0.763  11.396  22.155  0.00  0.00    +0.000 A 
ATOM      5 CL   UNL     1      -1.830  12.629  22.715  0.00  0.00    +0.000 Cl
ATOM      6  C   UNL     1       0.013  11.456  20.998  0.00  0.00    +0.000 A 
ATOM      7  C   UNL     1       0.834  10.359  20.638  0.00  0.00    +0.000 A 
ENDROOT
BRANCH   1  10
ATOM      8  O   UNL     1       1.624   8.564  18.666  0.00  0.00    +0.000 OA
ATOM      9  C   UNL     1       1.899   7.820  19.608  0.00  0.00    +0.000 C 
ATOM     10  N   UNL     1       1.571   8.073  20.933  0.00  0.00    +0.000 N 
ATOM     11  H   UNL     1       2.011   7.449  21.604  0.00  0.00    +0.000 HD
BRANCH   9  12
ATOM     12  C   UNL     1       2.672   6.588  19.388  0.00  0.00    +0.000 A 
ATOM     13  N   UNL     1       3.818   6.553  18.678  0.00  0.00    +0.000 NA
ATOM     14  N   UNL     1       4.212   5.264  18.781  0.00  0.00    +0.000 N 
ATOM     15  C   UNL     1       3.358   4.460  19.486  0.00  0.00    +0.000 A 
ATOM     16  C   UNL     1       3.400   3.097  19.804  0.00  0.00    +0.000 A 
ATOM     17  C   UNL     1       2.335   2.580  20.554  0.00  0.00    +0.000 A 
ATOM     18  C   UNL     1       1.281   3.394  20.968  0.00  0.00    +0.000 A 
ATOM     19  C   UNL     1       1.267   4.754  20.648  0.00  0.00    +0.000 A 
ATOM     20  C   UNL     1       2.327   5.295  19.892  0.00  0.00    +0.000 A 
ATOM     21  H   UNL     1       5.084   4.990  18.342  0.00  0.00    +0.000 HD
ENDBRANCH   9  12
ENDBRANCH   1  10
BRANCH   6  22
ATOM     22  S   UNL     1       0.077  12.880  19.940  0.00  0.00    +0.000 S 
ATOM     23  O   UNL     1       0.354  14.065  20.720  0.00  0.00    +0.000 OA
ATOM     24  O   UNL     1       0.923  12.540  18.814  0.00  0.00    +0.000 OA
BRANCH  22  25
ATOM     25  N   UNL     1      -1.532  13.033  19.409  0.00  0.00    +0.000 N 
ATOM     26  H   UNL     1      -1.629  13.936  18.936  0.00  0.00    +0.000 HD
BRANCH  25  27
ATOM     27  C   UNL     1      -2.099  11.917  18.707  0.00  0.00    +0.000 A 
ATOM     28  C   UNL     1      -1.243  11.105  17.958  0.00  0.00    +0.000 A 
ATOM     29  C   UNL     1      -1.753  10.020  17.240  0.00  0.00    +0.000 A 
ATOM     30  C   UNL     1      -3.121   9.745  17.261  0.00  0.00    +0.000 A 
ATOM     31  C   UNL     1      -3.983  10.555  18.001  0.00  0.00    +0.000 A 
ATOM     32  C   UNL     1      -3.476  11.641  18.720  0.00  0.00    +0.000 A 
ATOM     33 CL   UNL     1      -4.577  12.594  19.649  0.00  0.00    +0.000 Cl
ENDBRANCH  25  27
ENDBRANCH  22  25
ENDBRANCH   6  22
TORSDOF 5
ENDMDL
MODEL 7
REMARK VINA RESULT:      -8.0      2.940      7.928
REMARK  Name = 
REMARK  5 active torsions:
REMARK  status: ('A' for Active; 'I' for Inactive)
REMARK    1  A    between atoms: C_2  and  C_22
REMARK    2  A    between atoms: N_3  and  C_4
REMARK    3  A    between atoms: C_9  and  S_10
REMARK    4  A    between atoms: S_10  and  N_13
REMARK    5  A    between atoms: N_13  and  C_14
REMARK                            x       y       z     vdW  Elec       q    Type
REMARK                         _______ _______ _______ _____ _____    ______ ____
ROOT
ATOM      1  C   UNL     1       2.115   6.917  19.794  0.00  0.00    +0.000 A 
ATOM      2  C   UNL     1       1.545   6.204  20.849  0.00  0.00    +0.000 A 
ATOM      3  C   UNL     1       1.879   4.867  21.078  0.00  0.00    +0.000 A 
ATOM      4  C   UNL     1       2.803   4.210  20.262  0.00  0.00    +0.000 A 
ATOM      5 CL   UNL     1       3.173   2.589  20.717  0.00  0.00    +0.000 Cl
ATOM      6  C   UNL     1       3.362   4.901  19.187  0.00  0.00    +0.000 A 
ATOM      7  C   UNL     1       2.986   6.244  18.935  0.00  0.00    +0.000 A 
ENDROOT
BRANCH   1  10
ATOM      8  O   UNL     1       2.210   8.360  17.278  0.00  0.00    +0.000 OA
ATOM      9  C   UNL     1       1.941   8.923  18.340  0.00  0.00    +0.000 C 
ATOM     10  N   UNL     1       1.851   8.284  19.570  0.00  0.00    +0.000 N 
ATOM     11  H   UNL     1       1.461   8.855  20.314  0.00  0.00    +0.000 HD
BRANCH   9  12
ATOM     12  C   UNL     1       1.633  10.361  18.368  0.00  0.00    +0.000 A 
ATOM     13  N   UNL     1       2.522  11.313  18.014  0.00  0.00    +0.000 NA
ATOM     14  N   UNL     1       1.815  12.459  18.128  0.00  0.00    +0.000 N 
ATOM     15  C   UNL     1       0.532  12.299  18.577  0.00  0.00    +0.000 A 
ATOM     16  C   UNL     1      -0.495  13.216  18.831  0.00  0.00    +0.000 A 
ATOM     17  C   UNL     1      -1.713  12.702  19.298  0.00  0.00    +0.000 A 
ATOM     18  C   UNL     1      -1.891  11.334  19.495  0.00  0.00    +0.000 A 
ATOM     19  C   UNL     1      -0.854  10.437  19.223  0.00  0.00    +0.000 A 
ATOM     20  C   UNL     1       0.380  10.931  18.755  0.00  0.00    +0.000 A 
ATOM     21  H   UNL     1       2.271  13.332  17.884  0.00  0.00    +0.000 HD
ENDBRANCH   9  12
ENDBRANCH   1  10
BRANCH   6  22
ATOM     22  S   UNL     1       4.515   4.170  18.052  0.00  0.00    +0.000 S 
ATOM     23  O   UNL     1       5.833   4.127  18.644  0.00  0.00    +0.000 OA
ATOM     24  O   UNL     1       3.908   2.955  17.548  0.00  0.00    +0.000 OA
BRANCH  22  25
ATOM     25  N   UNL     1       4.598   5.319  16.800  0.00  0.00    +0.000 N 
ATOM     26  H   UNL     1       4.710   6.245  17.222  0.00  0.00    +0.000 HD
BRANCH  25  27
ATOM     27  C   UNL     1       5.490   5.037  15.711  0.00  0.00    +0.000 A 
ATOM     28  C   UNL     1       5.031   4.219  14.676  0.00  0.00    +0.000 A 
ATOM     29  C   UNL     1       5.871   3.900  13.607  0.00  0.00    +0.000 A 
ATOM     30  C   UNL     1       7.176   4.392  13.569  0.00  0.00    +0.000 A 
ATOM     31  C   UNL     1       7.645   5.204  14.601  0.00  0.00    +0.000 A 
ATOM     32  C   UNL     1       6.806   5.526  15.673  0.00  0.00    +0.000 A 
ATOM     33 CL   UNL     1       7.420   6.563  16.911  0.00  0.00    +0.000 Cl
ENDBRANCH  25  27
ENDBRANCH  22  25
ENDBRANCH   6  22
TORSDOF 5
ENDMDL
MODEL 8
REMARK VINA RESULT:      -8.0      3.215      8.075
REMARK  Name = 
REMARK  5 active torsions:
REMARK  status: ('A' for Active; 'I' for Inactive)
REMARK    1  A    between atoms: C_2  and  C_22
REMARK    2  A    between atoms: N_3  and  C_4
REMARK    3  A    between atoms: C_9  and  S_10
REMARK    4  A    between atoms: S_10  and  N_13
REMARK    5  A    between atoms: N_13  and  C_14
REMARK                            x       y       z     vdW  Elec       q    Type
REMARK                         _______ _______ _______ _____ _____    ______ ____
ROOT
ATOM      1  C   UNL     1       3.813   7.472  17.335  0.00  0.00    +0.000 A 
ATOM      2  C   UNL     1       4.111   7.442  15.972  0.00  0.00    +0.000 A 
ATOM      3  C   UNL     1       5.005   6.503  15.452  0.00  0.00    +0.000 A 
ATOM      4  C   UNL     1       5.617   5.561  16.281  0.00  0.00    +0.000 A 
ATOM      5 CL   UNL     1       6.632   4.419  15.483  0.00  0.00    +0.000 Cl
ATOM      6  C   UNL     1       5.349   5.595  17.650  0.00  0.00    +0.000 A 
ATOM      7  C   UNL     1       4.475   6.577  18.177  0.00  0.00    +0.000 A 
ENDROOT
BRANCH   1  10
ATOM      8  O   UNL     1       2.148   7.074  19.678  0.00  0.00    +0.000 OA
ATOM      9  C   UNL     1       2.079   8.100  19.000  0.00  0.00    +0.000 C 
ATOM     10  N   UNL     1       2.868   8.362  17.887  0.00  0.00    +0.000 N 
ATOM     11  H   UNL     1       2.805   9.315  17.541  0.00  0.00    +0.000 HD
BRANCH   9  12
ATOM     12  C   UNL     1       1.155   9.182  19.370  0.00  0.00    +0.000 A 
ATOM     13  N   UNL     1       0.643  10.053  18.477  0.00  0.00    +0.000 NA
ATOM     14  N   UNL     1      -0.184  10.819  19.223  0.00  0.00    +0.000 N 
ATOM     15  C   UNL     1      -0.198  10.513  20.557  0.00  0.00    +0.000 A 
ATOM     16  C   UNL     1      -0.897  11.062  21.639  0.00  0.00    +0.000 A 
ATOM     17  C   UNL     1      -0.669  10.500  22.902  0.00  0.00    +0.000 A 
ATOM     18  C   UNL     1       0.214   9.435  23.070  0.00  0.00    +0.000 A 
ATOM     19  C   UNL     1       0.892   8.896  21.973  0.00  0.00    +0.000 A 
ATOM     20  C   UNL     1       0.680   9.447  20.693  0.00  0.00    +0.000 A 
ATOM     21  H   UNL     1      -0.718  11.545  18.759  0.00  0.00    +0.000 HD
ENDBRANCH   9  12
ENDBRANCH   1  10
BRANCH   6  22
ATOM     22  S   UNL     1       6.093   4.481  18.816  0.00  0.00    +0.000 S 
ATOM     23  O   UNL     1       7.423   4.122  18.379  0.00  0.00    +0.000 OA
ATOM     24  O   UNL     1       5.891   5.044  20.135  0.00  0.00    +0.000 OA
BRANCH  22  25
ATOM     25  N   UNL     1       5.150   3.074  18.653  0.00  0.00    +0.000 N 
ATOM     26  H   UNL     1       5.744   2.265  18.854  0.00  0.00    +0.000 HD
BRANCH  25  27
ATOM     27  C   UNL     1       3.872   3.064  19.307  0.00  0.00    +0.000 A 
ATOM     28  C   UNL     1       3.833   2.798  20.678  0.00  0.00    +0.000 A 
ATOM     29  C   UNL     1       2.609   2.755  21.351  0.00  0.00    +0.000 A 
ATOM     30  C   UNL     1       1.419   2.973  20.658  0.00  0.00    +0.000 A 
ATOM     31  C   UNL     1       1.448   3.233  19.288  0.00  0.00    +0.000 A 
ATOM     32  C   UNL     1       2.670   3.276  18.610  0.00  0.00    +0.000 A 
ATOM     33 CL   UNL     1       2.659   3.635  16.921  0.00  0.00    +0.000 Cl
ENDBRANCH  25  27
ENDBRANCH  22  25
ENDBRANCH   6  22
TORSDOF 5
ENDMDL
MODEL 9
REMARK VINA RESULT:      -8.0      4.169      6.673
REMARK  Name = 
REMARK  5 active torsions:
REMARK  status: ('A' for Active; 'I' for Inactive)
REMARK    1  A    between atoms: C_2  and  C_22
REMARK    2  A    between atoms: N_3  and  C_4
REMARK    3  A    between atoms: C_9  and  S_10
REMARK    4  A    between atoms: S_10  and  N_13
REMARK    5  A    between atoms: N_13  and  C_14
REMARK                            x       y       z     vdW  Elec       q    Type
REMARK                         _______ _______ _______ _____ _____    ______ ____
ROOT
ATOM      1  C   UNL     1       1.221   8.684  20.584  0.00  0.00    +0.000 A 
ATOM      2  C   UNL     1       0.535   8.336  21.749  0.00  0.00    +0.000 A 
ATOM      3  C   UNL     1      -0.308   9.250  22.387  0.00  0.00    +0.000 A 
ATOM      4  C   UNL     1      -0.495  10.534  21.870  0.00  0.00    +0.000 A 
ATOM      5 CL   UNL     1      -1.624  11.518  22.721  0.00  0.00    +0.000 Cl
ATOM      6  C   UNL     1       0.204  10.904  20.721  0.00  0.00    +0.000 A 
ATOM      7  C   UNL     1       1.090   9.987  20.103  0.00  0.00    +0.000 A 
ENDROOT
BRANCH   1  10
ATOM      8  O   UNL     1       1.646   8.528  17.718  0.00  0.00    +0.000 OA
ATOM      9  C   UNL     1       2.170   7.730  18.496  0.00  0.00    +0.000 C 
ATOM     10  N   UNL     1       2.030   7.769  19.877  0.00  0.00    +0.000 N 
ATOM     11  H   UNL     1       2.654   7.147  20.383  0.00  0.00    +0.000 HD
BRANCH   9  12
ATOM     12  C   UNL     1       3.058   6.670  17.996  0.00  0.00    +0.000 A 
ATOM     13  N   UNL     1       4.290   6.911  17.502  0.00  0.00    +0.000 NA
ATOM     14  N   UNL     1       4.764   5.677  17.224  0.00  0.00    +0.000 N 
ATOM     15  C   UNL     1       3.886   4.657  17.473  0.00  0.00    +0.000 A 
ATOM     16  C   UNL     1       3.988   3.269  17.315  0.00  0.00    +0.000 A 
ATOM     17  C   UNL     1       2.873   2.499  17.671  0.00  0.00    +0.000 A 
ATOM     18  C   UNL     1       1.714   3.093  18.166  0.00  0.00    +0.000 A 
ATOM     19  C   UNL     1       1.639   4.479  18.327  0.00  0.00    +0.000 A 
ATOM     20  C   UNL     1       2.747   5.274  17.973  0.00  0.00    +0.000 A 
ATOM     21  H   UNL     1       5.706   5.593  16.859  0.00  0.00    +0.000 HD
ENDBRANCH   9  12
ENDBRANCH   1  10
BRANCH   6  22
ATOM     22  S   UNL     1       0.087  12.517  19.987  0.00  0.00    +0.000 S 
ATOM     23  O   UNL     1       0.405  13.531  20.966  0.00  0.00    +0.000 OA
ATOM     24  O   UNL     1       0.808  12.470  18.731  0.00  0.00    +0.000 OA
BRANCH  22  25
ATOM     25  N   UNL     1      -1.579  12.673  19.674  0.00  0.00    +0.000 N 
ATOM     26  H   UNL     1      -1.772  13.652  19.447  0.00  0.00    +0.000 HD
BRANCH  25  27
ATOM     27  C   UNL     1      -2.169  11.716  18.781  0.00  0.00    +0.000 A 
ATOM     28  C   UNL     1      -1.320  10.919  18.011  0.00  0.00    +0.000 A 
ATOM     29  C   UNL     1      -1.850   9.990  17.112  0.00  0.00    +0.000 A 
ATOM     30  C   UNL     1      -3.232   9.856  16.975  0.00  0.00    +0.000 A 
ATOM     31  C   UNL     1      -4.088  10.652  17.736  0.00  0.00    +0.000 A 
ATOM     32  C   UNL     1      -3.560  11.583  18.636  0.00  0.00    +0.000 A 
ATOM     33 CL   UNL     1      -4.659  12.522  19.582  0.00  0.00    +0.000 Cl
ENDBRANCH  25  27
ENDBRANCH  22  25
ENDBRANCH   6  22
TORSDOF 5
ENDMDL
