MODEL 1
REMARK VINA RESULT:      -9.2      0.000      0.000
REMARK  Name = 
REMARK  5 active torsions:
REMARK  status: ('A' for Active; 'I' for Inactive)
REMARK    1  A    between atoms: C_2  and  C_18
REMARK    2  A    between atoms: N_3  and  C_4
REMARK    3  A    between atoms: C_8  and  C_9
REMARK    4  A    between atoms: C_11  and  C_12
REMARK    5  A    between atoms: C_18  and  C_19
REMARK                            x       y       z     vdW  Elec       q    Type
REMARK                         _______ _______ _______ _____ _____    ______ ____
ROOT
ATOM      1  C   UNL     1       2.363   7.478  18.956  0.00  0.00    +0.000 A 
ATOM      2  C   UNL     1       2.366   8.250  17.796  0.00  0.00    +0.000 A 
ATOM      3  C   UNL     1       1.759   9.505  17.782  0.00  0.00    +0.000 A 
ATOM      4  C   UNL     1       1.128   9.993  18.924  0.00  0.00    +0.000 A 
ATOM      5  C   UNL     1       1.104   9.238  20.105  0.00  0.00    +0.000 A 
ATOM      6  C   UNL     1       1.748   7.988  20.112  0.00  0.00    +0.000 A 
ENDROOT
BRANCH   5   7
ATOM      7  C   UNL     1       0.405   9.694  21.310  0.00  0.00    +0.000 A 
ATOM      8  N   UNL     1      -0.604  10.538  21.380  0.00  0.00    +0.000 NA
ATOM      9  C   UNL     1      -0.835  10.668  22.728  0.00  0.00    +0.000 A 
ATOM     10  N   UNL     1      -0.031   9.938  23.503  0.00  0.00    +0.000 NA
ATOM     11  N   UNL     1       0.738   9.338  22.590  0.00  0.00    +0.000 N 
ATOM     12  H   UNL     1       1.476   8.714  22.902  0.00  0.00    +0.000 HD
BRANCH   9  13
ATOM     13  C   UNL     1      -1.899  11.575  23.319  0.00  0.00    +0.000 C 
ATOM     14  C   UNL     1      -2.687  12.476  22.390  0.00  0.00    +0.000 C 
ATOM     15  C   UNL     1      -1.666  13.073  23.295  0.00  0.00    +0.000 C 
ENDBRANCH   9  13
ENDBRANCH   5   7
BRANCH   1  18
ATOM     16  O   UNL     1       1.551   4.901  17.677  0.00  0.00    +0.000 OA
ATOM     17  C   UNL     1       2.525   5.049  18.405  0.00  0.00    +0.000 C 
ATOM     18  N   UNL     1       2.944   6.200  19.038  0.00  0.00    +0.000 N 
ATOM     19  H   UNL     1       3.759   6.114  19.634  0.00  0.00    +0.000 HD
BRANCH  17  20
ATOM     20  C   UNL     1       3.444   3.872  18.649  0.00  0.00    +0.000 C 
ATOM     21  C   UNL     1       2.791   2.509  18.848  0.00  0.00    +0.000 C 
ATOM     22  C   UNL     1       3.414   3.203  20.018  0.00  0.00    +0.000 C 
BRANCH  20  23
ATOM     23  C   UNL     1       4.754   3.962  17.875  0.00  0.00    +0.000 A 
ATOM     24  C   UNL     1       4.783   3.834  16.474  0.00  0.00    +0.000 A 
ATOM     25  C   UNL     1       5.923   4.163  15.732  0.00  0.00    +0.000 A 
ATOM     26  C   UNL     1       7.062   4.623  16.384  0.00  0.00    +0.000 A 
ATOM     27  C   UNL     1       7.068   4.697  17.769  0.00  0.00    +0.000 A 
ATOM     28  F   UNL     1       8.159   5.149  18.403  0.00  0.00    +0.000 F 
ATOM     29  C   UNL     1       5.942   4.356  18.513  0.00  0.00    +0.000 A 
ENDBRANCH  20  23
ENDBRANCH  17  20
ENDBRANCH   1  18
TORSDOF 5
ENDMDL
MODEL 2
REMARK VINA RESULT:      -8.9      0.957      1.330
REMARK  Name = 
REMARK  5 active torsions:
REMARK  status: ('A' for Active; 'I' for Inactive)
REMARK    1  A    between atoms: C_2  and  C_18
REMARK    2  A    between atoms: N_3  and  C_4
REMARK    3  A    between atoms: C_8  and  C_9
REMARK    4  A    between atoms: C_11  and  C_12
REMARK    5  A    between atoms: C_18  and  C_19
REMARK                            x       y       z     vdW  Elec       q    Type
REMARK                         _______ _______ _______ _____ _____    ______ ____
ROOT
ATOM      1  C   UNL     1       2.435   7.623  18.805  0.00  0.00    +0.000 A 
ATOM      2  C   UNL     1       2.325   8.398  17.653  0.00  0.00    +0.000 A 
ATOM      3  C   UNL     1       1.629   9.606  17.679  0.00  0.00    +0.000 A 
ATOM      4  C   UNL     1       1.023  10.043  18.855  0.00  0.00    +0.000 A 
ATOM      5  C   UNL     1       1.111   9.282  20.029  0.00  0.00    +0.000 A 
ATOM      6  C   UNL     1       1.843   8.082  19.994  0.00  0.00    +0.000 A 
ENDROOT
BRANCH   5   7
ATOM      7  C   UNL     1       0.442   9.681  21.271  0.00  0.00    +0.000 A 
ATOM      8  N   UNL     1      -0.568  10.517  21.404  0.00  0.00    +0.000 NA
ATOM      9  C   UNL     1      -0.764  10.585  22.761  0.00  0.00    +0.000 A 
ATOM     10  N   UNL     1       0.063   9.827  23.483  0.00  0.00    +0.000 NA
ATOM     11  N   UNL     1       0.810   9.272  22.525  0.00  0.00    +0.000 N 
ATOM     12  H   UNL     1       1.559   8.638  22.790  0.00  0.00    +0.000 HD
BRANCH   9  13
ATOM     13  C   UNL     1      -1.816  11.460  23.420  0.00  0.00    +0.000 C 
ATOM     14  C   UNL     1      -2.705  12.317  22.541  0.00  0.00    +0.000 C 
ATOM     15  C   UNL     1      -1.643  12.966  23.361  0.00  0.00    +0.000 C 
ENDBRANCH   9  13
ENDBRANCH   5   7
BRANCH   1  18
ATOM     16  O   UNL     1       1.594   4.926  17.828  0.00  0.00    +0.000 OA
ATOM     17  C   UNL     1       2.668   5.178  18.361  0.00  0.00    +0.000 C 
ATOM     18  N   UNL     1       3.110   6.390  18.849  0.00  0.00    +0.000 N 
ATOM     19  H   UNL     1       4.020   6.391  19.293  0.00  0.00    +0.000 HD
BRANCH  17  20
ATOM     20  C   UNL     1       3.695   4.076  18.498  0.00  0.00    +0.000 C 
ATOM     21  C   UNL     1       3.173   2.650  18.636  0.00  0.00    +0.000 C 
ATOM     22  C   UNL     1       3.781   3.327  19.823  0.00  0.00    +0.000 C 
BRANCH  20  23
ATOM     23  C   UNL     1       4.959   4.328  17.683  0.00  0.00    +0.000 A 
ATOM     24  C   UNL     1       6.186   4.615  18.310  0.00  0.00    +0.000 A 
ATOM     25  C   UNL     1       7.391   4.597  17.601  0.00  0.00    +0.000 A 
ATOM     26  C   UNL     1       7.390   4.297  16.243  0.00  0.00    +0.000 A 
ATOM     27  C   UNL     1       6.182   4.072  15.599  0.00  0.00    +0.000 A 
ATOM     28  F   UNL     1       6.174   3.771  14.293  0.00  0.00    +0.000 F 
ATOM     29  C   UNL     1       4.978   4.102  16.296  0.00  0.00    +0.000 A 
ENDBRANCH  20  23
ENDBRANCH  17  20
ENDBRANCH   1  18
TORSDOF 5
ENDMDL
MODEL 3
REMARK VINA RESULT:      -8.4      2.004      3.341
REMARK  Name = 
REMARK  5 active torsions:
REMARK  status: ('A' for Active; 'I' for Inactive)
REMARK    1  A    between atoms: C_2  and  C_18
REMARK    2  A    between atoms: N_3  and  C_4
REMARK    3  A    between atoms: C_8  and  C_9
REMARK    4  A    between atoms: C_11  and  C_12
REMARK    5  A    between atoms: C_18  and  C_19
REMARK                            x       y       z     vdW  Elec       q    Type
REMARK                         _______ _______ _______ _____ _____    ______ ____
ROOT
ATOM      1  C   UNL     1       2.189   7.933  18.887  0.00  0.00    +0.000 A 
ATOM      2  C   UNL     1       2.198   8.761  17.767  0.00  0.00    +0.000 A 
ATOM      3  C   UNL     1       1.583  10.012  17.808  0.00  0.00    +0.000 A 
ATOM      4  C   UNL     1       0.939  10.440  18.967  0.00  0.00    +0.000 A 
ATOM      5  C   UNL     1       0.908   9.627  20.109  0.00  0.00    +0.000 A 
ATOM      6  C   UNL     1       1.560   8.382  20.060  0.00  0.00    +0.000 A 
ENDROOT
BRANCH   5   7
ATOM      7  C   UNL     1       0.195  10.019  21.328  0.00  0.00    +0.000 A 
ATOM      8  N   UNL     1      -0.834  10.836  21.427  0.00  0.00    +0.000 NA
ATOM      9  C   UNL     1      -1.071  10.907  22.777  0.00  0.00    +0.000 A 
ATOM     10  N   UNL     1      -0.252  10.168  23.527  0.00  0.00    +0.000 NA
ATOM     11  N   UNL     1       0.533   9.622  22.594  0.00  0.00    +0.000 N 
ATOM     12  H   UNL     1       1.285   9.004  22.885  0.00  0.00    +0.000 HD
BRANCH   9  13
ATOM     13  C   UNL     1      -2.159  11.766  23.400  0.00  0.00    +0.000 C 
ATOM     14  C   UNL     1      -3.007  12.636  22.495  0.00  0.00    +0.000 C 
ATOM     15  C   UNL     1      -1.990  13.272  23.379  0.00  0.00    +0.000 C 
ENDBRANCH   9  13
ENDBRANCH   5   7
BRANCH   1  18
ATOM     16  O   UNL     1       4.254   6.723  17.096  0.00  0.00    +0.000 OA
ATOM     17  C   UNL     1       3.743   6.164  18.059  0.00  0.00    +0.000 C 
ATOM     18  N   UNL     1       2.777   6.656  18.912  0.00  0.00    +0.000 N 
ATOM     19  H   UNL     1       2.451   6.024  19.633  0.00  0.00    +0.000 HD
BRANCH  17  20
ATOM     20  C   UNL     1       4.213   4.776  18.436  0.00  0.00    +0.000 C 
ATOM     21  C   UNL     1       5.685   4.615  18.799  0.00  0.00    +0.000 C 
ATOM     22  C   UNL     1       5.184   4.062  17.502  0.00  0.00    +0.000 C 
BRANCH  20  23
ATOM     23  C   UNL     1       3.167   3.975  19.203  0.00  0.00    +0.000 A 
ATOM     24  C   UNL     1       3.028   4.105  20.597  0.00  0.00    +0.000 A 
ATOM     25  C   UNL     1       1.922   3.579  21.274  0.00  0.00    +0.000 A 
ATOM     26  C   UNL     1       0.933   2.906  20.564  0.00  0.00    +0.000 A 
ATOM     27  C   UNL     1       1.087   2.718  19.198  0.00  0.00    +0.000 A 
ATOM     28  F   UNL     1       0.134   2.080  18.506  0.00  0.00    +0.000 F 
ATOM     29  C   UNL     1       2.192   3.226  18.522  0.00  0.00    +0.000 A 
ENDBRANCH  20  23
ENDBRANCH  17  20
ENDBRANCH   1  18
TORSDOF 5
ENDMDL
MODEL 4
REMARK VINA RESULT:      -8.3      1.911      3.133
REMARK  Name = 
REMARK  5 active torsions:
REMARK  status: ('A' for Active; 'I' for Inactive)
REMARK    1  A    between atoms: C_2  and  C_18
REMARK    2  A    between atoms: N_3  and  C_4
REMARK    3  A    between atoms: C_8  and  C_9
REMARK    4  A    between atoms: C_11  and  C_12
REMARK    5  A    between atoms: C_18  and  C_19
REMARK                            x       y       z     vdW  Elec       q    Type
REMARK                         _______ _______ _______ _____ _____    ______ ____
ROOT
ATOM      1  C   UNL     1       2.145   8.083  18.734  0.00  0.00    +0.000 A 
ATOM      2  C   UNL     1       2.288   9.013  17.706  0.00  0.00    +0.000 A 
ATOM      3  C   UNL     1       1.792  10.308  17.851  0.00  0.00    +0.000 A 
ATOM      4  C   UNL     1       1.133  10.680  19.021  0.00  0.00    +0.000 A 
ATOM      5  C   UNL     1       0.968   9.766  20.071  0.00  0.00    +0.000 A 
ATOM      6  C   UNL     1       1.501   8.473  19.920  0.00  0.00    +0.000 A 
ENDROOT
BRANCH   5   7
ATOM      7  C   UNL     1       0.234  10.104  21.294  0.00  0.00    +0.000 A 
ATOM      8  N   UNL     1      -0.794  10.921  21.412  0.00  0.00    +0.000 NA
ATOM      9  C   UNL     1      -1.056  10.930  22.760  0.00  0.00    +0.000 A 
ATOM     10  N   UNL     1      -0.254  10.151  23.488  0.00  0.00    +0.000 NA
ATOM     11  N   UNL     1       0.546   9.646  22.546  0.00  0.00    +0.000 N 
ATOM     12  H   UNL     1       1.290   9.011  22.820  0.00  0.00    +0.000 HD
BRANCH   9  13
ATOM     13  C   UNL     1      -2.151  11.763  23.402  0.00  0.00    +0.000 C 
ATOM     14  C   UNL     1      -3.041  12.607  22.512  0.00  0.00    +0.000 C 
ATOM     15  C   UNL     1      -2.022  13.274  23.369  0.00  0.00    +0.000 C 
ENDBRANCH   9  13
ENDBRANCH   5   7
BRANCH   1  18
ATOM     16  O   UNL     1       4.561   6.965  17.376  0.00  0.00    +0.000 OA
ATOM     17  C   UNL     1       3.749   6.310  18.017  0.00  0.00    +0.000 C 
ATOM     18  N   UNL     1       2.609   6.758  18.651  0.00  0.00    +0.000 N 
ATOM     19  H   UNL     1       2.039   6.053  19.102  0.00  0.00    +0.000 HD
BRANCH  17  20
ATOM     20  C   UNL     1       3.987   4.828  18.208  0.00  0.00    +0.000 C 
ATOM     21  C   UNL     1       5.404   4.391  18.562  0.00  0.00    +0.000 C 
ATOM     22  C   UNL     1       4.866   4.101  17.197  0.00  0.00    +0.000 C 
BRANCH  20  23
ATOM     23  C   UNL     1       2.805   4.107  18.846  0.00  0.00    +0.000 A 
ATOM     24  C   UNL     1       1.906   3.352  18.070  0.00  0.00    +0.000 A 
ATOM     25  C   UNL     1       0.978   2.487  18.660  0.00  0.00    +0.000 A 
ATOM     26  C   UNL     1       0.930   2.367  20.045  0.00  0.00    +0.000 A 
ATOM     27  C   UNL     1       1.769   3.150  20.825  0.00  0.00    +0.000 A 
ATOM     28  F   UNL     1       1.734   3.031  22.158  0.00  0.00    +0.000 F 
ATOM     29  C   UNL     1       2.683   4.023  20.244  0.00  0.00    +0.000 A 
ENDBRANCH  20  23
ENDBRANCH  17  20
ENDBRANCH   1  18
TORSDOF 5
ENDMDL
MODEL 5
REMARK VINA RESULT:      -8.2      3.560      9.288
REMARK  Name = 
REMARK  5 active torsions:
REMARK  status: ('A' for Active; 'I' for Inactive)
REMARK    1  A    between atoms: C_2  and  C_18
REMARK    2  A    between atoms: N_3  and  C_4
REMARK    3  A    between atoms: C_8  and  C_9
REMARK    4  A    between atoms: C_11  and  C_12
REMARK    5  A    between atoms: C_18  and  C_19
REMARK                            x       y       z     vdW  Elec       q    Type
REMARK                         _______ _______ _______ _____ _____    ______ ____
ROOT
ATOM      1  C   UNL     1       2.120   7.342  19.520  0.00  0.00    +0.000 A 
ATOM      2  C   UNL     1       1.843   6.316  20.420  0.00  0.00    +0.000 A 
ATOM      3  C   UNL     1       2.481   5.081  20.302  0.00  0.00    +0.000 A 
ATOM      4  C   UNL     1       3.391   4.858  19.270  0.00  0.00    +0.000 A 
ATOM      5  C   UNL     1       3.686   5.869  18.345  0.00  0.00    +0.000 A 
ATOM      6  C   UNL     1       3.057   7.117  18.498  0.00  0.00    +0.000 A 
ENDROOT
BRANCH   5   7
ATOM      7  C   UNL     1       4.595   5.654  17.216  0.00  0.00    +0.000 A 
ATOM      8  N   UNL     1       4.715   4.569  16.479  0.00  0.00    +0.000 NA
ATOM      9  C   UNL     1       5.738   4.868  15.613  0.00  0.00    +0.000 A 
ATOM     10  N   UNL     1       6.256   6.089  15.763  0.00  0.00    +0.000 NA
ATOM     11  N   UNL     1       5.523   6.560  16.775  0.00  0.00    +0.000 N 
ATOM     12  H   UNL     1       5.713   7.494  17.127  0.00  0.00    +0.000 HD
BRANCH   9  13
ATOM     13  C   UNL     1       6.273   3.902  14.571  0.00  0.00    +0.000 C 
ATOM     14  C   UNL     1       6.851   4.461  13.286  0.00  0.00    +0.000 C 
ATOM     15  C   UNL     1       5.529   3.773  13.256  0.00  0.00    +0.000 C 
ENDBRANCH   9  13
ENDBRANCH   5   7
BRANCH   1  18
ATOM     16  O   UNL     1       1.803   9.425  17.400  0.00  0.00    +0.000 OA
ATOM     17  C   UNL     1       1.379   9.518  18.545  0.00  0.00    +0.000 C 
ATOM     18  N   UNL     1       1.505   8.606  19.572  0.00  0.00    +0.000 N 
ATOM     19  H   UNL     1       1.116   8.880  20.467  0.00  0.00    +0.000 HD
BRANCH  17  20
ATOM     20  C   UNL     1       0.576  10.740  18.935  0.00  0.00    +0.000 C 
ATOM     21  C   UNL     1       1.292  12.085  18.891  0.00  0.00    +0.000 C 
ATOM     22  C   UNL     1       0.955  11.476  20.215  0.00  0.00    +0.000 C 
BRANCH  20  23
ATOM     23  C   UNL     1      -0.885  10.661  18.506  0.00  0.00    +0.000 A 
ATOM     24  C   UNL     1      -1.864  11.474  19.105  0.00  0.00    +0.000 A 
ATOM     25  C   UNL     1      -3.146  11.599  18.558  0.00  0.00    +0.000 A 
ATOM     26  C   UNL     1      -3.473  10.904  17.398  0.00  0.00    +0.000 A 
ATOM     27  C   UNL     1      -2.537  10.052  16.831  0.00  0.00    +0.000 A 
ATOM     28  F   UNL     1      -2.841   9.388  15.708  0.00  0.00    +0.000 F 
ATOM     29  C   UNL     1      -1.265   9.913  17.379  0.00  0.00    +0.000 A 
ENDBRANCH  20  23
ENDBRANCH  17  20
ENDBRANCH   1  18
TORSDOF 5
ENDMDL
MODEL 6
REMARK VINA RESULT:      -8.2      3.187      8.786
REMARK  Name = 
REMARK  5 active torsions:
REMARK  status: ('A' for Active; 'I' for Inactive)
REMARK    1  A    between atoms: C_2  and  C_18
REMARK    2  A    between atoms: N_3  and  C_4
REMARK    3  A    between atoms: C_8  and  C_9
REMARK    4  A    between atoms: C_11  and  C_12
REMARK    5  A    between atoms: C_18  and  C_19
REMARK                            x       y       z     vdW  Elec       q    Type
REMARK                         _______ _______ _______ _____ _____    ______ ____
ROOT
ATOM      1  C   UNL     1       2.061   5.524  20.562  0.00  0.00    +0.000 A 
ATOM      2  C   UNL     1       1.519   4.294  20.926  0.00  0.00    +0.000 A 
ATOM      3  C   UNL     1       2.135   3.106  20.532  0.00  0.00    +0.000 A 
ATOM      4  C   UNL     1       3.291   3.139  19.755  0.00  0.00    +0.000 A 
ATOM      5  C   UNL     1       3.858   4.362  19.368  0.00  0.00    +0.000 A 
ATOM      6  C   UNL     1       3.241   5.550  19.800  0.00  0.00    +0.000 A 
ENDROOT
BRANCH   5   7
ATOM      7  C   UNL     1       5.041   4.437  18.507  0.00  0.00    +0.000 A 
ATOM      8  N   UNL     1       5.073   4.633  17.204  0.00  0.00    +0.000 NA
ATOM      9  C   UNL     1       6.408   4.553  16.890  0.00  0.00    +0.000 A 
ATOM     10  N   UNL     1       7.212   4.330  17.931  0.00  0.00    +0.000 NA
ATOM     11  N   UNL     1       6.331   4.260  18.932  0.00  0.00    +0.000 N 
ATOM     12  H   UNL     1       6.668   4.075  19.872  0.00  0.00    +0.000 HD
BRANCH   9  13
ATOM     13  C   UNL     1       6.953   4.684  15.479  0.00  0.00    +0.000 C 
ATOM     14  C   UNL     1       6.049   5.240  14.397  0.00  0.00    +0.000 C 
ATOM     15  C   UNL     1       6.382   3.788  14.398  0.00  0.00    +0.000 C 
ENDBRANCH   9  13
ENDBRANCH   5   7
BRANCH   1  18
ATOM     16  O   UNL     1       2.041   8.131  19.099  0.00  0.00    +0.000 OA
ATOM     17  C   UNL     1       1.501   7.926  20.179  0.00  0.00    +0.000 C 
ATOM     18  N   UNL     1       1.486   6.758  20.913  0.00  0.00    +0.000 N 
ATOM     19  H   UNL     1       1.013   6.796  21.808  0.00  0.00    +0.000 HD
BRANCH  17  20
ATOM     20  C   UNL     1       0.702   9.039  20.823  0.00  0.00    +0.000 C 
ATOM     21  C   UNL     1       1.062   9.413  22.257  0.00  0.00    +0.000 C 
ATOM     22  C   UNL     1      -0.219   8.688  21.986  0.00  0.00    +0.000 C 
BRANCH  20  23
ATOM     23  C   UNL     1       0.307  10.139  19.845  0.00  0.00    +0.000 A 
ATOM     24  C   UNL     1      -0.934  10.114  19.182  0.00  0.00    +0.000 A 
ATOM     25  C   UNL     1      -1.414  11.228  18.486  0.00  0.00    +0.000 A 
ATOM     26  C   UNL     1      -0.654  12.392  18.437  0.00  0.00    +0.000 A 
ATOM     27  C   UNL     1       0.598  12.412  19.034  0.00  0.00    +0.000 A 
ATOM     28  F   UNL     1       1.330  13.533  19.000  0.00  0.00    +0.000 F 
ATOM     29  C   UNL     1       1.087  11.301  19.715  0.00  0.00    +0.000 A 
ENDBRANCH  20  23
ENDBRANCH  17  20
ENDBRANCH   1  18
TORSDOF 5
ENDMDL
MODEL 7
REMARK VINA RESULT:      -8.2      3.844      9.396
REMARK  Name = 
REMARK  5 active torsions:
REMARK  status: ('A' for Active; 'I' for Inactive)
REMARK    1  A    between atoms: C_2  and  C_18
REMARK    2  A    between atoms: N_3  and  C_4
REMARK    3  A    between atoms: C_8  and  C_9
REMARK    4  A    between atoms: C_11  and  C_12
REMARK    5  A    between atoms: C_18  and  C_19
REMARK                            x       y       z     vdW  Elec       q    Type
REMARK                         _______ _______ _______ _____ _____    ______ ____
ROOT
ATOM      1  C   UNL     1       2.084   7.456  19.459  0.00  0.00    +0.000 A 
ATOM      2  C   UNL     1       1.851   6.436  20.378  0.00  0.00    +0.000 A 
ATOM      3  C   UNL     1       2.462   5.191  20.221  0.00  0.00    +0.000 A 
ATOM      4  C   UNL     1       3.300   4.953  19.135  0.00  0.00    +0.000 A 
ATOM      5  C   UNL     1       3.551   5.958  18.190  0.00  0.00    +0.000 A 
ATOM      6  C   UNL     1       2.951   7.216  18.379  0.00  0.00    +0.000 A 
ENDROOT
BRANCH   5   7
ATOM      7  C   UNL     1       4.383   5.728  17.006  0.00  0.00    +0.000 A 
ATOM      8  N   UNL     1       4.712   4.570  16.470  0.00  0.00    +0.000 NA
ATOM      9  C   UNL     1       5.545   4.910  15.433  0.00  0.00    +0.000 A 
ATOM     10  N   UNL     1       5.743   6.222  15.284  0.00  0.00    +0.000 NA
ATOM     11  N   UNL     1       5.005   6.711  16.283  0.00  0.00    +0.000 N 
ATOM     12  H   UNL     1       4.979   7.717  16.429  0.00  0.00    +0.000 HD
BRANCH   9  13
ATOM     13  C   UNL     1       6.217   3.898  14.522  0.00  0.00    +0.000 C 
ATOM     14  C   UNL     1       6.896   4.390  13.260  0.00  0.00    +0.000 C 
ATOM     15  C   UNL     1       5.612   3.642  13.156  0.00  0.00    +0.000 C 
ENDBRANCH   9  13
ENDBRANCH   5   7
BRANCH   1  18
ATOM     16  O   UNL     1       1.915   9.652  17.438  0.00  0.00    +0.000 OA
ATOM     17  C   UNL     1       1.436   9.695  18.564  0.00  0.00    +0.000 C 
ATOM     18  N   UNL     1       1.493   8.729  19.547  0.00  0.00    +0.000 N 
ATOM     19  H   UNL     1       1.065   8.965  20.435  0.00  0.00    +0.000 HD
BRANCH  17  20
ATOM     20  C   UNL     1       0.640  10.913  18.978  0.00  0.00    +0.000 C 
ATOM     21  C   UNL     1       1.396  12.232  19.095  0.00  0.00    +0.000 C 
ATOM     22  C   UNL     1       0.930  11.540  20.337  0.00  0.00    +0.000 C 
BRANCH  20  23
ATOM     23  C   UNL     1      -0.781  10.918  18.425  0.00  0.00    +0.000 A 
ATOM     24  C   UNL     1      -1.203   9.952  17.492  0.00  0.00    +0.000 A 
ATOM     25  C   UNL     1      -2.555   9.787  17.172  0.00  0.00    +0.000 A 
ATOM     26  C   UNL     1      -3.513  10.594  17.778  0.00  0.00    +0.000 A 
ATOM     27  C   UNL     1      -3.105  11.590  18.654  0.00  0.00    +0.000 A 
ATOM     28  F   UNL     1      -4.022  12.363  19.250  0.00  0.00    +0.000 F 
ATOM     29  C   UNL     1      -1.761  11.768  18.965  0.00  0.00    +0.000 A 
ENDBRANCH  20  23
ENDBRANCH  17  20
ENDBRANCH   1  18
TORSDOF 5
ENDMDL
MODEL 8
REMARK VINA RESULT:      -8.0      1.998      3.424
REMARK  Name = 
REMARK  5 active torsions:
REMARK  status: ('A' for Active; 'I' for Inactive)
REMARK    1  A    between atoms: C_2  and  C_18
REMARK    2  A    between atoms: N_3  and  C_4
REMARK    3  A    between atoms: C_8  and  C_9
REMARK    4  A    between atoms: C_11  and  C_12
REMARK    5  A    between atoms: C_18  and  C_19
REMARK                            x       y       z     vdW  Elec       q    Type
REMARK                         _______ _______ _______ _____ _____    ______ ____
ROOT
ATOM      1  C   UNL     1       3.241   5.399  19.046  0.00  0.00    +0.000 A 
ATOM      2  C   UNL     1       2.586   4.284  19.565  0.00  0.00    +0.000 A 
ATOM      3  C   UNL     1       1.530   4.440  20.462  0.00  0.00    +0.000 A 
ATOM      4  C   UNL     1       1.129   5.714  20.860  0.00  0.00    +0.000 A 
ATOM      5  C   UNL     1       1.771   6.855  20.360  0.00  0.00    +0.000 A 
ATOM      6  C   UNL     1       2.814   6.681  19.432  0.00  0.00    +0.000 A 
ENDROOT
BRANCH   5   7
ATOM      7  C   UNL     1       1.414   8.208  20.795  0.00  0.00    +0.000 A 
ATOM      8  N   UNL     1       1.002   9.209  20.044  0.00  0.00    +0.000 NA
ATOM      9  C   UNL     1       0.870  10.252  20.927  0.00  0.00    +0.000 A 
ATOM     10  N   UNL     1       1.165   9.952  22.193  0.00  0.00    +0.000 NA
ATOM     11  N   UNL     1       1.505   8.665  22.083  0.00  0.00    +0.000 N 
ATOM     12  H   UNL     1       1.802   8.162  22.914  0.00  0.00    +0.000 HD
BRANCH   9  13
ATOM     13  C   UNL     1       0.442  11.652  20.522  0.00  0.00    +0.000 C 
ATOM     14  C   UNL     1       0.711  12.115  19.104  0.00  0.00    +0.000 C 
ATOM     15  C   UNL     1       1.518  12.678  20.223  0.00  0.00    +0.000 C 
ENDBRANCH   9  13
ENDBRANCH   5   7
BRANCH   1  18
ATOM     16  O   UNL     1       3.620   3.671  16.637  0.00  0.00    +0.000 OA
ATOM     17  C   UNL     1       4.424   4.501  17.040  0.00  0.00    +0.000 C 
ATOM     18  N   UNL     1       4.320   5.315  18.148  0.00  0.00    +0.000 N 
ATOM     19  H   UNL     1       5.113   5.916  18.341  0.00  0.00    +0.000 HD
BRANCH  17  20
ATOM     20  C   UNL     1       5.692   4.740  16.248  0.00  0.00    +0.000 C 
ATOM     21  C   UNL     1       5.545   4.944  14.744  0.00  0.00    +0.000 C 
ATOM     22  C   UNL     1       6.139   3.670  15.259  0.00  0.00    +0.000 C 
BRANCH  20  23
ATOM     23  C   UNL     1       6.731   5.555  17.010  0.00  0.00    +0.000 A 
ATOM     24  C   UNL     1       6.904   6.930  16.762  0.00  0.00    +0.000 A 
ATOM     25  C   UNL     1       7.662   7.737  17.617  0.00  0.00    +0.000 A 
ATOM     26  C   UNL     1       8.270   7.178  18.737  0.00  0.00    +0.000 A 
ATOM     27  C   UNL     1       8.159   5.814  18.959  0.00  0.00    +0.000 A 
ATOM     28  F   UNL     1       8.732   5.271  20.042  0.00  0.00    +0.000 F 
ATOM     29  C   UNL     1       7.417   5.003  18.105  0.00  0.00    +0.000 A 
ENDBRANCH  20  23
ENDBRANCH  17  20
ENDBRANCH   1  18
TORSDOF 5
ENDMDL
MODEL 9
REMARK VINA RESULT:      -8.0      3.320      8.832
REMARK  Name = 
REMARK  5 active torsions:
REMARK  status: ('A' for Active; 'I' for Inactive)
REMARK    1  A    between atoms: C_2  and  C_18
REMARK    2  A    between atoms: N_3  and  C_4
REMARK    3  A    between atoms: C_8  and  C_9
REMARK    4  A    between atoms: C_11  and  C_12
REMARK    5  A    between atoms: C_18  and  C_19
REMARK                            x       y       z     vdW  Elec       q    Type
REMARK                         _______ _______ _______ _____ _____    ______ ____
ROOT
ATOM      1  C   UNL     1       1.837   5.587  20.504  0.00  0.00    +0.000 A 
ATOM      2  C   UNL     1       1.128   4.396  20.642  0.00  0.00    +0.000 A 
ATOM      3  C   UNL     1       1.623   3.212  20.096  0.00  0.00    +0.000 A 
ATOM      4  C   UNL     1       2.827   3.212  19.395  0.00  0.00    +0.000 A 
ATOM      5  C   UNL     1       3.562   4.395  19.235  0.00  0.00    +0.000 A 
ATOM      6  C   UNL     1       3.063   5.574  19.818  0.00  0.00    +0.000 A 
ENDROOT
BRANCH   5   7
ATOM      7  C   UNL     1       4.804   4.446  18.458  0.00  0.00    +0.000 A 
ATOM      8  N   UNL     1       4.929   4.617  17.158  0.00  0.00    +0.000 NA
ATOM      9  C   UNL     1       6.282   4.521  16.941  0.00  0.00    +0.000 A 
ATOM     10  N   UNL     1       7.009   4.312  18.040  0.00  0.00    +0.000 NA
ATOM     11  N   UNL     1       6.059   4.267  18.976  0.00  0.00    +0.000 N 
ATOM     12  H   UNL     1       6.327   4.098  19.942  0.00  0.00    +0.000 HD
BRANCH   9  13
ATOM     13  C   UNL     1       6.926   4.622  15.569  0.00  0.00    +0.000 C 
ATOM     14  C   UNL     1       6.142   5.261  14.441  0.00  0.00    +0.000 C 
ATOM     15  C   UNL     1       6.355   3.787  14.440  0.00  0.00    +0.000 C 
ENDBRANCH   9  13
ENDBRANCH   5   7
BRANCH   1  18
ATOM     16  O   UNL     1       1.893   8.318  19.291  0.00  0.00    +0.000 OA
ATOM     17  C   UNL     1       1.433   8.047  20.393  0.00  0.00    +0.000 C 
ATOM     18  N   UNL     1       1.391   6.818  21.017  0.00  0.00    +0.000 N 
ATOM     19  H   UNL     1       1.001   6.801  21.952  0.00  0.00    +0.000 HD
BRANCH  17  20
ATOM     20  C   UNL     1       0.780   9.144  21.205  0.00  0.00    +0.000 C 
ATOM     21  C   UNL     1       1.336   9.400  22.602  0.00  0.00    +0.000 C 
ATOM     22  C   UNL     1      -0.004   8.752  22.453  0.00  0.00    +0.000 C 
BRANCH  20  23
ATOM     23  C   UNL     1       0.322  10.327  20.360  0.00  0.00    +0.000 A 
ATOM     24  C   UNL     1       1.122  11.477  20.223  0.00  0.00    +0.000 A 
ATOM     25  C   UNL     1       0.840  12.453  19.261  0.00  0.00    +0.000 A 
ATOM     26  C   UNL     1      -0.256  12.298  18.419  0.00  0.00    +0.000 A 
ATOM     27  C   UNL     1      -1.088  11.200  18.583  0.00  0.00    +0.000 A 
ATOM     28  F   UNL     1      -2.139  11.038  17.769  0.00  0.00    +0.000 F 
ATOM     29  C   UNL     1      -0.821  10.233  19.548  0.00  0.00    +0.000 A 
ENDBRANCH  20  23
ENDBRANCH  17  20
ENDBRANCH   1  18
TORSDOF 5
ENDMDL
