MODEL 1
REMARK VINA RESULT:      -9.2      0.000      0.000
REMARK  Name = 
REMARK  5 active torsions:
REMARK  status: ('A' for Active; 'I' for Inactive)
REMARK    1  A    between atoms: C_1  and  N_2
REMARK    2  A    between atoms: C_8  and  C_9
REMARK    3  A    between atoms: C_12  and  C_13
REMARK    4  A    between atoms: N_16  and  C_17
REMARK    5  A    between atoms: C_20  and  C_21
REMARK                            x       y       z     vdW  Elec       q    Type
REMARK                         _______ _______ _______ _____ _____    ______ ____
ROOT
ATOM      1  C   UNL     1       8.517   9.276  18.249  0.00  0.00    +0.000 A 
ATOM      2  N   UNL     1       7.760   9.368  17.145  0.00  0.00    +0.000 NA
ATOM      3  O   UNL     1       7.317   8.068  16.939  0.00  0.00    +0.000 OA
ATOM      4  C   UNL     1       7.842   7.314  17.945  0.00  0.00    +0.000 A 
ATOM      5  N   UNL     1       8.586   8.004  18.779  0.00  0.00    +0.000 NA
ENDROOT
BRANCH   1  13
ATOM      6  C   UNL     1      11.523  13.727  16.734  0.00  0.00    +0.000 C 
ATOM      7  N   UNL     1      11.261  13.453  18.126  0.00  0.00    +0.000 N 
ATOM      8  N   UNL     1      11.764  14.272  19.071  0.00  0.00    +0.000 NA
ATOM      9  C   UNL     1      11.351  13.720  20.215  0.00  0.00    +0.000 A 
ATOM     10  C   UNL     1      10.586  12.552  20.012  0.00  0.00    +0.000 A 
ATOM     11  C   UNL     1       9.935  11.618  20.835  0.00  0.00    +0.000 A 
ATOM     12  C   UNL     1       9.252  10.552  20.237  0.00  0.00    +0.000 A 
ATOM     13  C   UNL     1       9.219  10.403  18.843  0.00  0.00    +0.000 A 
ATOM     14  C   UNL     1       9.870  11.333  18.013  0.00  0.00    +0.000 A 
ATOM     15  C   UNL     1      10.542  12.397  18.630  0.00  0.00    +0.000 A 
ENDBRANCH   1  13
BRANCH   4  16
ATOM     16  C   UNL     1       7.516   5.868  17.920  0.00  0.00    +0.000 C 
ATOM     17  C   UNL     1       6.675   5.461  16.705  0.00  0.00    +0.000 C 
ATOM     18  C   UNL     1       5.244   5.489  17.214  0.00  0.00    +0.000 C 
ATOM     19  N   UNL     1       5.406   5.013  18.578  0.00  0.00    +0.000 N 
ATOM     20  C   UNL     1       6.674   5.467  19.142  0.00  0.00    +0.000 C 
BRANCH  19  21
ATOM     21  C   UNL     1       4.408   4.441  19.327  0.00  0.00    +0.000 A 
ATOM     22  C   UNL     1       4.457   3.070  19.615  0.00  0.00    +0.000 A 
ATOM     23  C   UNL     1       3.529   2.463  20.462  0.00  0.00    +0.000 A 
ATOM     24  C   UNL     1       2.496   3.214  21.022  0.00  0.00    +0.000 A 
ATOM     25  C   UNL     1       2.397   4.573  20.728  0.00  0.00    +0.000 A 
ATOM     26  C   UNL     1       3.345   5.167  19.894  0.00  0.00    +0.000 A 
ATOM     27  F   UNL     1       3.211   6.483  19.658  0.00  0.00    +0.000 F 
BRANCH  24  28
ATOM     28  C   UNL     1       1.549   2.594  21.893  0.00  0.00    +0.000 C 
ATOM     29  N   UNL     1       0.772   2.089  22.605  0.00  0.00    +0.000 NA
ENDBRANCH  24  28
ENDBRANCH  19  21
ENDBRANCH   4  16
TORSDOF 4
ENDMDL
MODEL 2
REMARK VINA RESULT:      -8.4      1.769      2.144
REMARK  Name = 
REMARK  5 active torsions:
REMARK  status: ('A' for Active; 'I' for Inactive)
REMARK    1  A    between atoms: C_1  and  N_2
REMARK    2  A    between atoms: C_8  and  C_9
REMARK    3  A    between atoms: C_12  and  C_13
REMARK    4  A    between atoms: N_16  and  C_17
REMARK    5  A    between atoms: C_20  and  C_21
REMARK                            x       y       z     vdW  Elec       q    Type
REMARK                         _______ _______ _______ _____ _____    ______ ____
ROOT
ATOM      1  C   UNL     1       8.660   9.640  18.161  0.00  0.00    +0.000 A 
ATOM      2  N   UNL     1       9.083   8.841  19.153  0.00  0.00    +0.000 NA
ATOM      3  O   UNL     1       8.486   7.619  18.870  0.00  0.00    +0.000 OA
ATOM      4  C   UNL     1       7.764   7.794  17.728  0.00  0.00    +0.000 A 
ATOM      5  N   UNL     1       7.836   9.014  17.249  0.00  0.00    +0.000 NA
ENDROOT
BRANCH   1  13
ATOM      6  C   UNL     1       6.247  14.662  17.842  0.00  0.00    +0.000 C 
ATOM      7  N   UNL     1       7.685  14.531  17.816  0.00  0.00    +0.000 N 
ATOM      8  N   UNL     1       8.451  15.633  17.695  0.00  0.00    +0.000 NA
ATOM      9  C   UNL     1       9.695  15.149  17.687  0.00  0.00    +0.000 A 
ATOM     10  C   UNL     1       9.735  13.743  17.802  0.00  0.00    +0.000 A 
ATOM     11  C   UNL     1      10.740  12.763  17.842  0.00  0.00    +0.000 A 
ATOM     12  C   UNL     1      10.368  11.419  17.970  0.00  0.00    +0.000 A 
ATOM     13  C   UNL     1       9.019  11.045  18.047  0.00  0.00    +0.000 A 
ATOM     14  C   UNL     1       8.007  12.021  18.005  0.00  0.00    +0.000 A 
ATOM     15  C   UNL     1       8.400  13.361  17.884  0.00  0.00    +0.000 A 
ENDBRANCH   1  13
BRANCH   4  16
ATOM     16  C   UNL     1       7.013   6.613  17.239  0.00  0.00    +0.000 C 
ATOM     17  C   UNL     1       5.774   6.985  16.417  0.00  0.00    +0.000 C 
ATOM     18  C   UNL     1       4.633   6.946  17.421  0.00  0.00    +0.000 C 
ATOM     19  N   UNL     1       5.027   5.834  18.271  0.00  0.00    +0.000 N 
ATOM     20  C   UNL     1       6.479   5.771  18.409  0.00  0.00    +0.000 C 
BRANCH  19  21
ATOM     21  C   UNL     1       4.162   5.103  19.047  0.00  0.00    +0.000 A 
ATOM     22  C   UNL     1       4.374   3.727  19.212  0.00  0.00    +0.000 A 
ATOM     23  C   UNL     1       3.590   2.961  20.076  0.00  0.00    +0.000 A 
ATOM     24  C   UNL     1       2.541   3.553  20.780  0.00  0.00    +0.000 A 
ATOM     25  C   UNL     1       2.281   4.912  20.612  0.00  0.00    +0.000 A 
ATOM     26  C   UNL     1       3.086   5.666  19.757  0.00  0.00    +0.000 A 
ATOM     27  F   UNL     1       2.801   6.974  19.645  0.00  0.00    +0.000 F 
BRANCH  24  28
ATOM     28  C   UNL     1       1.742   2.771  21.668  0.00  0.00    +0.000 C 
ATOM     29  N   UNL     1       1.088   2.133  22.397  0.00  0.00    +0.000 NA
ENDBRANCH  24  28
ENDBRANCH  19  21
ENDBRANCH   4  16
TORSDOF 4
ENDMDL
MODEL 3
REMARK VINA RESULT:      -8.4      1.313      1.763
REMARK  Name = 
REMARK  5 active torsions:
REMARK  status: ('A' for Active; 'I' for Inactive)
REMARK    1  A    between atoms: C_1  and  N_2
REMARK    2  A    between atoms: C_8  and  C_9
REMARK    3  A    between atoms: C_12  and  C_13
REMARK    4  A    between atoms: N_16  and  C_17
REMARK    5  A    between atoms: C_20  and  C_21
REMARK                            x       y       z     vdW  Elec       q    Type
REMARK                         _______ _______ _______ _____ _____    ______ ____
ROOT
ATOM      1  C   UNL     1       8.546   9.772  18.206  0.00  0.00    +0.000 A 
ATOM      2  N   UNL     1       9.072   9.044  19.203  0.00  0.00    +0.000 NA
ATOM      3  O   UNL     1       8.605   7.759  18.956  0.00  0.00    +0.000 OA
ATOM      4  C   UNL     1       7.847   7.832  17.826  0.00  0.00    +0.000 A 
ATOM      5  N   UNL     1       7.778   9.043  17.323  0.00  0.00    +0.000 NA
ENDROOT
BRANCH   1  13
ATOM      6  C   UNL     1      12.331  13.702  19.380  0.00  0.00    +0.000 C 
ATOM      7  N   UNL     1      11.094  14.043  18.720  0.00  0.00    +0.000 N 
ATOM      8  N   UNL     1      10.843  15.328  18.400  0.00  0.00    +0.000 NA
ATOM      9  C   UNL     1       9.634  15.279  17.835  0.00  0.00    +0.000 A 
ATOM     10  C   UNL     1       9.106  13.972  17.789  0.00  0.00    +0.000 A 
ATOM     11  C   UNL     1       7.920  13.379  17.323  0.00  0.00    +0.000 A 
ATOM     12  C   UNL     1       7.758  11.995  17.460  0.00  0.00    +0.000 A 
ATOM     13  C   UNL     1       8.749  11.205  18.060  0.00  0.00    +0.000 A 
ATOM     14  C   UNL     1       9.937  11.792  18.531  0.00  0.00    +0.000 A 
ATOM     15  C   UNL     1      10.084  13.177  18.378  0.00  0.00    +0.000 A 
ENDBRANCH   1  13
BRANCH   4  16
ATOM     16  C   UNL     1       7.218   6.568  17.374  0.00  0.00    +0.000 C 
ATOM     17  C   UNL     1       6.048   6.788  16.408  0.00  0.00    +0.000 C 
ATOM     18  C   UNL     1       4.817   6.755  17.299  0.00  0.00    +0.000 C 
ATOM     19  N   UNL     1       5.187   5.747  18.278  0.00  0.00    +0.000 N 
ATOM     20  C   UNL     1       6.620   5.792  18.558  0.00  0.00    +0.000 C 
BRANCH  19  21
ATOM     21  C   UNL     1       4.293   5.026  19.029  0.00  0.00    +0.000 A 
ATOM     22  C   UNL     1       4.501   3.654  19.228  0.00  0.00    +0.000 A 
ATOM     23  C   UNL     1       3.685   2.901  20.072  0.00  0.00    +0.000 A 
ATOM     24  C   UNL     1       2.605   3.501  20.720  0.00  0.00    +0.000 A 
ATOM     25  C   UNL     1       2.349   4.856  20.518  0.00  0.00    +0.000 A 
ATOM     26  C   UNL     1       3.187   5.597  19.685  0.00  0.00    +0.000 A 
ATOM     27  F   UNL     1       2.902   6.903  19.538  0.00  0.00    +0.000 F 
BRANCH  24  28
ATOM     28  C   UNL     1       1.772   2.731  21.589  0.00  0.00    +0.000 C 
ATOM     29  N   UNL     1       1.092   2.102  22.301  0.00  0.00    +0.000 NA
ENDBRANCH  24  28
ENDBRANCH  19  21
ENDBRANCH   4  16
TORSDOF 4
ENDMDL
MODEL 4
REMARK VINA RESULT:      -8.3      1.013      1.025
REMARK  Name = 
REMARK  5 active torsions:
REMARK  status: ('A' for Active; 'I' for Inactive)
REMARK    1  A    between atoms: C_1  and  N_2
REMARK    2  A    between atoms: C_8  and  C_9
REMARK    3  A    between atoms: C_12  and  C_13
REMARK    4  A    between atoms: N_16  and  C_17
REMARK    5  A    between atoms: C_20  and  C_21
REMARK                            x       y       z     vdW  Elec       q    Type
REMARK                         _______ _______ _______ _____ _____    ______ ____
ROOT
ATOM      1  C   UNL     1       8.527   9.776  18.301  0.00  0.00    +0.000 A 
ATOM      2  N   UNL     1       7.597   9.878  17.339  0.00  0.00    +0.000 NA
ATOM      3  O   UNL     1       7.193   8.565  17.130  0.00  0.00    +0.000 OA
ATOM      4  C   UNL     1       7.912   7.795  17.994  0.00  0.00    +0.000 A 
ATOM      5  N   UNL     1       8.745   8.486  18.737  0.00  0.00    +0.000 NA
ENDROOT
BRANCH   1  13
ATOM      6  C   UNL     1       8.678  15.342  17.920  0.00  0.00    +0.000 C 
ATOM      7  N   UNL     1       9.590  14.637  18.788  0.00  0.00    +0.000 N 
ATOM      8  N   UNL     1      10.500  15.330  19.500  0.00  0.00    +0.000 NA
ATOM      9  C   UNL     1      11.171  14.381  20.159  0.00  0.00    +0.000 A 
ATOM     10  C   UNL     1      10.697  13.083  19.876  0.00  0.00    +0.000 A 
ATOM     11  C   UNL     1      11.031  11.778  20.277  0.00  0.00    +0.000 A 
ATOM     12  C   UNL     1      10.299  10.704  19.756  0.00  0.00    +0.000 A 
ATOM     13  C   UNL     1       9.258  10.912  18.841  0.00  0.00    +0.000 A 
ATOM     14  C   UNL     1       8.920  12.214  18.433  0.00  0.00    +0.000 A 
ATOM     15  C   UNL     1       9.659  13.277  18.970  0.00  0.00    +0.000 A 
ENDBRANCH   1  13
BRANCH   4  16
ATOM     16  C   UNL     1       7.660   6.335  17.937  0.00  0.00    +0.000 C 
ATOM     17  C   UNL     1       6.881   5.907  16.687  0.00  0.00    +0.000 C 
ATOM     18  C   UNL     1       5.433   5.856  17.149  0.00  0.00    +0.000 C 
ATOM     19  N   UNL     1       5.574   5.366  18.510  0.00  0.00    +0.000 N 
ATOM     20  C   UNL     1       6.799   5.873  19.123  0.00  0.00    +0.000 C 
BRANCH  19  21
ATOM     21  C   UNL     1       4.582   4.733  19.216  0.00  0.00    +0.000 A 
ATOM     22  C   UNL     1       4.690   3.361  19.483  0.00  0.00    +0.000 A 
ATOM     23  C   UNL     1       3.766   2.694  20.289  0.00  0.00    +0.000 A 
ATOM     24  C   UNL     1       2.680   3.384  20.827  0.00  0.00    +0.000 A 
ATOM     25  C   UNL     1       2.524   4.742  20.553  0.00  0.00    +0.000 A 
ATOM     26  C   UNL     1       3.467   5.396  19.760  0.00  0.00    +0.000 A 
ATOM     27  F   UNL     1       3.277   6.708  19.541  0.00  0.00    +0.000 F 
BRANCH  24  28
ATOM     28  C   UNL     1       1.737   2.703  21.656  0.00  0.00    +0.000 C 
ATOM     29  N   UNL     1       0.963   2.148  22.333  0.00  0.00    +0.000 NA
ENDBRANCH  24  28
ENDBRANCH  19  21
ENDBRANCH   4  16
TORSDOF 4
ENDMDL
MODEL 5
REMARK VINA RESULT:      -8.3      0.985      1.750
REMARK  Name = 
REMARK  5 active torsions:
REMARK  status: ('A' for Active; 'I' for Inactive)
REMARK    1  A    between atoms: C_1  and  N_2
REMARK    2  A    between atoms: C_8  and  C_9
REMARK    3  A    between atoms: C_12  and  C_13
REMARK    4  A    between atoms: N_16  and  C_17
REMARK    5  A    between atoms: C_20  and  C_21
REMARK                            x       y       z     vdW  Elec       q    Type
REMARK                         _______ _______ _______ _____ _____    ______ ____
ROOT
ATOM      1  C   UNL     1       8.495   9.378  18.183  0.00  0.00    +0.000 A 
ATOM      2  N   UNL     1       7.592   9.408  17.189  0.00  0.00    +0.000 NA
ATOM      3  O   UNL     1       7.185   8.085  17.072  0.00  0.00    +0.000 OA
ATOM      4  C   UNL     1       7.875   7.381  18.013  0.00  0.00    +0.000 A 
ATOM      5  N   UNL     1       8.691   8.125  18.724  0.00  0.00    +0.000 NA
ENDROOT
BRANCH   1  13
ATOM      6  C   UNL     1       8.712  12.790  22.593  0.00  0.00    +0.000 C 
ATOM      7  N   UNL     1       9.585  12.990  21.462  0.00  0.00    +0.000 N 
ATOM      8  N   UNL     1      10.450  14.024  21.464  0.00  0.00    +0.000 NA
ATOM      9  C   UNL     1      11.067  13.917  20.285  0.00  0.00    +0.000 A 
ATOM     10  C   UNL     1      10.607  12.822  19.525  0.00  0.00    +0.000 A 
ATOM     11  C   UNL     1      10.900  12.274  18.265  0.00  0.00    +0.000 A 
ATOM     12  C   UNL     1      10.202  11.135  17.844  0.00  0.00    +0.000 A 
ATOM     13  C   UNL     1       9.218  10.549  18.652  0.00  0.00    +0.000 A 
ATOM     14  C   UNL     1       8.917  11.093  19.914  0.00  0.00    +0.000 A 
ATOM     15  C   UNL     1       9.631  12.229  20.320  0.00  0.00    +0.000 A 
ENDBRANCH   1  13
BRANCH   4  16
ATOM     16  C   UNL     1       7.615   5.923  18.063  0.00  0.00    +0.000 C 
ATOM     17  C   UNL     1       6.867   5.402  16.830  0.00  0.00    +0.000 C 
ATOM     18  C   UNL     1       5.407   5.394  17.254  0.00  0.00    +0.000 C 
ATOM     19  N   UNL     1       5.508   5.011  18.653  0.00  0.00    +0.000 N 
ATOM     20  C   UNL     1       6.719   5.559  19.258  0.00  0.00    +0.000 C 
BRANCH  19  21
ATOM     21  C   UNL     1       4.493   4.439  19.379  0.00  0.00    +0.000 A 
ATOM     22  C   UNL     1       4.552   3.075  19.696  0.00  0.00    +0.000 A 
ATOM     23  C   UNL     1       3.604   2.471  20.522  0.00  0.00    +0.000 A 
ATOM     24  C   UNL     1       2.541   3.218  21.032  0.00  0.00    +0.000 A 
ATOM     25  C   UNL     1       2.434   4.569  20.708  0.00  0.00    +0.000 A 
ATOM     26  C   UNL     1       3.401   5.160  19.894  0.00  0.00    +0.000 A 
ATOM     27  F   UNL     1       3.257   6.470  19.627  0.00  0.00    +0.000 F 
BRANCH  24  28
ATOM     28  C   UNL     1       1.574   2.602  21.882  0.00  0.00    +0.000 C 
ATOM     29  N   UNL     1       0.780   2.099  22.578  0.00  0.00    +0.000 NA
ENDBRANCH  24  28
ENDBRANCH  19  21
ENDBRANCH   4  16
TORSDOF 4
ENDMDL
MODEL 6
REMARK VINA RESULT:      -8.1      6.962     10.176
REMARK  Name = 
REMARK  5 active torsions:
REMARK  status: ('A' for Active; 'I' for Inactive)
REMARK    1  A    between atoms: C_1  and  N_2
REMARK    2  A    between atoms: C_8  and  C_9
REMARK    3  A    between atoms: C_12  and  C_13
REMARK    4  A    between atoms: N_16  and  C_17
REMARK    5  A    between atoms: C_20  and  C_21
REMARK                            x       y       z     vdW  Elec       q    Type
REMARK                         _______ _______ _______ _____ _____    ______ ____
ROOT
ATOM      1  C   UNL     1       2.080   8.197  18.652  0.00  0.00    +0.000 A 
ATOM      2  N   UNL     1       2.562   8.653  17.486  0.00  0.00    +0.000 NA
ATOM      3  O   UNL     1       2.081   9.955  17.416  0.00  0.00    +0.000 OA
ATOM      4  C   UNL     1       1.361  10.164  18.554  0.00  0.00    +0.000 A 
ATOM      5  N   UNL     1       1.328   9.119  19.348  0.00  0.00    +0.000 NA
ENDROOT
BRANCH   1  13
ATOM      6  C   UNL     1       4.513   3.420  17.099  0.00  0.00    +0.000 C 
ATOM      7  N   UNL     1       3.851   3.530  18.377  0.00  0.00    +0.000 N 
ATOM      8  N   UNL     1       3.805   2.460  19.196  0.00  0.00    +0.000 NA
ATOM      9  C   UNL     1       3.118   2.904  20.252  0.00  0.00    +0.000 A 
ATOM     10  C   UNL     1       2.723   4.252  20.118  0.00  0.00    +0.000 A 
ATOM     11  C   UNL     1       2.008   5.175  20.898  0.00  0.00    +0.000 A 
ATOM     12  C   UNL     1       1.815   6.471  20.404  0.00  0.00    +0.000 A 
ATOM     13  C   UNL     1       2.312   6.849  19.149  0.00  0.00    +0.000 A 
ATOM     14  C   UNL     1       3.027   5.930  18.361  0.00  0.00    +0.000 A 
ATOM     15  C   UNL     1       3.216   4.640  18.876  0.00  0.00    +0.000 A 
ENDBRANCH   1  13
BRANCH   4  16
ATOM     16  C   UNL     1       0.726  11.496  18.692  0.00  0.00    +0.000 C 
ATOM     17  C   UNL     1       1.477  12.424  19.654  0.00  0.00    +0.000 C 
ATOM     18  C   UNL     1       0.755  12.252  20.980  0.00  0.00    +0.000 C 
ATOM     19  N   UNL     1      -0.623  12.091  20.548  0.00  0.00    +0.000 N 
ATOM     20  C   UNL     1      -0.692  11.378  19.275  0.00  0.00    +0.000 C 
BRANCH  19  21
ATOM     21  C   UNL     1      -1.720  12.338  21.335  0.00  0.00    +0.000 A 
ATOM     22  C   UNL     1      -2.830  12.999  20.790  0.00  0.00    +0.000 A 
ATOM     23  C   UNL     1      -4.009  13.175  21.515  0.00  0.00    +0.000 A 
ATOM     24  C   UNL     1      -4.098  12.719  22.830  0.00  0.00    +0.000 A 
ATOM     25  C   UNL     1      -3.001  12.089  23.414  0.00  0.00    +0.000 A 
ATOM     26  C   UNL     1      -1.836  11.905  22.668  0.00  0.00    +0.000 A 
ATOM     27  F   UNL     1      -0.815  11.277  23.276  0.00  0.00    +0.000 F 
BRANCH  24  28
ATOM     28  C   UNL     1      -5.306  12.895  23.570  0.00  0.00    +0.000 C 
ATOM     29  N   UNL     1      -6.297  13.037  24.174  0.00  0.00    +0.000 NA
ENDBRANCH  24  28
ENDBRANCH  19  21
ENDBRANCH   4  16
TORSDOF 4
ENDMDL
MODEL 7
REMARK VINA RESULT:      -8.1      6.967      9.677
REMARK  Name = 
REMARK  5 active torsions:
REMARK  status: ('A' for Active; 'I' for Inactive)
REMARK    1  A    between atoms: C_1  and  N_2
REMARK    2  A    between atoms: C_8  and  C_9
REMARK    3  A    between atoms: C_12  and  C_13
REMARK    4  A    between atoms: N_16  and  C_17
REMARK    5  A    between atoms: C_20  and  C_21
REMARK                            x       y       z     vdW  Elec       q    Type
REMARK                         _______ _______ _______ _____ _____    ______ ____
ROOT
ATOM      1  C   UNL     1       2.222   7.677  18.781  0.00  0.00    +0.000 A 
ATOM      2  N   UNL     1       1.901   7.751  20.082  0.00  0.00    +0.000 NA
ATOM      3  O   UNL     1       1.223   8.959  20.187  0.00  0.00    +0.000 OA
ATOM      4  C   UNL     1       1.190   9.496  18.935  0.00  0.00    +0.000 A 
ATOM      5  N   UNL     1       1.787   8.752  18.034  0.00  0.00    +0.000 NA
ENDROOT
BRANCH   1  13
ATOM      6  C   UNL     1       7.321   6.523  16.829  0.00  0.00    +0.000 C 
ATOM      7  N   UNL     1       6.285   5.518  16.826  0.00  0.00    +0.000 N 
ATOM      8  N   UNL     1       6.548   4.293  16.329  0.00  0.00    +0.000 NA
ATOM      9  C   UNL     1       5.388   3.646  16.463  0.00  0.00    +0.000 A 
ATOM     10  C   UNL     1       4.381   4.445  17.044  0.00  0.00    +0.000 A 
ATOM     11  C   UNL     1       3.032   4.270  17.396  0.00  0.00    +0.000 A 
ATOM     12  C   UNL     1       2.341   5.342  17.975  0.00  0.00    +0.000 A 
ATOM     13  C   UNL     1       2.969   6.575  18.195  0.00  0.00    +0.000 A 
ATOM     14  C   UNL     1       4.318   6.759  17.844  0.00  0.00    +0.000 A 
ATOM     15  C   UNL     1       4.995   5.673  17.272  0.00  0.00    +0.000 A 
ENDBRANCH   1  13
BRANCH   4  16
ATOM     16  C   UNL     1       0.524  10.815  18.805  0.00  0.00    +0.000 C 
ATOM     17  C   UNL     1       1.291  11.948  19.497  0.00  0.00    +0.000 C 
ATOM     18  C   UNL     1       0.633  12.064  20.862  0.00  0.00    +0.000 C 
ATOM     19  N   UNL     1      -0.758  11.786  20.545  0.00  0.00    +0.000 N 
ATOM     20  C   UNL     1      -0.862  10.804  19.468  0.00  0.00    +0.000 C 
BRANCH  19  21
ATOM     21  C   UNL     1      -1.826  12.183  21.311  0.00  0.00    +0.000 A 
ATOM     22  C   UNL     1      -2.877  12.895  20.718  0.00  0.00    +0.000 A 
ATOM     23  C   UNL     1      -4.033  13.225  21.426  0.00  0.00    +0.000 A 
ATOM     24  C   UNL     1      -4.154  12.875  22.771  0.00  0.00    +0.000 A 
ATOM     25  C   UNL     1      -3.112  12.197  23.401  0.00  0.00    +0.000 A 
ATOM     26  C   UNL     1      -1.972  11.859  22.672  0.00  0.00    +0.000 A 
ATOM     27  F   UNL     1      -1.005  11.191  23.325  0.00  0.00    +0.000 F 
BRANCH  24  28
ATOM     28  C   UNL     1      -5.339  13.208  23.495  0.00  0.00    +0.000 C 
ATOM     29  N   UNL     1      -6.310  13.482  24.086  0.00  0.00    +0.000 NA
ENDBRANCH  24  28
ENDBRANCH  19  21
ENDBRANCH   4  16
TORSDOF 4
ENDMDL
MODEL 8
REMARK VINA RESULT:      -8.0      7.027     10.211
REMARK  Name = 
REMARK  5 active torsions:
REMARK  status: ('A' for Active; 'I' for Inactive)
REMARK    1  A    between atoms: C_1  and  N_2
REMARK    2  A    between atoms: C_8  and  C_9
REMARK    3  A    between atoms: C_12  and  C_13
REMARK    4  A    between atoms: N_16  and  C_17
REMARK    5  A    between atoms: C_20  and  C_21
REMARK                            x       y       z     vdW  Elec       q    Type
REMARK                         _______ _______ _______ _____ _____    ______ ____
ROOT
ATOM      1  C   UNL     1       2.126   8.149  18.666  0.00  0.00    +0.000 A 
ATOM      2  N   UNL     1       2.647   8.645  17.532  0.00  0.00    +0.000 NA
ATOM      3  O   UNL     1       2.151   9.941  17.480  0.00  0.00    +0.000 OA
ATOM      4  C   UNL     1       1.383  10.108  18.593  0.00  0.00    +0.000 A 
ATOM      5  N   UNL     1       1.334   9.041  19.356  0.00  0.00    +0.000 NA
ENDROOT
BRANCH   1  13
ATOM      6  C   UNL     1       4.609   3.423  17.037  0.00  0.00    +0.000 C 
ATOM      7  N   UNL     1       3.927   3.499  18.307  0.00  0.00    +0.000 N 
ATOM      8  N   UNL     1       3.874   2.409  19.099  0.00  0.00    +0.000 NA
ATOM      9  C   UNL     1       3.168   2.825  20.154  0.00  0.00    +0.000 A 
ATOM     10  C   UNL     1       2.768   4.173  20.046  0.00  0.00    +0.000 A 
ATOM     11  C   UNL     1       2.035   5.074  20.837  0.00  0.00    +0.000 A 
ATOM     12  C   UNL     1       1.843   6.380  20.371  0.00  0.00    +0.000 A 
ATOM     13  C   UNL     1       2.358   6.791  19.134  0.00  0.00    +0.000 A 
ATOM     14  C   UNL     1       3.090   5.895  18.335  0.00  0.00    +0.000 A 
ATOM     15  C   UNL     1       3.278   4.594  18.822  0.00  0.00    +0.000 A 
ENDBRANCH   1  13
BRANCH   4  16
ATOM     16  C   UNL     1       0.724  11.428  18.743  0.00  0.00    +0.000 C 
ATOM     17  C   UNL     1       1.384  12.313  19.807  0.00  0.00    +0.000 C 
ATOM     18  C   UNL     1       0.559  12.071  21.060  0.00  0.00    +0.000 C 
ATOM     19  N   UNL     1      -0.778  11.922  20.509  0.00  0.00    +0.000 N 
ATOM     20  C   UNL     1      -0.735  11.271  19.202  0.00  0.00    +0.000 C 
BRANCH  19  21
ATOM     21  C   UNL     1      -1.938  12.121  21.216  0.00  0.00    +0.000 A 
ATOM     22  C   UNL     1      -1.941  11.943  22.606  0.00  0.00    +0.000 A 
ATOM     23  C   UNL     1      -3.062  12.239  23.383  0.00  0.00    +0.000 A 
ATOM     24  C   UNL     1      -4.233  12.695  22.776  0.00  0.00    +0.000 A 
ATOM     25  C   UNL     1      -4.274  12.850  21.392  0.00  0.00    +0.000 A 
ATOM     26  C   UNL     1      -3.138  12.566  20.634  0.00  0.00    +0.000 A 
ATOM     27  F   UNL     1      -3.229  12.749  19.305  0.00  0.00    +0.000 F 
BRANCH  24  28
ATOM     28  C   UNL     1      -5.379  13.003  23.571  0.00  0.00    +0.000 C 
ATOM     29  N   UNL     1      -6.318  13.258  24.219  0.00  0.00    +0.000 NA
ENDBRANCH  24  28
ENDBRANCH  19  21
ENDBRANCH   4  16
TORSDOF 4
ENDMDL
MODEL 9
REMARK VINA RESULT:      -7.9      7.346     10.434
REMARK  Name = 
REMARK  5 active torsions:
REMARK  status: ('A' for Active; 'I' for Inactive)
REMARK    1  A    between atoms: C_1  and  N_2
REMARK    2  A    between atoms: C_8  and  C_9
REMARK    3  A    between atoms: C_12  and  C_13
REMARK    4  A    between atoms: N_16  and  C_17
REMARK    5  A    between atoms: C_20  and  C_21
REMARK                            x       y       z     vdW  Elec       q    Type
REMARK                         _______ _______ _______ _____ _____    ______ ____
ROOT
ATOM      1  C   UNL     1       1.982   8.163  18.945  0.00  0.00    +0.000 A 
ATOM      2  N   UNL     1       1.690   8.224  20.254  0.00  0.00    +0.000 NA
ATOM      3  O   UNL     1       0.981   9.413  20.378  0.00  0.00    +0.000 OA
ATOM      4  C   UNL     1       0.906   9.953  19.130  0.00  0.00    +0.000 A 
ATOM      5  N   UNL     1       1.502   9.228  18.212  0.00  0.00    +0.000 NA
ENDROOT
BRANCH   1  13
ATOM      6  C   UNL     1       2.172   2.586  18.840  0.00  0.00    +0.000 C 
ATOM      7  N   UNL     1       3.112   3.371  18.076  0.00  0.00    +0.000 N 
ATOM      8  N   UNL     1       4.058   2.749  17.345  0.00  0.00    +0.000 NA
ATOM      9  C   UNL     1       4.746   3.757  16.801  0.00  0.00    +0.000 A 
ATOM     10  C   UNL     1       4.249   5.022  17.178  0.00  0.00    +0.000 A 
ATOM     11  C   UNL     1       4.585   6.359  16.907  0.00  0.00    +0.000 A 
ATOM     12  C   UNL     1       3.822   7.379  17.490  0.00  0.00    +0.000 A 
ATOM     13  C   UNL     1       2.746   7.084  18.338  0.00  0.00    +0.000 A 
ATOM     14  C   UNL     1       2.405   5.748  18.616  0.00  0.00    +0.000 A 
ATOM     15  C   UNL     1       3.175   4.742  18.018  0.00  0.00    +0.000 A 
ENDBRANCH   1  13
BRANCH   4  16
ATOM     16  C   UNL     1       0.201  11.253  19.019  0.00  0.00    +0.000 C 
ATOM     17  C   UNL     1       0.902  12.384  19.782  0.00  0.00    +0.000 C 
ATOM     18  C   UNL     1       0.188  12.429  21.123  0.00  0.00    +0.000 C 
ATOM     19  N   UNL     1      -1.179  12.118  20.740  0.00  0.00    +0.000 N 
ATOM     20  C   UNL     1      -1.208  11.174  19.626  0.00  0.00    +0.000 C 
BRANCH  19  21
ATOM     21  C   UNL     1      -2.289  12.452  21.477  0.00  0.00    +0.000 A 
ATOM     22  C   UNL     1      -3.368  13.091  20.852  0.00  0.00    +0.000 A 
ATOM     23  C   UNL     1      -4.560  13.352  21.528  0.00  0.00    +0.000 A 
ATOM     24  C   UNL     1      -4.692  13.006  22.873  0.00  0.00    +0.000 A 
ATOM     25  C   UNL     1      -3.625  12.400  23.534  0.00  0.00    +0.000 A 
ATOM     26  C   UNL     1      -2.447  12.131  22.837  0.00  0.00    +0.000 A 
ATOM     27  F   UNL     1      -1.457  11.531  23.519  0.00  0.00    +0.000 F 
BRANCH  24  28
ATOM     28  C   UNL     1      -5.914  13.268  23.565  0.00  0.00    +0.000 C 
ATOM     29  N   UNL     1      -6.913  13.481  24.133  0.00  0.00    +0.000 NA
ENDBRANCH  24  28
ENDBRANCH  19  21
ENDBRANCH   4  16
TORSDOF 4
ENDMDL
