MODEL 1
REMARK VINA RESULT:      -9.1      0.000      0.000
REMARK  Name = 
REMARK  6 active torsions:
REMARK  status: ('A' for Active; 'I' for Inactive)
REMARK    1  A    between atoms: C_1  and  C_2
REMARK    2  A    between atoms: N_4  and  C_5
REMARK    3  A    between atoms: C_5  and  C_6
REMARK    4  A    between atoms: C_8  and  C_9
REMARK    5  A    between atoms: N_11  and  C_12
REMARK    6  A    between atoms: C_12  and  C_13
REMARK                            x       y       z     vdW  Elec       q    Type
REMARK                         _______ _______ _______ _____ _____    ______ ____
ROOT
ATOM      1  C   UNL     1       6.464   4.293  14.568  0.00  0.00    +0.000 C 
ATOM      2  C   UNL     1       5.429   5.453  14.674  0.00  0.00    +0.000 C 
ATOM      3  C   UNL     1       5.689   5.194  16.214  0.00  0.00    +0.000 C 
ATOM      4  C   UNL     1       5.549   3.674  15.722  0.00  0.00    +0.000 C 
ATOM      5  C   UNL     1       7.229   5.371  16.425  0.00  0.00    +0.000 C 
ATOM      6  C   UNL     1       7.850   4.613  17.600  0.00  0.00    +0.000 C 
ATOM      7  C   UNL     1       7.582   5.288  18.937  0.00  0.00    +0.000 C 
ATOM      8  N   UNL     1       7.988   6.691  18.965  0.00  0.00    +0.000 NA
ATOM      9  C   UNL     1       7.528   7.478  17.827  0.00  0.00    +0.000 C 
ATOM     10  C   UNL     1       7.710   6.817  16.459  0.00  0.00    +0.000 C 
ATOM     11  O   UNL     1       7.701   4.751  15.196  0.00  0.00    +0.000 OA
ATOM     12  H   UNL     1       9.000   6.759  19.054  0.00  0.00    +0.000 HD
ENDROOT
BRANCH   3  13
ATOM     13  C   UNL     1       4.656   5.891  17.151  0.00  0.00    +0.000 C 
ATOM     14  O   UNL     1       4.196   7.018  16.969  0.00  0.00    +0.000 OA
ATOM     15  N   UNL     1       4.318   5.140  18.279  0.00  0.00    +0.000 N 
ATOM     16  H   UNL     1       4.814   4.275  18.458  0.00  0.00    +0.000 HD
BRANCH  15  17
ATOM     17  C   UNL     1       3.532   5.653  19.388  0.00  0.00    +0.000 C 
BRANCH  17  18
ATOM     18  C   UNL     1       2.587   4.627  19.976  0.00  0.00    +0.000 A 
ATOM     19  C   UNL     1       2.667   4.272  21.336  0.00  0.00    +0.000 A 
ATOM     20  C   UNL     1       1.846   3.262  21.867  0.00  0.00    +0.000 A 
ATOM     21  C   UNL     1       0.931   2.602  21.053  0.00  0.00    +0.000 A 
ATOM     22  C   UNL     1       0.831   2.962  19.713  0.00  0.00    +0.000 A 
ATOM     23  F   UNL     1      -0.049   2.320  18.934  0.00  0.00    +0.000 F 
ATOM     24  C   UNL     1       1.648   3.964  19.176  0.00  0.00    +0.000 A 
ATOM     25  F   UNL     1       1.530   4.278  17.882  0.00  0.00    +0.000 F 
ENDBRANCH  17  18
ENDBRANCH  15  17
ENDBRANCH   3  13
BRANCH   1  26
ATOM     26  C   UNL     1       6.628   3.901  13.119  0.00  0.00    +0.000 C 
BRANCH  26  30
ATOM     27  C   UNL     1       3.624   3.064  11.019  0.00  0.00    +0.000 C 
ATOM     28  C   UNL     1       4.978   2.918  11.651  0.00  0.00    +0.000 C 
ATOM     29  O   UNL     1       5.667   1.914  11.494  0.00  0.00    +0.000 OA
ATOM     30  N   UNL     1       5.379   4.011  12.402  0.00  0.00    +0.000 N 
ATOM     31  H   UNL     1       4.654   4.595  12.803  0.00  0.00    +0.000 HD
ENDBRANCH  26  30
ENDBRANCH   1  26
TORSDOF 5
ENDMDL
MODEL 2
REMARK VINA RESULT:      -9.0      1.049      1.128
REMARK  Name = 
REMARK  6 active torsions:
REMARK  status: ('A' for Active; 'I' for Inactive)
REMARK    1  A    between atoms: C_1  and  C_2
REMARK    2  A    between atoms: N_4  and  C_5
REMARK    3  A    between atoms: C_5  and  C_6
REMARK    4  A    between atoms: C_8  and  C_9
REMARK    5  A    between atoms: N_11  and  C_12
REMARK    6  A    between atoms: C_12  and  C_13
REMARK                            x       y       z     vdW  Elec       q    Type
REMARK                         _______ _______ _______ _____ _____    ______ ____
ROOT
ATOM      1  C   UNL     1       6.104   4.548  14.856  0.00  0.00    +0.000 C 
ATOM      2  C   UNL     1       5.040   5.562  15.375  0.00  0.00    +0.000 C 
ATOM      3  C   UNL     1       5.630   5.071  16.760  0.00  0.00    +0.000 C 
ATOM      4  C   UNL     1       5.490   3.651  16.027  0.00  0.00    +0.000 C 
ATOM      5  C   UNL     1       7.165   5.366  16.702  0.00  0.00    +0.000 C 
ATOM      6  C   UNL     1       8.063   4.485  17.573  0.00  0.00    +0.000 C 
ATOM      7  C   UNL     1       8.034   4.890  19.039  0.00  0.00    +0.000 C 
ATOM      8  N   UNL     1       8.344   6.302  19.252  0.00  0.00    +0.000 NA
ATOM      9  C   UNL     1       7.609   7.221  18.391  0.00  0.00    +0.000 C 
ATOM     10  C   UNL     1       7.547   6.826  16.915  0.00  0.00    +0.000 C 
ATOM     11  O   UNL     1       7.412   5.016  15.311  0.00  0.00    +0.000 OA
ATOM     12  H   UNL     1       9.347   6.457  19.156  0.00  0.00    +0.000 HD
ENDROOT
BRANCH   3  13
ATOM     13  C   UNL     1       4.769   5.489  17.992  0.00  0.00    +0.000 C 
ATOM     14  O   UNL     1       5.098   5.315  19.165  0.00  0.00    +0.000 OA
ATOM     15  N   UNL     1       3.533   6.044  17.656  0.00  0.00    +0.000 N 
ATOM     16  H   UNL     1       3.247   6.052  16.684  0.00  0.00    +0.000 HD
BRANCH  15  17
ATOM     17  C   UNL     1       2.483   6.328  18.620  0.00  0.00    +0.000 C 
BRANCH  17  18
ATOM     18  C   UNL     1       1.996   5.097  19.353  0.00  0.00    +0.000 A 
ATOM     19  C   UNL     1       2.232   4.942  20.732  0.00  0.00    +0.000 A 
ATOM     20  C   UNL     1       1.853   3.765  21.400  0.00  0.00    +0.000 A 
ATOM     21  C   UNL     1       1.226   2.735  20.707  0.00  0.00    +0.000 A 
ATOM     22  C   UNL     1       0.969   2.890  19.348  0.00  0.00    +0.000 A 
ATOM     23  F   UNL     1       0.368   1.894  18.685  0.00  0.00    +0.000 F 
ATOM     24  C   UNL     1       1.347   4.058  18.675  0.00  0.00    +0.000 A 
ATOM     25  F   UNL     1       1.091   4.169  17.368  0.00  0.00    +0.000 F 
ENDBRANCH  17  18
ENDBRANCH  15  17
ENDBRANCH   3  13
BRANCH   1  26
ATOM     26  C   UNL     1       5.991   4.429  13.356  0.00  0.00    +0.000 C 
BRANCH  26  30
ATOM     27  C   UNL     1       6.023   1.226  11.387  0.00  0.00    +0.000 C 
ATOM     28  C   UNL     1       5.566   2.574  11.865  0.00  0.00    +0.000 C 
ATOM     29  O   UNL     1       4.601   3.150  11.370  0.00  0.00    +0.000 OA
ATOM     30  N   UNL     1       6.312   3.093  12.910  0.00  0.00    +0.000 N 
ATOM     31  H   UNL     1       7.273   2.785  12.998  0.00  0.00    +0.000 HD
ENDBRANCH  26  30
ENDBRANCH   1  26
TORSDOF 5
ENDMDL
MODEL 3
REMARK VINA RESULT:      -8.6      1.433      1.754
REMARK  Name = 
REMARK  6 active torsions:
REMARK  status: ('A' for Active; 'I' for Inactive)
REMARK    1  A    between atoms: C_1  and  C_2
REMARK    2  A    between atoms: N_4  and  C_5
REMARK    3  A    between atoms: C_5  and  C_6
REMARK    4  A    between atoms: C_8  and  C_9
REMARK    5  A    between atoms: N_11  and  C_12
REMARK    6  A    between atoms: C_12  and  C_13
REMARK                            x       y       z     vdW  Elec       q    Type
REMARK                         _______ _______ _______ _____ _____    ______ ____
ROOT
ATOM      1  C   UNL     1       6.332   4.616  14.719  0.00  0.00    +0.000 C 
ATOM      2  C   UNL     1       5.182   5.545  15.213  0.00  0.00    +0.000 C 
ATOM      3  C   UNL     1       5.724   5.035  16.611  0.00  0.00    +0.000 C 
ATOM      4  C   UNL     1       5.709   3.639  15.819  0.00  0.00    +0.000 C 
ATOM      5  C   UNL     1       7.240   5.419  16.650  0.00  0.00    +0.000 C 
ATOM      6  C   UNL     1       8.140   4.557  17.538  0.00  0.00    +0.000 C 
ATOM      7  C   UNL     1       8.007   4.902  19.014  0.00  0.00    +0.000 C 
ATOM      8  N   UNL     1       8.220   6.319  19.295  0.00  0.00    +0.000 NA
ATOM      9  C   UNL     1       7.479   7.228  18.428  0.00  0.00    +0.000 C 
ATOM     10  C   UNL     1       7.521   6.889  16.937  0.00  0.00    +0.000 C 
ATOM     11  O   UNL     1       7.582   5.139  15.263  0.00  0.00    +0.000 OA
ATOM     12  H   UNL     1       9.215   6.536  19.263  0.00  0.00    +0.000 HD
ENDROOT
BRANCH   3  13
ATOM     13  C   UNL     1       4.773   5.353  17.806  0.00  0.00    +0.000 C 
ATOM     14  O   UNL     1       5.058   5.176  18.990  0.00  0.00    +0.000 OA
ATOM     15  N   UNL     1       3.515   5.818  17.420  0.00  0.00    +0.000 N 
ATOM     16  H   UNL     1       3.277   5.828  16.435  0.00  0.00    +0.000 HD
BRANCH  15  17
ATOM     17  C   UNL     1       2.401   5.995  18.335  0.00  0.00    +0.000 C 
BRANCH  17  18
ATOM     18  C   UNL     1       1.896   4.694  18.922  0.00  0.00    +0.000 A 
ATOM     19  C   UNL     1       1.410   3.671  18.087  0.00  0.00    +0.000 A 
ATOM     20  C   UNL     1       0.865   2.495  18.631  0.00  0.00    +0.000 A 
ATOM     21  C   UNL     1       0.808   2.320  20.010  0.00  0.00    +0.000 A 
ATOM     22  C   UNL     1       1.307   3.318  20.841  0.00  0.00    +0.000 A 
ATOM     23  F   UNL     1       1.246   3.146  22.168  0.00  0.00    +0.000 F 
ATOM     24  C   UNL     1       1.847   4.494  20.307  0.00  0.00    +0.000 A 
ATOM     25  F   UNL     1       2.310   5.435  21.136  0.00  0.00    +0.000 F 
ENDBRANCH  17  18
ENDBRANCH  15  17
ENDBRANCH   3  13
BRANCH   1  26
ATOM     26  C   UNL     1       6.307   4.550  13.211  0.00  0.00    +0.000 C 
BRANCH  26  30
ATOM     27  C   UNL     1       5.934   1.318  11.328  0.00  0.00    +0.000 C 
ATOM     28  C   UNL     1       5.593   2.683  11.852  0.00  0.00    +0.000 C 
ATOM     29  O   UNL     1       4.568   3.271  11.523  0.00  0.00    +0.000 OA
ATOM     30  N   UNL     1       6.520   3.201  12.742  0.00  0.00    +0.000 N 
ATOM     31  H   UNL     1       7.476   2.873  12.666  0.00  0.00    +0.000 HD
ENDBRANCH  26  30
ENDBRANCH   1  26
TORSDOF 5
ENDMDL
MODEL 4
REMARK VINA RESULT:      -8.4      1.348      1.479
REMARK  Name = 
REMARK  6 active torsions:
REMARK  status: ('A' for Active; 'I' for Inactive)
REMARK    1  A    between atoms: C_1  and  C_2
REMARK    2  A    between atoms: N_4  and  C_5
REMARK    3  A    between atoms: C_5  and  C_6
REMARK    4  A    between atoms: C_8  and  C_9
REMARK    5  A    between atoms: N_11  and  C_12
REMARK    6  A    between atoms: C_12  and  C_13
REMARK                            x       y       z     vdW  Elec       q    Type
REMARK                         _______ _______ _______ _____ _____    ______ ____
ROOT
ATOM      1  C   UNL     1       6.364   4.205  14.518  0.00  0.00    +0.000 C 
ATOM      2  C   UNL     1       5.305   5.342  14.641  0.00  0.00    +0.000 C 
ATOM      3  C   UNL     1       5.590   5.085  16.177  0.00  0.00    +0.000 C 
ATOM      4  C   UNL     1       5.478   3.563  15.681  0.00  0.00    +0.000 C 
ATOM      5  C   UNL     1       7.129   5.295  16.369  0.00  0.00    +0.000 C 
ATOM      6  C   UNL     1       7.780   4.548  17.534  0.00  0.00    +0.000 C 
ATOM      7  C   UNL     1       7.514   5.212  18.876  0.00  0.00    +0.000 C 
ATOM      8  N   UNL     1       7.889   6.624  18.903  0.00  0.00    +0.000 NA
ATOM      9  C   UNL     1       7.398   7.404  17.774  0.00  0.00    +0.000 C 
ATOM     10  C   UNL     1       7.577   6.752  16.402  0.00  0.00    +0.000 C 
ATOM     11  O   UNL     1       7.598   4.689  15.132  0.00  0.00    +0.000 OA
ATOM     12  H   UNL     1       8.901   6.715  18.980  0.00  0.00    +0.000 HD
ENDROOT
BRANCH   3  13
ATOM     13  C   UNL     1       4.553   5.755  17.129  0.00  0.00    +0.000 C 
ATOM     14  O   UNL     1       4.701   6.857  17.657  0.00  0.00    +0.000 OA
ATOM     15  N   UNL     1       3.432   4.966  17.390  0.00  0.00    +0.000 N 
ATOM     16  H   UNL     1       3.409   4.015  17.039  0.00  0.00    +0.000 HD
BRANCH  15  17
ATOM     17  C   UNL     1       2.429   5.287  18.391  0.00  0.00    +0.000 C 
BRANCH  17  18
ATOM     18  C   UNL     1       2.324   4.250  19.488  0.00  0.00    +0.000 A 
ATOM     19  C   UNL     1       1.121   4.073  20.197  0.00  0.00    +0.000 A 
ATOM     20  C   UNL     1       1.043   3.168  21.270  0.00  0.00    +0.000 A 
ATOM     21  C   UNL     1       2.157   2.422  21.640  0.00  0.00    +0.000 A 
ATOM     22  C   UNL     1       3.344   2.574  20.930  0.00  0.00    +0.000 A 
ATOM     23  F   UNL     1       4.414   1.856  21.294  0.00  0.00    +0.000 F 
ATOM     24  C   UNL     1       3.430   3.477  19.863  0.00  0.00    +0.000 A 
ATOM     25  F   UNL     1       4.588   3.603  19.208  0.00  0.00    +0.000 F 
ENDBRANCH  17  18
ENDBRANCH  15  17
ENDBRANCH   3  13
BRANCH   1  26
ATOM     26  C   UNL     1       6.519   3.822  13.066  0.00  0.00    +0.000 C 
BRANCH  26  30
ATOM     27  C   UNL     1       3.516   3.073  10.931  0.00  0.00    +0.000 C 
ATOM     28  C   UNL     1       4.869   2.900  11.559  0.00  0.00    +0.000 C 
ATOM     29  O   UNL     1       5.556   1.901  11.366  0.00  0.00    +0.000 OA
ATOM     30  N   UNL     1       5.271   3.962  12.351  0.00  0.00    +0.000 N 
ATOM     31  H   UNL     1       4.548   4.533  12.773  0.00  0.00    +0.000 HD
ENDBRANCH  26  30
ENDBRANCH   1  26
TORSDOF 5
ENDMDL
MODEL 5
REMARK VINA RESULT:      -8.3      3.732      6.136
REMARK  Name = 
REMARK  6 active torsions:
REMARK  status: ('A' for Active; 'I' for Inactive)
REMARK    1  A    between atoms: C_1  and  C_2
REMARK    2  A    between atoms: N_4  and  C_5
REMARK    3  A    between atoms: C_5  and  C_6
REMARK    4  A    between atoms: C_8  and  C_9
REMARK    5  A    between atoms: N_11  and  C_12
REMARK    6  A    between atoms: C_12  and  C_13
REMARK                            x       y       z     vdW  Elec       q    Type
REMARK                         _______ _______ _______ _____ _____    ______ ____
ROOT
ATOM      1  C   UNL     1       5.905   4.688  18.291  0.00  0.00    +0.000 C 
ATOM      2  C   UNL     1       5.157   5.525  19.372  0.00  0.00    +0.000 C 
ATOM      3  C   UNL     1       3.916   4.831  18.675  0.00  0.00    +0.000 C 
ATOM      4  C   UNL     1       4.736   5.260  17.364  0.00  0.00    +0.000 C 
ATOM      5  C   UNL     1       4.170   3.291  18.780  0.00  0.00    +0.000 C 
ATOM      6  C   UNL     1       3.513   2.416  17.710  0.00  0.00    +0.000 C 
ATOM      7  C   UNL     1       2.030   2.196  17.967  0.00  0.00    +0.000 C 
ATOM      8  N   UNL     1       1.748   1.669  19.300  0.00  0.00    +0.000 NA
ATOM      9  C   UNL     1       2.415   2.378  20.385  0.00  0.00    +0.000 C 
ATOM     10  C   UNL     1       3.895   2.688  20.152  0.00  0.00    +0.000 C 
ATOM     11  O   UNL     1       5.606   3.281  18.544  0.00  0.00    +0.000 OA
ATOM     12  H   UNL     1       1.974   0.676  19.337  0.00  0.00    +0.000 HD
ENDROOT
BRANCH   3  13
ATOM     13  C   UNL     1       2.543   5.457  19.070  0.00  0.00    +0.000 C 
ATOM     14  O   UNL     1       1.491   5.277  18.457  0.00  0.00    +0.000 OA
ATOM     15  N   UNL     1       2.606   6.307  20.176  0.00  0.00    +0.000 N 
ATOM     16  H   UNL     1       3.512   6.528  20.573  0.00  0.00    +0.000 HD
BRANCH  15  17
ATOM     17  C   UNL     1       1.508   7.152  20.613  0.00  0.00    +0.000 C 
BRANCH  17  18
ATOM     18  C   UNL     1       1.432   8.467  19.868  0.00  0.00    +0.000 A 
ATOM     19  C   UNL     1       2.009   8.604  18.591  0.00  0.00    +0.000 A 
ATOM     20  C   UNL     1       2.013   9.845  17.931  0.00  0.00    +0.000 A 
ATOM     21  C   UNL     1       1.433  10.959  18.529  0.00  0.00    +0.000 A 
ATOM     22  C   UNL     1       0.841  10.827  19.781  0.00  0.00    +0.000 A 
ATOM     23  F   UNL     1       0.288  11.904  20.353  0.00  0.00    +0.000 F 
ATOM     24  C   UNL     1       0.837   9.595  20.446  0.00  0.00    +0.000 A 
ATOM     25  F   UNL     1       0.267   9.507  21.652  0.00  0.00    +0.000 F 
ENDBRANCH  17  18
ENDBRANCH  15  17
ENDBRANCH   3  13
BRANCH   1  26
ATOM     26  C   UNL     1       7.378   5.014  18.339  0.00  0.00    +0.000 C 
BRANCH  26  30
ATOM     27  C   UNL     1       7.835   8.703  17.777  0.00  0.00    +0.000 C 
ATOM     28  C   UNL     1       7.715   7.240  17.460  0.00  0.00    +0.000 C 
ATOM     29  O   UNL     1       7.737   6.818  16.307  0.00  0.00    +0.000 OA
ATOM     30  N   UNL     1       7.596   6.423  18.571  0.00  0.00    +0.000 N 
ATOM     31  H   UNL     1       7.201   6.829  19.412  0.00  0.00    +0.000 HD
ENDBRANCH  26  30
ENDBRANCH   1  26
TORSDOF 5
ENDMDL
MODEL 6
REMARK VINA RESULT:      -8.3      3.979      6.326
REMARK  Name = 
REMARK  6 active torsions:
REMARK  status: ('A' for Active; 'I' for Inactive)
REMARK    1  A    between atoms: C_1  and  C_2
REMARK    2  A    between atoms: N_4  and  C_5
REMARK    3  A    between atoms: C_5  and  C_6
REMARK    4  A    between atoms: C_8  and  C_9
REMARK    5  A    between atoms: N_11  and  C_12
REMARK    6  A    between atoms: C_12  and  C_13
REMARK                            x       y       z     vdW  Elec       q    Type
REMARK                         _______ _______ _______ _____ _____    ______ ____
ROOT
ATOM      1  C   UNL     1       5.327   5.283  17.524  0.00  0.00    +0.000 C 
ATOM      2  C   UNL     1       5.310   5.491  19.068  0.00  0.00    +0.000 C 
ATOM      3  C   UNL     1       3.779   5.161  18.833  0.00  0.00    +0.000 C 
ATOM      4  C   UNL     1       4.009   6.181  17.615  0.00  0.00    +0.000 C 
ATOM      5  C   UNL     1       3.744   3.760  18.137  0.00  0.00    +0.000 C 
ATOM      6  C   UNL     1       2.526   3.464  17.259  0.00  0.00    +0.000 C 
ATOM      7  C   UNL     1       1.294   3.099  18.074  0.00  0.00    +0.000 C 
ATOM      8  N   UNL     1       1.527   2.001  19.009  0.00  0.00    +0.000 NA
ATOM      9  C   UNL     1       2.728   2.143  19.823  0.00  0.00    +0.000 C 
ATOM     10  C   UNL     1       3.985   2.576  19.066  0.00  0.00    +0.000 C 
ATOM     11  O   UNL     1       4.898   3.911  17.263  0.00  0.00    +0.000 OA
ATOM     12  H   UNL     1       1.545   1.114  18.508  0.00  0.00    +0.000 HD
ENDROOT
BRANCH   3  13
ATOM     13  C   UNL     1       2.872   5.482  20.061  0.00  0.00    +0.000 C 
ATOM     14  O   UNL     1       2.539   4.662  20.916  0.00  0.00    +0.000 OA
ATOM     15  N   UNL     1       2.406   6.797  20.091  0.00  0.00    +0.000 N 
ATOM     16  H   UNL     1       2.598   7.404  19.302  0.00  0.00    +0.000 HD
BRANCH  15  17
ATOM     17  C   UNL     1       1.398   7.279  21.020  0.00  0.00    +0.000 C 
BRANCH  17  18
ATOM     18  C   UNL     1       0.976   8.708  20.757  0.00  0.00    +0.000 A 
ATOM     19  C   UNL     1       1.148   9.285  19.485  0.00  0.00    +0.000 A 
ATOM     20  C   UNL     1       0.833  10.636  19.258  0.00  0.00    +0.000 A 
ATOM     21  C   UNL     1       0.333  11.423  20.290  0.00  0.00    +0.000 A 
ATOM     22  C   UNL     1       0.139  10.854  21.545  0.00  0.00    +0.000 A 
ATOM     23  F   UNL     1      -0.339  11.618  22.536  0.00  0.00    +0.000 F 
ATOM     24  C   UNL     1       0.455   9.511  21.780  0.00  0.00    +0.000 A 
ATOM     25  F   UNL     1       0.263   8.999  22.999  0.00  0.00    +0.000 F 
ENDBRANCH  17  18
ENDBRANCH  15  17
ENDBRANCH   3  13
BRANCH   1  26
ATOM     26  C   UNL     1       6.704   5.599  16.992  0.00  0.00    +0.000 C 
BRANCH  26  30
ATOM     27  C   UNL     1       8.063   9.038  17.667  0.00  0.00    +0.000 C 
ATOM     28  C   UNL     1       7.799   7.572  17.857  0.00  0.00    +0.000 C 
ATOM     29  O   UNL     1       8.309   6.930  18.770  0.00  0.00    +0.000 OA
ATOM     30  N   UNL     1       6.928   7.024  16.931  0.00  0.00    +0.000 N 
ATOM     31  H   UNL     1       6.864   7.473  16.024  0.00  0.00    +0.000 HD
ENDBRANCH  26  30
ENDBRANCH   1  26
TORSDOF 5
ENDMDL
MODEL 7
REMARK VINA RESULT:      -8.2      4.190      5.979
REMARK  Name = 
REMARK  6 active torsions:
REMARK  status: ('A' for Active; 'I' for Inactive)
REMARK    1  A    between atoms: C_1  and  C_2
REMARK    2  A    between atoms: N_4  and  C_5
REMARK    3  A    between atoms: C_5  and  C_6
REMARK    4  A    between atoms: C_8  and  C_9
REMARK    5  A    between atoms: N_11  and  C_12
REMARK    6  A    between atoms: C_12  and  C_13
REMARK                            x       y       z     vdW  Elec       q    Type
REMARK                         _______ _______ _______ _____ _____    ______ ____
ROOT
ATOM      1  C   UNL     1       4.634   5.840  17.502  0.00  0.00    +0.000 C 
ATOM      2  C   UNL     1       4.751   6.093  19.036  0.00  0.00    +0.000 C 
ATOM      3  C   UNL     1       3.257   5.573  18.971  0.00  0.00    +0.000 C 
ATOM      4  C   UNL     1       3.232   6.574  17.716  0.00  0.00    +0.000 C 
ATOM      5  C   UNL     1       3.324   4.157  18.309  0.00  0.00    +0.000 C 
ATOM      6  C   UNL     1       2.068   3.688  17.571  0.00  0.00    +0.000 C 
ATOM      7  C   UNL     1       0.981   3.202  18.518  0.00  0.00    +0.000 C 
ATOM      8  N   UNL     1       1.444   2.171  19.444  0.00  0.00    +0.000 NA
ATOM      9  C   UNL     1       2.695   2.483  20.124  0.00  0.00    +0.000 C 
ATOM     10  C   UNL     1       3.804   3.041  19.230  0.00  0.00    +0.000 C 
ATOM     11  O   UNL     1       4.354   4.418  17.314  0.00  0.00    +0.000 OA
ATOM     12  H   UNL     1       1.520   1.277  18.961  0.00  0.00    +0.000 HD
ENDROOT
BRANCH   3  13
ATOM     13  C   UNL     1       2.448   5.821  20.281  0.00  0.00    +0.000 C 
ATOM     14  O   UNL     1       2.180   4.952  21.110  0.00  0.00    +0.000 OA
ATOM     15  N   UNL     1       1.990   7.132  20.425  0.00  0.00    +0.000 N 
ATOM     16  H   UNL     1       2.123   7.783  19.660  0.00  0.00    +0.000 HD
BRANCH  15  17
ATOM     17  C   UNL     1       1.059   7.557  21.455  0.00  0.00    +0.000 C 
BRANCH  17  18
ATOM     18  C   UNL     1       0.540   8.963  21.249  0.00  0.00    +0.000 A 
ATOM     19  C   UNL     1       0.617   9.580  19.986  0.00  0.00    +0.000 A 
ATOM     20  C   UNL     1       0.212  10.914  19.809  0.00  0.00    +0.000 A 
ATOM     21  C   UNL     1      -0.285  11.645  20.883  0.00  0.00    +0.000 A 
ATOM     22  C   UNL     1      -0.386  11.035  22.130  0.00  0.00    +0.000 A 
ATOM     23  F   UNL     1      -0.861  11.745  23.161  0.00  0.00    +0.000 F 
ATOM     24  C   UNL     1       0.020   9.709  22.315  0.00  0.00    +0.000 A 
ATOM     25  F   UNL     1      -0.083   9.158  23.528  0.00  0.00    +0.000 F 
ENDBRANCH  17  18
ENDBRANCH  15  17
ENDBRANCH   3  13
BRANCH   1  26
ATOM     26  C   UNL     1       5.900   6.303  16.822  0.00  0.00    +0.000 C 
BRANCH  26  30
ATOM     27  C   UNL     1       6.851   4.420  13.710  0.00  0.00    +0.000 C 
ATOM     28  C   UNL     1       6.922   4.919  15.125  0.00  0.00    +0.000 C 
ATOM     29  O   UNL     1       7.783   4.533  15.911  0.00  0.00    +0.000 OA
ATOM     30  N   UNL     1       5.953   5.853  15.451  0.00  0.00    +0.000 N 
ATOM     31  H   UNL     1       5.085   5.829  14.928  0.00  0.00    +0.000 HD
ENDBRANCH  26  30
ENDBRANCH   1  26
TORSDOF 5
ENDMDL
MODEL 8
REMARK VINA RESULT:      -8.1      3.894      5.931
REMARK  Name = 
REMARK  6 active torsions:
REMARK  status: ('A' for Active; 'I' for Inactive)
REMARK    1  A    between atoms: C_1  and  C_2
REMARK    2  A    between atoms: N_4  and  C_5
REMARK    3  A    between atoms: C_5  and  C_6
REMARK    4  A    between atoms: C_8  and  C_9
REMARK    5  A    between atoms: N_11  and  C_12
REMARK    6  A    between atoms: C_12  and  C_13
REMARK                            x       y       z     vdW  Elec       q    Type
REMARK                         _______ _______ _______ _____ _____    ______ ____
ROOT
ATOM      1  C   UNL     1       4.770   4.640  17.969  0.00  0.00    +0.000 C 
ATOM      2  C   UNL     1       4.679   5.390  19.332  0.00  0.00    +0.000 C 
ATOM      3  C   UNL     1       3.157   4.995  19.150  0.00  0.00    +0.000 C 
ATOM      4  C   UNL     1       3.465   5.508  17.661  0.00  0.00    +0.000 C 
ATOM      5  C   UNL     1       3.132   3.437  19.004  0.00  0.00    +0.000 C 
ATOM      6  C   UNL     1       1.956   2.842  18.228  0.00  0.00    +0.000 C 
ATOM      7  C   UNL     1       0.678   2.792  19.053  0.00  0.00    +0.000 C 
ATOM      8  N   UNL     1       0.845   2.105  20.331  0.00  0.00    +0.000 NA
ATOM      9  C   UNL     1       2.006   2.533  21.102  0.00  0.00    +0.000 C 
ATOM     10  C   UNL     1       3.306   2.668  20.308  0.00  0.00    +0.000 C 
ATOM     11  O   UNL     1       4.331   3.265  18.196  0.00  0.00    +0.000 OA
ATOM     12  H   UNL     1       0.873   1.097  20.184  0.00  0.00    +0.000 HD
ENDROOT
BRANCH   3  13
ATOM     13  C   UNL     1       2.195   5.734  20.130  0.00  0.00    +0.000 C 
ATOM     14  O   UNL     1       1.188   5.233  20.631  0.00  0.00    +0.000 OA
ATOM     15  N   UNL     1       2.540   7.066  20.365  0.00  0.00    +0.000 N 
ATOM     16  H   UNL     1       3.300   7.476  19.834  0.00  0.00    +0.000 HD
BRANCH  15  17
ATOM     17  C   UNL     1       1.696   8.008  21.080  0.00  0.00    +0.000 C 
BRANCH  17  18
ATOM     18  C   UNL     1       0.961   8.966  20.167  0.00  0.00    +0.000 A 
ATOM     19  C   UNL     1       1.362   9.132  18.828  0.00  0.00    +0.000 A 
ATOM     20  C   UNL     1       0.734  10.080  18.000  0.00  0.00    +0.000 A 
ATOM     21  C   UNL     1      -0.304  10.863  18.493  0.00  0.00    +0.000 A 
ATOM     22  C   UNL     1      -0.720  10.689  19.809  0.00  0.00    +0.000 A 
ATOM     23  F   UNL     1      -1.718  11.449  20.279  0.00  0.00    +0.000 F 
ATOM     24  C   UNL     1      -0.098   9.751  20.640  0.00  0.00    +0.000 A 
ATOM     25  F   UNL     1      -0.518   9.616  21.902  0.00  0.00    +0.000 F 
ENDBRANCH  17  18
ENDBRANCH  15  17
ENDBRANCH   3  13
BRANCH   1  26
ATOM     26  C   UNL     1       6.178   4.747  17.433  0.00  0.00    +0.000 C 
BRANCH  26  30
ATOM     27  C   UNL     1       6.391   3.984  13.758  0.00  0.00    +0.000 C 
ATOM     28  C   UNL     1       6.127   4.760  15.017  0.00  0.00    +0.000 C 
ATOM     29  O   UNL     1       5.759   5.931  14.998  0.00  0.00    +0.000 OA
ATOM     30  N   UNL     1       6.318   4.038  16.183  0.00  0.00    +0.000 N 
ATOM     31  H   UNL     1       6.968   3.260  16.152  0.00  0.00    +0.000 HD
ENDBRANCH  26  30
ENDBRANCH   1  26
TORSDOF 5
ENDMDL
MODEL 9
REMARK VINA RESULT:      -8.1      3.684      5.968
REMARK  Name = 
REMARK  6 active torsions:
REMARK  status: ('A' for Active; 'I' for Inactive)
REMARK    1  A    between atoms: C_1  and  C_2
REMARK    2  A    between atoms: N_4  and  C_5
REMARK    3  A    between atoms: C_5  and  C_6
REMARK    4  A    between atoms: C_8  and  C_9
REMARK    5  A    between atoms: N_11  and  C_12
REMARK    6  A    between atoms: C_12  and  C_13
REMARK                            x       y       z     vdW  Elec       q    Type
REMARK                         _______ _______ _______ _____ _____    ______ ____
ROOT
ATOM      1  C   UNL     1       5.458   4.512  18.155  0.00  0.00    +0.000 C 
ATOM      2  C   UNL     1       4.879   5.889  18.597  0.00  0.00    +0.000 C 
ATOM      3  C   UNL     1       3.533   5.156  18.202  0.00  0.00    +0.000 C 
ATOM      4  C   UNL     1       4.434   4.725  16.947  0.00  0.00    +0.000 C 
ATOM      5  C   UNL     1       3.477   3.860  19.077  0.00  0.00    +0.000 C 
ATOM      6  C   UNL     1       2.671   2.688  18.512  0.00  0.00    +0.000 C 
ATOM      7  C   UNL     1       1.171   2.876  18.682  0.00  0.00    +0.000 C 
ATOM      8  N   UNL     1       0.778   3.146  20.063  0.00  0.00    +0.000 NA
ATOM      9  C   UNL     1       1.561   4.183  20.724  0.00  0.00    +0.000 C 
ATOM     10  C   UNL     1       3.075   4.083  20.530  0.00  0.00    +0.000 C 
ATOM     11  O   UNL     1       4.886   3.494  19.032  0.00  0.00    +0.000 OA
ATOM     12  H   UNL     1       0.803   2.285  20.607  0.00  0.00    +0.000 HD
ENDROOT
BRANCH   3  13
ATOM     13  C   UNL     1       2.306   6.112  18.089  0.00  0.00    +0.000 C 
ATOM     14  O   UNL     1       1.199   5.781  17.666  0.00  0.00    +0.000 OA
ATOM     15  N   UNL     1       2.579   7.429  18.464  0.00  0.00    +0.000 N 
ATOM     16  H   UNL     1       3.534   7.688  18.683  0.00  0.00    +0.000 HD
BRANCH  15  17
ATOM     17  C   UNL     1       1.661   8.536  18.262  0.00  0.00    +0.000 C 
BRANCH  17  18
ATOM     18  C   UNL     1       1.047   9.047  19.548  0.00  0.00    +0.000 A 
ATOM     19  C   UNL     1       1.342   8.430  20.778  0.00  0.00    +0.000 A 
ATOM     20  C   UNL     1       0.711   8.849  21.963  0.00  0.00    +0.000 A 
ATOM     21  C   UNL     1      -0.209   9.891  21.938  0.00  0.00    +0.000 A 
ATOM     22  C   UNL     1      -0.490  10.520  20.728  0.00  0.00    +0.000 A 
ATOM     23  F   UNL     1      -1.380  11.520  20.710  0.00  0.00    +0.000 F 
ATOM     24  C   UNL     1       0.131  10.106  19.544  0.00  0.00    +0.000 A 
ATOM     25  F   UNL     1      -0.168  10.728  18.399  0.00  0.00    +0.000 F 
ENDBRANCH  17  18
ENDBRANCH  15  17
ENDBRANCH   3  13
BRANCH   1  26
ATOM     26  C   UNL     1       6.966   4.568  18.194  0.00  0.00    +0.000 C 
BRANCH  26  30
ATOM     27  C   UNL     1       8.011   8.149  17.724  0.00  0.00    +0.000 C 
ATOM     28  C   UNL     1       7.625   6.742  17.368  0.00  0.00    +0.000 C 
ATOM     29  O   UNL     1       7.508   6.372  16.203  0.00  0.00    +0.000 OA
ATOM     30  N   UNL     1       7.434   5.909  18.457  0.00  0.00    +0.000 N 
ATOM     31  H   UNL     1       7.163   6.339  19.335  0.00  0.00    +0.000 HD
ENDBRANCH  26  30
ENDBRANCH   1  26
TORSDOF 5
ENDMDL
