MODEL 1
REMARK VINA RESULT:      -8.0      0.000      0.000
REMARK  Name = 
REMARK  3 active torsions:
REMARK  status: ('A' for Active; 'I' for Inactive)
REMARK    1  A    between atoms: C_1  and  C_2
REMARK    2  A    between atoms: C_7  and  N_8
REMARK    3  A    between atoms: C_9  and  C_11
REMARK                            x       y       z     vdW  Elec       q    Type
REMARK                         _______ _______ _______ _____ _____    ______ ____
ROOT
ATOM      1  N   UNL     1       2.011   8.607  17.685  0.00  0.00    +0.000 N 
ATOM      2  C   UNL     1       2.441   7.598  18.531  0.00  0.00    +0.000 C 
ATOM      3  O   UNL     1       2.209   7.496  19.727  0.00  0.00    +0.000 OA
ATOM      4  H   UNL     1       2.522   8.691  16.810  0.00  0.00    +0.000 HD
ENDROOT
BRANCH   2   5
ATOM      5  C   UNL     1       3.368   6.573  17.880  0.00  0.00    +0.000 A 
ATOM      6  N   UNL     1       4.492   7.028  17.398  0.00  0.00    +0.000 NA
ATOM      7  N   UNL     1       5.376   6.123  16.885  0.00  0.00    +0.000 N 
ATOM      8  C   UNL     1       5.222   4.756  16.866  0.00  0.00    +0.000 A 
ATOM      9  O   UNL     1       6.094   4.005  16.446  0.00  0.00    +0.000 OA
ATOM     10  C   UNL     1       3.939   4.239  17.372  0.00  0.00    +0.000 A 
ATOM     11  C   UNL     1       3.682   2.860  17.360  0.00  0.00    +0.000 A 
ATOM     12  C   UNL     1       2.465   2.377  17.835  0.00  0.00    +0.000 A 
ATOM     13  C   UNL     1       1.502   3.268  18.303  0.00  0.00    +0.000 A 
ATOM     14  C   UNL     1       1.756   4.643  18.303  0.00  0.00    +0.000 A 
ATOM     15  C   UNL     1       2.990   5.136  17.857  0.00  0.00    +0.000 A 
ATOM     16  H   UNL     1       6.272   6.485  16.567  0.00  0.00    +0.000 HD
ENDBRANCH   2   5
BRANCH   1  23
ATOM     17  C   UNL     1      -1.205  14.931  20.367  0.00  0.00    +0.000 C 
ATOM     18  C   UNL     1      -0.693  13.653  19.801  0.00  0.00    +0.000 A 
ATOM     19  N   UNL     1      -1.459  12.730  19.266  0.00  0.00    +0.000 NA
ATOM     20  C   UNL     1      -0.683  11.673  18.827  0.00  0.00    +0.000 A 
ATOM     21  C   UNL     1      -1.168  10.509  18.209  0.00  0.00    +0.000 A 
ATOM     22  C   UNL     1      -0.272   9.504  17.825  0.00  0.00    +0.000 A 
ATOM     23  C   UNL     1       1.102   9.628  18.046  0.00  0.00    +0.000 A 
ATOM     24  C   UNL     1       1.604  10.798  18.628  0.00  0.00    +0.000 A 
ATOM     25  C   UNL     1       0.691  11.800  19.028  0.00  0.00    +0.000 A 
ATOM     26  S   UNL     1       0.989  13.310  19.810  0.00  0.00    +0.000 S 
ENDBRANCH   1  23
TORSDOF 2
ENDMDL
MODEL 2
REMARK VINA RESULT:      -7.9      2.126      2.164
REMARK  Name = 
REMARK  3 active torsions:
REMARK  status: ('A' for Active; 'I' for Inactive)
REMARK    1  A    between atoms: C_1  and  C_2
REMARK    2  A    between atoms: C_7  and  N_8
REMARK    3  A    between atoms: C_9  and  C_11
REMARK                            x       y       z     vdW  Elec       q    Type
REMARK                         _______ _______ _______ _____ _____    ______ ____
ROOT
ATOM      1  N   UNL     1       2.116   7.749  19.844  0.00  0.00    +0.000 N 
ATOM      2  C   UNL     1       2.205   7.762  18.462  0.00  0.00    +0.000 C 
ATOM      3  O   UNL     1       1.507   8.401  17.689  0.00  0.00    +0.000 OA
ATOM      4  H   UNL     1       2.569   6.963  20.304  0.00  0.00    +0.000 HD
ENDROOT
BRANCH   2   5
ATOM      5  C   UNL     1       3.242   6.802  17.881  0.00  0.00    +0.000 A 
ATOM      6  N   UNL     1       4.371   7.330  17.492  0.00  0.00    +0.000 NA
ATOM      7  N   UNL     1       5.346   6.486  17.047  0.00  0.00    +0.000 N 
ATOM      8  C   UNL     1       5.279   5.113  17.009  0.00  0.00    +0.000 A 
ATOM      9  O   UNL     1       6.227   4.420  16.657  0.00  0.00    +0.000 OA
ATOM     10  C   UNL     1       3.995   4.512  17.409  0.00  0.00    +0.000 A 
ATOM     11  C   UNL     1       3.825   3.121  17.370  0.00  0.00    +0.000 A 
ATOM     12  C   UNL     1       2.607   2.559  17.744  0.00  0.00    +0.000 A 
ATOM     13  C   UNL     1       1.557   3.385  18.138  0.00  0.00    +0.000 A 
ATOM     14  C   UNL     1       1.725   4.773  18.165  0.00  0.00    +0.000 A 
ATOM     15  C   UNL     1       2.956   5.345  17.821  0.00  0.00    +0.000 A 
ATOM     16  H   UNL     1       6.241   6.905  16.803  0.00  0.00    +0.000 HD
ENDBRANCH   2   5
BRANCH   1  23
ATOM     17  C   UNL     1      -1.394  13.718  22.940  0.00  0.00    +0.000 C 
ATOM     18  C   UNL     1      -0.781  12.470  22.407  0.00  0.00    +0.000 A 
ATOM     19  N   UNL     1      -1.085  11.266  22.831  0.00  0.00    +0.000 NA
ATOM     20  C   UNL     1      -0.352  10.323  22.134  0.00  0.00    +0.000 A 
ATOM     21  C   UNL     1      -0.418   8.933  22.329  0.00  0.00    +0.000 A 
ATOM     22  C   UNL     1       0.393   8.087  21.562  0.00  0.00    +0.000 A 
ATOM     23  C   UNL     1       1.276   8.594  20.605  0.00  0.00    +0.000 A 
ATOM     24  C   UNL     1       1.326   9.974  20.374  0.00  0.00    +0.000 A 
ATOM     25  C   UNL     1       0.517  10.821  21.163  0.00  0.00    +0.000 A 
ATOM     26  S   UNL     1       0.394  12.544  21.157  0.00  0.00    +0.000 S 
ENDBRANCH   1  23
TORSDOF 2
ENDMDL
MODEL 3
REMARK VINA RESULT:      -7.8      1.626      2.030
REMARK  Name = 
REMARK  3 active torsions:
REMARK  status: ('A' for Active; 'I' for Inactive)
REMARK    1  A    between atoms: C_1  and  C_2
REMARK    2  A    between atoms: C_7  and  N_8
REMARK    3  A    between atoms: C_9  and  C_11
REMARK                            x       y       z     vdW  Elec       q    Type
REMARK                         _______ _______ _______ _____ _____    ______ ____
ROOT
ATOM      1  N   UNL     1       1.765   8.744  17.761  0.00  0.00    +0.000 N 
ATOM      2  C   UNL     1       2.338   7.788  18.584  0.00  0.00    +0.000 C 
ATOM      3  O   UNL     1       2.136   7.635  19.780  0.00  0.00    +0.000 OA
ATOM      4  H   UNL     1       2.248   8.911  16.882  0.00  0.00    +0.000 HD
ENDROOT
BRANCH   2   5
ATOM      5  C   UNL     1       3.387   6.909  17.904  0.00  0.00    +0.000 A 
ATOM      6  N   UNL     1       4.480   7.505  17.513  0.00  0.00    +0.000 NA
ATOM      7  N   UNL     1       5.469   6.730  16.978  0.00  0.00    +0.000 N 
ATOM      8  C   UNL     1       5.449   5.361  16.850  0.00  0.00    +0.000 A 
ATOM      9  O   UNL     1       6.408   4.730  16.418  0.00  0.00    +0.000 OA
ATOM     10  C   UNL     1       4.204   4.686  17.253  0.00  0.00    +0.000 A 
ATOM     11  C   UNL     1       4.083   3.295  17.125  0.00  0.00    +0.000 A 
ATOM     12  C   UNL     1       2.900   2.663  17.503  0.00  0.00    +0.000 A 
ATOM     13  C   UNL     1       1.836   3.420  17.988  0.00  0.00    +0.000 A 
ATOM     14  C   UNL     1       1.955   4.809  18.103  0.00  0.00    +0.000 A 
ATOM     15  C   UNL     1       3.152   5.450  17.755  0.00  0.00    +0.000 A 
ATOM     16  H   UNL     1       6.338   7.198  16.733  0.00  0.00    +0.000 HD
ENDBRANCH   2   5
BRANCH   1  23
ATOM     17  C   UNL     1      -4.881  12.284  18.668  0.00  0.00    +0.000 C 
ATOM     18  C   UNL     1      -3.525  11.679  18.571  0.00  0.00    +0.000 A 
ATOM     19  N   UNL     1      -2.455  12.183  19.139  0.00  0.00    +0.000 NA
ATOM     20  C   UNL     1      -1.358  11.387  18.867  0.00  0.00    +0.000 A 
ATOM     21  C   UNL     1      -0.047  11.626  19.312  0.00  0.00    +0.000 A 
ATOM     22  C   UNL     1       0.978  10.744  18.951  0.00  0.00    +0.000 A 
ATOM     23  C   UNL     1       0.731   9.626  18.151  0.00  0.00    +0.000 A 
ATOM     24  C   UNL     1      -0.577   9.353  17.731  0.00  0.00    +0.000 A 
ATOM     25  C   UNL     1      -1.603  10.258  18.085  0.00  0.00    +0.000 A 
ATOM     26  S   UNL     1      -3.282  10.230  17.682  0.00  0.00    +0.000 S 
ENDBRANCH   1  23
TORSDOF 2
ENDMDL
MODEL 4
REMARK VINA RESULT:      -7.8      5.671      6.769
REMARK  Name = 
REMARK  3 active torsions:
REMARK  status: ('A' for Active; 'I' for Inactive)
REMARK    1  A    between atoms: C_1  and  C_2
REMARK    2  A    between atoms: C_7  and  N_8
REMARK    3  A    between atoms: C_9  and  C_11
REMARK                            x       y       z     vdW  Elec       q    Type
REMARK                         _______ _______ _______ _____ _____    ______ ____
ROOT
ATOM      1  N   UNL     1       7.863   8.615  17.399  0.00  0.00    +0.000 N 
ATOM      2  C   UNL     1       7.764   7.317  17.874  0.00  0.00    +0.000 C 
ATOM      3  O   UNL     1       8.219   6.884  18.922  0.00  0.00    +0.000 OA
ATOM      4  H   UNL     1       7.684   8.731  16.404  0.00  0.00    +0.000 HD
ENDROOT
BRANCH   2   5
ATOM      5  C   UNL     1       7.080   6.340  16.919  0.00  0.00    +0.000 A 
ATOM      6  N   UNL     1       7.687   6.112  15.786  0.00  0.00    +0.000 NA
ATOM      7  N   UNL     1       7.142   5.181  14.950  0.00  0.00    +0.000 N 
ATOM      8  C   UNL     1       6.028   4.414  15.202  0.00  0.00    +0.000 A 
ATOM      9  O   UNL     1       5.638   3.549  14.426  0.00  0.00    +0.000 OA
ATOM     10  C   UNL     1       5.316   4.694  16.460  0.00  0.00    +0.000 A 
ATOM     11  C   UNL     1       4.151   3.983  16.784  0.00  0.00    +0.000 A 
ATOM     12  C   UNL     1       3.478   4.256  17.973  0.00  0.00    +0.000 A 
ATOM     13  C   UNL     1       3.956   5.248  18.826  0.00  0.00    +0.000 A 
ATOM     14  C   UNL     1       5.111   5.964  18.495  0.00  0.00    +0.000 A 
ATOM     15  C   UNL     1       5.812   5.675  17.317  0.00  0.00    +0.000 A 
ATOM     16  H   UNL     1       7.656   4.969  14.099  0.00  0.00    +0.000 HD
ENDBRANCH   2   5
BRANCH   1  23
ATOM     17  C   UNL     1      10.126  15.475  19.709  0.00  0.00    +0.000 C 
ATOM     18  C   UNL     1       9.730  14.082  19.368  0.00  0.00    +0.000 A 
ATOM     19  N   UNL     1      10.002  13.038  20.117  0.00  0.00    +0.000 NA
ATOM     20  C   UNL     1       9.494  11.894  19.531  0.00  0.00    +0.000 A 
ATOM     21  C   UNL     1       9.604  10.594  20.053  0.00  0.00    +0.000 A 
ATOM     22  C   UNL     1       9.054   9.516  19.349  0.00  0.00    +0.000 A 
ATOM     23  C   UNL     1       8.398   9.701  18.129  0.00  0.00    +0.000 A 
ATOM     24  C   UNL     1       8.249  10.994  17.614  0.00  0.00    +0.000 A 
ATOM     25  C   UNL     1       8.821  12.074  18.323  0.00  0.00    +0.000 A 
ATOM     26  S   UNL     1       8.855  13.755  17.927  0.00  0.00    +0.000 S 
ENDBRANCH   1  23
TORSDOF 2
ENDMDL
MODEL 5
REMARK VINA RESULT:      -7.7      2.116      2.145
REMARK  Name = 
REMARK  3 active torsions:
REMARK  status: ('A' for Active; 'I' for Inactive)
REMARK    1  A    between atoms: C_1  and  C_2
REMARK    2  A    between atoms: C_7  and  N_8
REMARK    3  A    between atoms: C_9  and  C_11
REMARK                            x       y       z     vdW  Elec       q    Type
REMARK                         _______ _______ _______ _____ _____    ______ ____
ROOT
ATOM      1  N   UNL     1       2.159   8.017  19.285  0.00  0.00    +0.000 N 
ATOM      2  C   UNL     1       2.650   7.953  17.991  0.00  0.00    +0.000 C 
ATOM      3  O   UNL     1       2.304   8.641  17.042  0.00  0.00    +0.000 OA
ATOM      4  H   UNL     1       2.345   7.202  19.863  0.00  0.00    +0.000 HD
ENDROOT
BRANCH   2   5
ATOM      5  C   UNL     1       3.668   6.839  17.750  0.00  0.00    +0.000 A 
ATOM      6  N   UNL     1       4.905   7.212  17.567  0.00  0.00    +0.000 NA
ATOM      7  N   UNL     1       5.849   6.235  17.433  0.00  0.00    +0.000 N 
ATOM      8  C   UNL     1       5.634   4.879  17.518  0.00  0.00    +0.000 A 
ATOM      9  O   UNL     1       6.548   4.065  17.453  0.00  0.00    +0.000 OA
ATOM     10  C   UNL     1       4.235   4.451  17.686  0.00  0.00    +0.000 A 
ATOM     11  C   UNL     1       3.919   3.086  17.750  0.00  0.00    +0.000 A 
ATOM     12  C   UNL     1       2.593   2.686  17.903  0.00  0.00    +0.000 A 
ATOM     13  C   UNL     1       1.586   3.646  17.973  0.00  0.00    +0.000 A 
ATOM     14  C   UNL     1       1.902   5.006  17.897  0.00  0.00    +0.000 A 
ATOM     15  C   UNL     1       3.236   5.418  17.775  0.00  0.00    +0.000 A 
ATOM     16  H   UNL     1       6.816   6.538  17.350  0.00  0.00    +0.000 HD
ENDBRANCH   2   5
BRANCH   1  23
ATOM     17  C   UNL     1      -2.526  12.227  23.510  0.00  0.00    +0.000 C 
ATOM     18  C   UNL     1      -1.631  11.483  22.582  0.00  0.00    +0.000 A 
ATOM     19  N   UNL     1      -1.473  11.788  21.315  0.00  0.00    +0.000 NA
ATOM     20  C   UNL     1      -0.574  10.916  20.730  0.00  0.00    +0.000 A 
ATOM     21  C   UNL     1      -0.170  10.943  19.385  0.00  0.00    +0.000 A 
ATOM     22  C   UNL     1       0.741   9.989  18.916  0.00  0.00    +0.000 A 
ATOM     23  C   UNL     1       1.259   9.000  19.757  0.00  0.00    +0.000 A 
ATOM     24  C   UNL     1       0.895   8.983  21.108  0.00  0.00    +0.000 A 
ATOM     25  C   UNL     1      -0.038   9.939  21.569  0.00  0.00    +0.000 A 
ATOM     26  S   UNL     1      -0.718  10.142  23.144  0.00  0.00    +0.000 S 
ENDBRANCH   1  23
TORSDOF 2
ENDMDL
MODEL 6
REMARK VINA RESULT:      -7.7      2.427      2.528
REMARK  Name = 
REMARK  3 active torsions:
REMARK  status: ('A' for Active; 'I' for Inactive)
REMARK    1  A    between atoms: C_1  and  C_2
REMARK    2  A    between atoms: C_7  and  N_8
REMARK    3  A    between atoms: C_9  and  C_11
REMARK                            x       y       z     vdW  Elec       q    Type
REMARK                         _______ _______ _______ _____ _____    ______ ____
ROOT
ATOM      1  N   UNL     1       1.764   8.291  19.867  0.00  0.00    +0.000 N 
ATOM      2  C   UNL     1       1.935   6.918  19.936  0.00  0.00    +0.000 C 
ATOM      3  O   UNL     1       1.558   6.177  20.832  0.00  0.00    +0.000 OA
ATOM      4  H   UNL     1       2.375   8.775  19.214  0.00  0.00    +0.000 HD
ENDROOT
BRANCH   2   5
ATOM      5  C   UNL     1       2.757   6.320  18.795  0.00  0.00    +0.000 A 
ATOM      6  N   UNL     1       3.608   7.119  18.211  0.00  0.00    +0.000 NA
ATOM      7  N   UNL     1       4.414   6.590  17.245  0.00  0.00    +0.000 N 
ATOM      8  C   UNL     1       4.454   5.273  16.849  0.00  0.00    +0.000 A 
ATOM      9  O   UNL     1       5.256   4.862  16.018  0.00  0.00    +0.000 OA
ATOM     10  C   UNL     1       3.470   4.375  17.476  0.00  0.00    +0.000 A 
ATOM     11  C   UNL     1       3.416   3.022  17.110  0.00  0.00    +0.000 A 
ATOM     12  C   UNL     1       2.479   2.178  17.702  0.00  0.00    +0.000 A 
ATOM     13  C   UNL     1       1.587   2.688  18.642  0.00  0.00    +0.000 A 
ATOM     14  C   UNL     1       1.634   4.040  18.997  0.00  0.00    +0.000 A 
ATOM     15  C   UNL     1       2.594   4.889  18.431  0.00  0.00    +0.000 A 
ATOM     16  H   UNL     1       5.113   7.208  16.840  0.00  0.00    +0.000 HD
ENDBRANCH   2   5
BRANCH   1  23
ATOM     17  C   UNL     1      -2.886  13.363  23.056  0.00  0.00    +0.000 C 
ATOM     18  C   UNL     1      -1.955  12.319  22.550  0.00  0.00    +0.000 A 
ATOM     19  N   UNL     1      -1.313  11.473  23.323  0.00  0.00    +0.000 NA
ATOM     20  C   UNL     1      -0.535  10.629  22.551  0.00  0.00    +0.000 A 
ATOM     21  C   UNL     1       0.289   9.604  23.044  0.00  0.00    +0.000 A 
ATOM     22  C   UNL     1       1.039   8.828  22.151  0.00  0.00    +0.000 A 
ATOM     23  C   UNL     1       0.991   9.053  20.773  0.00  0.00    +0.000 A 
ATOM     24  C   UNL     1       0.147  10.047  20.264  0.00  0.00    +0.000 A 
ATOM     25  C   UNL     1      -0.593  10.835  21.173  0.00  0.00    +0.000 A 
ATOM     26  S   UNL     1      -1.665  12.154  20.866  0.00  0.00    +0.000 S 
ENDBRANCH   1  23
TORSDOF 2
ENDMDL
MODEL 7
REMARK VINA RESULT:      -7.6      1.755      1.782
REMARK  Name = 
REMARK  3 active torsions:
REMARK  status: ('A' for Active; 'I' for Inactive)
REMARK    1  A    between atoms: C_1  and  C_2
REMARK    2  A    between atoms: C_7  and  N_8
REMARK    3  A    between atoms: C_9  and  C_11
REMARK                            x       y       z     vdW  Elec       q    Type
REMARK                         _______ _______ _______ _____ _____    ______ ____
ROOT
ATOM      1  N   UNL     1       1.879   8.537  18.544  0.00  0.00    +0.000 N 
ATOM      2  C   UNL     1       2.305   7.359  19.135  0.00  0.00    +0.000 C 
ATOM      3  O   UNL     1       2.110   7.006  20.289  0.00  0.00    +0.000 OA
ATOM      4  H   UNL     1       2.362   8.796  17.688  0.00  0.00    +0.000 HD
ENDROOT
BRANCH   2   5
ATOM      5  C   UNL     1       3.175   6.477  18.241  0.00  0.00    +0.000 A 
ATOM      6  N   UNL     1       4.212   7.048  17.693  0.00  0.00    +0.000 NA
ATOM      7  N   UNL     1       5.053   6.265  16.957  0.00  0.00    +0.000 N 
ATOM      8  C   UNL     1       4.944   4.906  16.769  0.00  0.00    +0.000 A 
ATOM      9  O   UNL     1       5.780   4.261  16.147  0.00  0.00    +0.000 OA
ATOM     10  C   UNL     1       3.755   4.262  17.352  0.00  0.00    +0.000 A 
ATOM     11  C   UNL     1       3.544   2.886  17.182  0.00  0.00    +0.000 A 
ATOM     12  C   UNL     1       2.415   2.283  17.731  0.00  0.00    +0.000 A 
ATOM     13  C   UNL     1       1.490   3.054  18.430  0.00  0.00    +0.000 A 
ATOM     14  C   UNL     1       1.696   4.429  18.588  0.00  0.00    +0.000 A 
ATOM     15  C   UNL     1       2.845   5.038  18.067  0.00  0.00    +0.000 A 
ATOM     16  H   UNL     1       5.889   6.709  16.585  0.00  0.00    +0.000 HD
ENDBRANCH   2   5
BRANCH   1  23
ATOM     17  C   UNL     1      -2.425  12.431  23.428  0.00  0.00    +0.000 C 
ATOM     18  C   UNL     1      -1.615  11.754  22.378  0.00  0.00    +0.000 A 
ATOM     19  N   UNL     1      -1.586  12.129  21.120  0.00  0.00    +0.000 NA
ATOM     20  C   UNL     1      -0.737  11.305  20.404  0.00  0.00    +0.000 A 
ATOM     21  C   UNL     1      -0.467  11.411  19.030  0.00  0.00    +0.000 A 
ATOM     22  C   UNL     1       0.406  10.500  18.423  0.00  0.00    +0.000 A 
ATOM     23  C   UNL     1       1.016   9.477  19.154  0.00  0.00    +0.000 A 
ATOM     24  C   UNL     1       0.786   9.381  20.532  0.00  0.00    +0.000 A 
ATOM     25  C   UNL     1      -0.109  10.295  21.132  0.00  0.00    +0.000 A 
ATOM     26  S   UNL     1      -0.634  10.402  22.774  0.00  0.00    +0.000 S 
ENDBRANCH   1  23
TORSDOF 2
ENDMDL
MODEL 8
REMARK VINA RESULT:      -7.6      1.864      2.543
REMARK  Name = 
REMARK  3 active torsions:
REMARK  status: ('A' for Active; 'I' for Inactive)
REMARK    1  A    between atoms: C_1  and  C_2
REMARK    2  A    between atoms: C_7  and  N_8
REMARK    3  A    between atoms: C_9  and  C_11
REMARK                            x       y       z     vdW  Elec       q    Type
REMARK                         _______ _______ _______ _____ _____    ______ ____
ROOT
ATOM      1  N   UNL     1       1.770   8.233  18.098  0.00  0.00    +0.000 N 
ATOM      2  C   UNL     1       2.133   7.403  19.146  0.00  0.00    +0.000 C 
ATOM      3  O   UNL     1       2.223   7.708  20.326  0.00  0.00    +0.000 OA
ATOM      4  H   UNL     1       2.020   7.901  17.170  0.00  0.00    +0.000 HD
ENDROOT
BRANCH   2   5
ATOM      5  C   UNL     1       2.535   5.989  18.728  0.00  0.00    +0.000 A 
ATOM      6  N   UNL     1       1.863   5.010  19.270  0.00  0.00    +0.000 NA
ATOM      7  N   UNL     1       2.144   3.741  18.853  0.00  0.00    +0.000 N 
ATOM      8  C   UNL     1       3.042   3.386  17.872  0.00  0.00    +0.000 A 
ATOM      9  O   UNL     1       3.189   2.225  17.507  0.00  0.00    +0.000 OA
ATOM     10  C   UNL     1       3.830   4.482  17.285  0.00  0.00    +0.000 A 
ATOM     11  C   UNL     1       4.792   4.210  16.301  0.00  0.00    +0.000 A 
ATOM     12  C   UNL     1       5.539   5.250  15.753  0.00  0.00    +0.000 A 
ATOM     13  C   UNL     1       5.339   6.554  16.198  0.00  0.00    +0.000 A 
ATOM     14  C   UNL     1       4.387   6.822  17.187  0.00  0.00    +0.000 A 
ATOM     15  C   UNL     1       3.609   5.787  17.722  0.00  0.00    +0.000 A 
ATOM     16  H   UNL     1       1.574   2.993  19.239  0.00  0.00    +0.000 HD
ENDBRANCH   2   5
BRANCH   1  23
ATOM     17  C   UNL     1       1.228  15.760  18.865  0.00  0.00    +0.000 C 
ATOM     18  C   UNL     1       1.204  14.279  18.720  0.00  0.00    +0.000 A 
ATOM     19  N   UNL     1       0.108  13.556  18.762  0.00  0.00    +0.000 NA
ATOM     20  C   UNL     1       0.419  12.220  18.589  0.00  0.00    +0.000 A 
ATOM     21  C   UNL     1      -0.506  11.163  18.583  0.00  0.00    +0.000 A 
ATOM     22  C   UNL     1      -0.055   9.849  18.410  0.00  0.00    +0.000 A 
ATOM     23  C   UNL     1       1.303   9.560  18.247  0.00  0.00    +0.000 A 
ATOM     24  C   UNL     1       2.233  10.606  18.214  0.00  0.00    +0.000 A 
ATOM     25  C   UNL     1       1.770  11.927  18.406  0.00  0.00    +0.000 A 
ATOM     26  S   UNL     1       2.661  13.405  18.471  0.00  0.00    +0.000 S 
ENDBRANCH   1  23
TORSDOF 2
ENDMDL
MODEL 9
REMARK VINA RESULT:      -7.5      2.994      8.311
REMARK  Name = 
REMARK  3 active torsions:
REMARK  status: ('A' for Active; 'I' for Inactive)
REMARK    1  A    between atoms: C_1  and  C_2
REMARK    2  A    between atoms: C_7  and  N_8
REMARK    3  A    between atoms: C_9  and  C_11
REMARK                            x       y       z     vdW  Elec       q    Type
REMARK                         _______ _______ _______ _____ _____    ______ ____
ROOT
ATOM      1  N   UNL     1       1.690   8.318  19.312  0.00  0.00    +0.000 N 
ATOM      2  C   UNL     1       1.382   9.442  18.562  0.00  0.00    +0.000 C 
ATOM      3  O   UNL     1       1.904   9.788  17.513  0.00  0.00    +0.000 OA
ATOM      4  H   UNL     1       1.370   8.335  20.277  0.00  0.00    +0.000 HD
ENDROOT
BRANCH   2   5
ATOM      5  C   UNL     1       0.334  10.359  19.191  0.00  0.00    +0.000 A 
ATOM      6  N   UNL     1       0.697  11.007  20.264  0.00  0.00    +0.000 NA
ATOM      7  N   UNL     1      -0.190  11.896  20.799  0.00  0.00    +0.000 N 
ATOM      8  C   UNL     1      -1.427  12.217  20.290  0.00  0.00    +0.000 A 
ATOM      9  O   UNL     1      -2.139  13.078  20.795  0.00  0.00    +0.000 OA
ATOM     10  C   UNL     1      -1.859  11.461  19.103  0.00  0.00    +0.000 A 
ATOM     11  C   UNL     1      -3.119  11.700  18.535  0.00  0.00    +0.000 A 
ATOM     12  C   UNL     1      -3.525  10.978  17.415  0.00  0.00    +0.000 A 
ATOM     13  C   UNL     1      -2.683  10.009  16.875  0.00  0.00    +0.000 A 
ATOM     14  C   UNL     1      -1.431   9.764  17.450  0.00  0.00    +0.000 A 
ATOM     15  C   UNL     1      -1.001  10.508  18.557  0.00  0.00    +0.000 A 
ATOM     16  H   UNL     1       0.127  12.437  21.600  0.00  0.00    +0.000 HD
ENDBRANCH   2   5
BRANCH   1  23
ATOM     17  C   UNL     1       6.755   4.088  15.573  0.00  0.00    +0.000 C 
ATOM     18  C   UNL     1       5.758   4.823  16.397  0.00  0.00    +0.000 A 
ATOM     19  N   UNL     1       5.218   4.345  17.494  0.00  0.00    +0.000 NA
ATOM     20  C   UNL     1       4.339   5.269  18.028  0.00  0.00    +0.000 A 
ATOM     21  C   UNL     1       3.581   5.092  19.197  0.00  0.00    +0.000 A 
ATOM     22  C   UNL     1       2.715   6.107  19.621  0.00  0.00    +0.000 A 
ATOM     23  C   UNL     1       2.581   7.299  18.904  0.00  0.00    +0.000 A 
ATOM     24  C   UNL     1       3.357   7.505  17.758  0.00  0.00    +0.000 A 
ATOM     25  C   UNL     1       4.216   6.469  17.328  0.00  0.00    +0.000 A 
ATOM     26  S   UNL     1       5.247   6.399  15.944  0.00  0.00    +0.000 S 
ENDBRANCH   1  23
TORSDOF 2
ENDMDL
