MODEL 1
REMARK VINA RESULT:      -9.6      0.000      0.000
REMARK  Name = 
REMARK  4 active torsions:
REMARK  status: ('A' for Active; 'I' for Inactive)
REMARK    1  A    between atoms: C_4  and  C_5
REMARK    2  A    between atoms: N_7  and  C_8
REMARK    3  A    between atoms: C_12  and  C_13
REMARK    4  A    between atoms: N_17  and  C_18
REMARK                            x       y       z     vdW  Elec       q    Type
REMARK                         _______ _______ _______ _____ _____    ______ ____
ROOT
ATOM      1  C   UNL     1       2.508   5.714  18.349  0.00  0.00    +0.000 C 
ATOM      2  O   UNL     1       1.449   5.118  18.543  0.00  0.00    +0.000 OA
ATOM      3  N   UNL     1       2.804   6.990  18.807  0.00  0.00    +0.000 N 
ATOM      4  H   UNL     1       3.604   7.460  18.399  0.00  0.00    +0.000 HD
ENDROOT
BRANCH   1   8
ATOM      5  O   UNL     1       4.071   2.022  19.455  0.00  0.00    +0.000 OA
ATOM      6  C   UNL     1       4.372   3.030  18.823  0.00  0.00    +0.000 C 
ATOM      7  C   UNL     1       3.556   3.520  17.660  0.00  0.00    +0.000 C 
ATOM      8  C   UNL     1       3.590   5.038  17.510  0.00  0.00    +0.000 C 
ATOM      9  C   UNL     1       4.962   5.621  17.738  0.00  0.00    +0.000 A 
ATOM     10  C   UNL     1       5.302   6.881  17.219  0.00  0.00    +0.000 A 
ATOM     11  C   UNL     1       6.563   7.420  17.470  0.00  0.00    +0.000 A 
ATOM     12  C   UNL     1       7.476   6.704  18.235  0.00  0.00    +0.000 A 
ATOM     13  F   UNL     1       8.685   7.228  18.477  0.00  0.00    +0.000 F 
ATOM     14  C   UNL     1       7.149   5.465  18.774  0.00  0.00    +0.000 A 
ATOM     15  C   UNL     1       5.889   4.928  18.525  0.00  0.00    +0.000 A 
ATOM     16  N   UNL     1       5.528   3.708  19.098  0.00  0.00    +0.000 N 
ATOM     17  H   UNL     1       6.137   3.267  19.779  0.00  0.00    +0.000 HD
ENDBRANCH   1   8
BRANCH   3  18
ATOM     18  C   UNL     1       1.933   7.801  19.573  0.00  0.00    +0.000 A 
ATOM     19  C   UNL     1       1.493   7.445  20.849  0.00  0.00    +0.000 A 
ATOM     20  C   UNL     1       0.572   8.238  21.532  0.00  0.00    +0.000 A 
ATOM     21  C   UNL     1       0.069   9.394  20.940  0.00  0.00    +0.000 A 
ATOM     22  C   UNL     1       0.485   9.773  19.659  0.00  0.00    +0.000 A 
ATOM     23  C   UNL     1       1.467   8.996  19.009  0.00  0.00    +0.000 A 
BRANCH  22  24
ATOM     24  C   UNL     1      -0.063  10.943  18.972  0.00  0.00    +0.000 A 
ATOM     25  N   UNL     1       0.362  12.187  19.138  0.00  0.00    +0.000 NA
ATOM     26  N   UNL     1      -0.376  12.979  18.298  0.00  0.00    +0.000 NA
ATOM     27  N   UNL     1      -1.236  12.258  17.599  0.00  0.00    +0.000 NA
ATOM     28  N   UNL     1      -1.040  10.985  17.992  0.00  0.00    +0.000 N 
BRANCH  28  29
ATOM     29  C   UNL     1      -1.750   9.875  17.382  0.00  0.00    +0.000 C 
ATOM     30  C   UNL     1      -2.794  10.084  16.295  0.00  0.00    +0.000 C 
ATOM     31  C   UNL     1      -3.234   9.660  17.652  0.00  0.00    +0.000 C 
ENDBRANCH  28  29
ENDBRANCH  22  24
ENDBRANCH   3  18
TORSDOF 4
ENDMDL
MODEL 2
REMARK VINA RESULT:      -9.5      3.549      8.669
REMARK  Name = 
REMARK  4 active torsions:
REMARK  status: ('A' for Active; 'I' for Inactive)
REMARK    1  A    between atoms: C_4  and  C_5
REMARK    2  A    between atoms: N_7  and  C_8
REMARK    3  A    between atoms: C_12  and  C_13
REMARK    4  A    between atoms: N_17  and  C_18
REMARK                            x       y       z     vdW  Elec       q    Type
REMARK                         _______ _______ _______ _____ _____    ______ ____
ROOT
ATOM      1  C   UNL     1       1.351   9.161  19.147  0.00  0.00    +0.000 C 
ATOM      2  O   UNL     1       1.053   9.024  20.334  0.00  0.00    +0.000 OA
ATOM      3  N   UNL     1       2.062   8.241  18.389  0.00  0.00    +0.000 N 
ATOM      4  H   UNL     1       2.440   8.556  17.503  0.00  0.00    +0.000 HD
ENDROOT
BRANCH   1   8
ATOM      5  O   UNL     1       1.539  12.830  21.096  0.00  0.00    +0.000 OA
ATOM      6  C   UNL     1       0.948  12.272  20.177  0.00  0.00    +0.000 C 
ATOM      7  C   UNL     1       1.673  11.663  19.010  0.00  0.00    +0.000 C 
ATOM      8  C   UNL     1       0.953  10.449  18.432  0.00  0.00    +0.000 C 
ATOM      9  C   UNL     1      -0.541  10.638  18.346  0.00  0.00    +0.000 A 
ATOM     10  C   UNL     1      -1.312   9.868  17.459  0.00  0.00    +0.000 A 
ATOM     11  C   UNL     1      -2.696  10.030  17.419  0.00  0.00    +0.000 A 
ATOM     12  C   UNL     1      -3.304  10.955  18.262  0.00  0.00    +0.000 A 
ATOM     13  F   UNL     1      -4.635  11.104  18.223  0.00  0.00    +0.000 F 
ATOM     14  C   UNL     1      -2.558  11.709  19.160  0.00  0.00    +0.000 A 
ATOM     15  C   UNL     1      -1.177  11.545  19.201  0.00  0.00    +0.000 A 
ATOM     16  N   UNL     1      -0.419  12.259  20.131  0.00  0.00    +0.000 N 
ATOM     17  H   UNL     1      -0.882  12.812  20.845  0.00  0.00    +0.000 HD
ENDBRANCH   1   8
BRANCH   3  18
ATOM     18  C   UNL     1       2.550   7.001  18.865  0.00  0.00    +0.000 A 
ATOM     19  C   UNL     1       1.805   6.161  19.695  0.00  0.00    +0.000 A 
ATOM     20  C   UNL     1       2.359   4.987  20.203  0.00  0.00    +0.000 A 
ATOM     21  C   UNL     1       3.673   4.643  19.896  0.00  0.00    +0.000 A 
ATOM     22  C   UNL     1       4.448   5.468  19.073  0.00  0.00    +0.000 A 
ATOM     23  C   UNL     1       3.852   6.618  18.514  0.00  0.00    +0.000 A 
BRANCH  22  24
ATOM     24  C   UNL     1       5.852   5.180  18.774  0.00  0.00    +0.000 A 
ATOM     25  N   UNL     1       6.849   5.296  19.637  0.00  0.00    +0.000 NA
ATOM     26  N   UNL     1       7.990   4.903  18.988  0.00  0.00    +0.000 NA
ATOM     27  N   UNL     1       7.725   4.527  17.748  0.00  0.00    +0.000 NA
ATOM     28  N   UNL     1       6.394   4.674  17.605  0.00  0.00    +0.000 N 
BRANCH  28  29
ATOM     29  C   UNL     1       5.703   4.278  16.391  0.00  0.00    +0.000 C 
ATOM     30  C   UNL     1       6.442   4.056  15.079  0.00  0.00    +0.000 C 
ATOM     31  C   UNL     1       5.565   5.249  15.226  0.00  0.00    +0.000 C 
ENDBRANCH  28  29
ENDBRANCH  22  24
ENDBRANCH   3  18
TORSDOF 4
ENDMDL
MODEL 3
REMARK VINA RESULT:      -9.4      1.041      2.043
REMARK  Name = 
REMARK  4 active torsions:
REMARK  status: ('A' for Active; 'I' for Inactive)
REMARK    1  A    between atoms: C_4  and  C_5
REMARK    2  A    between atoms: N_7  and  C_8
REMARK    3  A    between atoms: C_12  and  C_13
REMARK    4  A    between atoms: N_17  and  C_18
REMARK                            x       y       z     vdW  Elec       q    Type
REMARK                         _______ _______ _______ _____ _____    ______ ____
ROOT
ATOM      1  C   UNL     1       2.576   5.777  18.232  0.00  0.00    +0.000 C 
ATOM      2  O   UNL     1       1.487   5.211  18.338  0.00  0.00    +0.000 OA
ATOM      3  N   UNL     1       2.889   7.019  18.766  0.00  0.00    +0.000 N 
ATOM      4  H   UNL     1       3.726   7.477  18.426  0.00  0.00    +0.000 HD
ENDROOT
BRANCH   1   8
ATOM      5  O   UNL     1       4.081   2.068  19.364  0.00  0.00    +0.000 OA
ATOM      6  C   UNL     1       4.408   3.078  18.749  0.00  0.00    +0.000 C 
ATOM      7  C   UNL     1       3.633   3.581  17.563  0.00  0.00    +0.000 C 
ATOM      8  C   UNL     1       3.681   5.099  17.425  0.00  0.00    +0.000 C 
ATOM      9  C   UNL     1       5.048   5.672  17.701  0.00  0.00    +0.000 A 
ATOM     10  C   UNL     1       5.412   6.934  17.202  0.00  0.00    +0.000 A 
ATOM     11  C   UNL     1       6.667   7.464  17.497  0.00  0.00    +0.000 A 
ATOM     12  C   UNL     1       7.550   6.737  18.287  0.00  0.00    +0.000 A 
ATOM     13  F   UNL     1       8.754   7.253  18.572  0.00  0.00    +0.000 F 
ATOM     14  C   UNL     1       7.199   5.497  18.806  0.00  0.00    +0.000 A 
ATOM     15  C   UNL     1       5.945   4.969  18.513  0.00  0.00    +0.000 A 
ATOM     16  N   UNL     1       5.558   3.748  19.066  0.00  0.00    +0.000 N 
ATOM     17  H   UNL     1       6.142   3.299  19.764  0.00  0.00    +0.000 HD
ENDBRANCH   1   8
BRANCH   3  18
ATOM     18  C   UNL     1       2.003   7.826  19.519  0.00  0.00    +0.000 A 
ATOM     19  C   UNL     1       1.670   7.550  20.846  0.00  0.00    +0.000 A 
ATOM     20  C   UNL     1       0.731   8.328  21.522  0.00  0.00    +0.000 A 
ATOM     21  C   UNL     1       0.103   9.388  20.872  0.00  0.00    +0.000 A 
ATOM     22  C   UNL     1       0.410   9.685  19.539  0.00  0.00    +0.000 A 
ATOM     23  C   UNL     1       1.410   8.929  18.892  0.00  0.00    +0.000 A 
BRANCH  22  24
ATOM     24  C   UNL     1      -0.269  10.747  18.797  0.00  0.00    +0.000 A 
ATOM     25  N   UNL     1      -1.460  10.632  18.227  0.00  0.00    +0.000 NA
ATOM     26  N   UNL     1      -1.756  11.847  17.668  0.00  0.00    +0.000 NA
ATOM     27  N   UNL     1      -0.789  12.722  17.892  0.00  0.00    +0.000 NA
ATOM     28  N   UNL     1       0.135  12.059  18.611  0.00  0.00    +0.000 N 
BRANCH  28  29
ATOM     29  C   UNL     1       1.323  12.714  19.128  0.00  0.00    +0.000 C 
ATOM     30  C   UNL     1       1.796  14.060  18.597  0.00  0.00    +0.000 C 
ATOM     31  C   UNL     1       2.577  12.836  18.270  0.00  0.00    +0.000 C 
ENDBRANCH  28  29
ENDBRANCH  22  24
ENDBRANCH   3  18
TORSDOF 4
ENDMDL
MODEL 4
REMARK VINA RESULT:      -9.1      2.006      2.577
REMARK  Name = 
REMARK  4 active torsions:
REMARK  status: ('A' for Active; 'I' for Inactive)
REMARK    1  A    between atoms: C_4  and  C_5
REMARK    2  A    between atoms: N_7  and  C_8
REMARK    3  A    between atoms: C_12  and  C_13
REMARK    4  A    between atoms: N_17  and  C_18
REMARK                            x       y       z     vdW  Elec       q    Type
REMARK                         _______ _______ _______ _____ _____    ______ ____
ROOT
ATOM      1  C   UNL     1       2.131   7.673  18.658  0.00  0.00    +0.000 C 
ATOM      2  O   UNL     1       2.068   7.821  19.879  0.00  0.00    +0.000 OA
ATOM      3  N   UNL     1       1.791   8.634  17.716  0.00  0.00    +0.000 N 
ATOM      4  H   UNL     1       1.667   8.327  16.758  0.00  0.00    +0.000 HD
ENDROOT
BRANCH   1   8
ATOM      5  O   UNL     1       1.789   4.207  20.932  0.00  0.00    +0.000 OA
ATOM      6  C   UNL     1       2.450   4.678  20.011  0.00  0.00    +0.000 C 
ATOM      7  C   UNL     1       1.817   5.167  18.739  0.00  0.00    +0.000 C 
ATOM      8  C   UNL     1       2.581   6.324  18.103  0.00  0.00    +0.000 C 
ATOM      9  C   UNL     1       4.077   6.137  18.150  0.00  0.00    +0.000 A 
ATOM     10  C   UNL     1       4.915   6.822  17.255  0.00  0.00    +0.000 A 
ATOM     11  C   UNL     1       6.298   6.665  17.336  0.00  0.00    +0.000 A 
ATOM     12  C   UNL     1       6.837   5.830  18.308  0.00  0.00    +0.000 A 
ATOM     13  F   UNL     1       8.168   5.686  18.385  0.00  0.00    +0.000 F 
ATOM     14  C   UNL     1       6.024   5.162  19.215  0.00  0.00    +0.000 A 
ATOM     15  C   UNL     1       4.644   5.320  19.135  0.00  0.00    +0.000 A 
ATOM     16  N   UNL     1       3.816   4.694  20.068  0.00  0.00    +0.000 N 
ATOM     17  H   UNL     1       4.223   4.216  20.866  0.00  0.00    +0.000 HD
ENDBRANCH   1   8
BRANCH   3  18
ATOM     18  C   UNL     1       1.323   9.935  18.016  0.00  0.00    +0.000 A 
ATOM     19  C   UNL     1       2.173  10.981  18.379  0.00  0.00    +0.000 A 
ATOM     20  C   UNL     1       1.658  12.225  18.743  0.00  0.00    +0.000 A 
ATOM     21  C   UNL     1       0.281  12.434  18.759  0.00  0.00    +0.000 A 
ATOM     22  C   UNL     1      -0.597  11.403  18.407  0.00  0.00    +0.000 A 
ATOM     23  C   UNL     1      -0.058  10.172  17.978  0.00  0.00    +0.000 A 
BRANCH  22  24
ATOM     24  C   UNL     1      -2.051  11.557  18.470  0.00  0.00    +0.000 A 
ATOM     25  N   UNL     1      -2.726  11.952  19.539  0.00  0.00    +0.000 NA
ATOM     26  N   UNL     1      -4.048  12.002  19.184  0.00  0.00    +0.000 NA
ATOM     27  N   UNL     1      -4.212  11.666  17.915  0.00  0.00    +0.000 NA
ATOM     28  N   UNL     1      -2.976  11.406  17.450  0.00  0.00    +0.000 N 
BRANCH  28  29
ATOM     29  C   UNL     1      -2.731  11.081  16.056  0.00  0.00    +0.000 C 
ATOM     30  C   UNL     1      -3.838  10.580  15.139  0.00  0.00    +0.000 C 
ATOM     31  C   UNL     1      -2.775   9.635  15.578  0.00  0.00    +0.000 C 
ENDBRANCH  28  29
ENDBRANCH  22  24
ENDBRANCH   3  18
TORSDOF 4
ENDMDL
MODEL 5
REMARK VINA RESULT:      -9.0      2.128      3.030
REMARK  Name = 
REMARK  4 active torsions:
REMARK  status: ('A' for Active; 'I' for Inactive)
REMARK    1  A    between atoms: C_4  and  C_5
REMARK    2  A    between atoms: N_7  and  C_8
REMARK    3  A    between atoms: C_12  and  C_13
REMARK    4  A    between atoms: N_17  and  C_18
REMARK                            x       y       z     vdW  Elec       q    Type
REMARK                         _______ _______ _______ _____ _____    ______ ____
ROOT
ATOM      1  C   UNL     1       2.827   5.790  17.809  0.00  0.00    +0.000 C 
ATOM      2  O   UNL     1       1.706   5.281  17.797  0.00  0.00    +0.000 OA
ATOM      3  N   UNL     1       3.101   7.118  18.108  0.00  0.00    +0.000 N 
ATOM      4  H   UNL     1       4.019   7.472  17.866  0.00  0.00    +0.000 HD
ENDROOT
BRANCH   1   8
ATOM      5  O   UNL     1       3.971   2.575  20.187  0.00  0.00    +0.000 OA
ATOM      6  C   UNL     1       4.439   3.375  19.381  0.00  0.00    +0.000 C 
ATOM      7  C   UNL     1       3.903   3.510  17.984  0.00  0.00    +0.000 C 
ATOM      8  C   UNL     1       4.031   4.929  17.435  0.00  0.00    +0.000 C 
ATOM      9  C   UNL     1       5.349   5.576  17.780  0.00  0.00    +0.000 A 
ATOM     10  C   UNL     1       5.841   6.650  17.020  0.00  0.00    +0.000 A 
ATOM     11  C   UNL     1       7.043   7.260  17.374  0.00  0.00    +0.000 A 
ATOM     12  C   UNL     1       7.747   6.799  18.481  0.00  0.00    +0.000 A 
ATOM     13  F   UNL     1       8.900   7.391  18.820  0.00  0.00    +0.000 F 
ATOM     14  C   UNL     1       7.263   5.751  19.256  0.00  0.00    +0.000 A 
ATOM     15  C   UNL     1       6.062   5.144  18.903  0.00  0.00    +0.000 A 
ATOM     16  N   UNL     1       5.539   4.123  19.698  0.00  0.00    +0.000 N 
ATOM     17  H   UNL     1       5.975   3.898  20.587  0.00  0.00    +0.000 HD
ENDBRANCH   1   8
BRANCH   3  18
ATOM     18  C   UNL     1       2.130   8.090  18.449  0.00  0.00    +0.000 A 
ATOM     19  C   UNL     1       1.524   8.918  17.503  0.00  0.00    +0.000 A 
ATOM     20  C   UNL     1       0.632   9.916  17.897  0.00  0.00    +0.000 A 
ATOM     21  C   UNL     1       0.345  10.104  19.247  0.00  0.00    +0.000 A 
ATOM     22  C   UNL     1       0.943   9.295  20.219  0.00  0.00    +0.000 A 
ATOM     23  C   UNL     1       1.791   8.248  19.799  0.00  0.00    +0.000 A 
BRANCH  22  24
ATOM     24  C   UNL     1       0.721   9.497  21.651  0.00  0.00    +0.000 A 
ATOM     25  N   UNL     1       1.495   9.016  22.613  0.00  0.00    +0.000 NA
ATOM     26  N   UNL     1       0.973   9.452  23.803  0.00  0.00    +0.000 NA
ATOM     27  N   UNL     1      -0.094  10.207  23.605  0.00  0.00    +0.000 NA
ATOM     28  N   UNL     1      -0.253  10.262  22.270  0.00  0.00    +0.000 N 
BRANCH  28  29
ATOM     29  C   UNL     1      -1.283  11.077  21.651  0.00  0.00    +0.000 C 
ATOM     30  C   UNL     1      -1.087  12.563  21.390  0.00  0.00    +0.000 C 
ATOM     31  C   UNL     1      -2.028  12.132  22.460  0.00  0.00    +0.000 C 
ENDBRANCH  28  29
ENDBRANCH  22  24
ENDBRANCH   3  18
TORSDOF 4
ENDMDL
MODEL 6
REMARK VINA RESULT:      -8.8      3.043      3.831
REMARK  Name = 
REMARK  4 active torsions:
REMARK  status: ('A' for Active; 'I' for Inactive)
REMARK    1  A    between atoms: C_4  and  C_5
REMARK    2  A    between atoms: N_7  and  C_8
REMARK    3  A    between atoms: C_12  and  C_13
REMARK    4  A    between atoms: N_17  and  C_18
REMARK                            x       y       z     vdW  Elec       q    Type
REMARK                         _______ _______ _______ _____ _____    ______ ____
ROOT
ATOM      1  C   UNL     1       3.999   6.481  17.970  0.00  0.00    +0.000 C 
ATOM      2  O   UNL     1       4.647   7.388  17.447  0.00  0.00    +0.000 OA
ATOM      3  N   UNL     1       2.785   6.637  18.624  0.00  0.00    +0.000 N 
ATOM      4  H   UNL     1       2.464   5.870  19.204  0.00  0.00    +0.000 HD
ENDROOT
BRANCH   1   8
ATOM      5  O   UNL     1       7.512   5.555  19.995  0.00  0.00    +0.000 OA
ATOM      6  C   UNL     1       6.838   5.177  19.042  0.00  0.00    +0.000 C 
ATOM      7  C   UNL     1       5.400   4.767  19.190  0.00  0.00    +0.000 C 
ATOM      8  C   UNL     1       4.568   5.064  17.946  0.00  0.00    +0.000 C 
ATOM      9  C   UNL     1       5.292   4.741  16.663  0.00  0.00    +0.000 A 
ATOM     10  C   UNL     1       4.579   4.511  15.475  0.00  0.00    +0.000 A 
ATOM     11  C   UNL     1       5.266   4.249  14.290  0.00  0.00    +0.000 A 
ATOM     12  C   UNL     1       6.656   4.221  14.295  0.00  0.00    +0.000 A 
ATOM     13  F   UNL     1       7.312   3.973  13.153  0.00  0.00    +0.000 F 
ATOM     14  C   UNL     1       7.377   4.468  15.457  0.00  0.00    +0.000 A 
ATOM     15  C   UNL     1       6.691   4.731  16.639  0.00  0.00    +0.000 A 
ATOM     16  N   UNL     1       7.400   5.028  17.804  0.00  0.00    +0.000 N 
ATOM     17  H   UNL     1       8.406   5.160  17.766  0.00  0.00    +0.000 HD
ENDBRANCH   1   8
BRANCH   3  18
ATOM     18  C   UNL     1       2.102   7.866  18.786  0.00  0.00    +0.000 A 
ATOM     19  C   UNL     1       1.991   8.811  17.765  0.00  0.00    +0.000 A 
ATOM     20  C   UNL     1       1.377  10.041  17.996  0.00  0.00    +0.000 A 
ATOM     21  C   UNL     1       0.876  10.346  19.260  0.00  0.00    +0.000 A 
ATOM     22  C   UNL     1       0.979   9.423  20.305  0.00  0.00    +0.000 A 
ATOM     23  C   UNL     1       1.543   8.158  20.037  0.00  0.00    +0.000 A 
BRANCH  22  24
ATOM     24  C   UNL     1       0.524   9.723  21.664  0.00  0.00    +0.000 A 
ATOM     25  N   UNL     1       1.051   9.216  22.769  0.00  0.00    +0.000 NA
ATOM     26  N   UNL     1       0.374   9.767  23.825  0.00  0.00    +0.000 NA
ATOM     27  N   UNL     1      -0.547  10.619  23.406  0.00  0.00    +0.000 NA
ATOM     28  N   UNL     1      -0.453  10.619  22.064  0.00  0.00    +0.000 N 
BRANCH  28  29
ATOM     29  C   UNL     1      -1.254  11.503  21.237  0.00  0.00    +0.000 C 
ATOM     30  C   UNL     1      -0.956  12.991  21.123  0.00  0.00    +0.000 C 
ATOM     31  C   UNL     1      -2.163  12.548  21.873  0.00  0.00    +0.000 C 
ENDBRANCH  28  29
ENDBRANCH  22  24
ENDBRANCH   3  18
TORSDOF 4
ENDMDL
MODEL 7
REMARK VINA RESULT:      -8.7      2.391      3.116
REMARK  Name = 
REMARK  4 active torsions:
REMARK  status: ('A' for Active; 'I' for Inactive)
REMARK    1  A    between atoms: C_4  and  C_5
REMARK    2  A    between atoms: N_7  and  C_8
REMARK    3  A    between atoms: C_12  and  C_13
REMARK    4  A    between atoms: N_17  and  C_18
REMARK                            x       y       z     vdW  Elec       q    Type
REMARK                         _______ _______ _______ _____ _____    ______ ____
ROOT
ATOM      1  C   UNL     1       2.403   7.263  18.531  0.00  0.00    +0.000 C 
ATOM      2  O   UNL     1       2.656   7.273  19.737  0.00  0.00    +0.000 OA
ATOM      3  N   UNL     1       1.947   8.351  17.800  0.00  0.00    +0.000 N 
ATOM      4  H   UNL     1       1.561   8.168  16.881  0.00  0.00    +0.000 HD
ENDROOT
BRANCH   1   8
ATOM      5  O   UNL     1       1.733   3.598  20.379  0.00  0.00    +0.000 OA
ATOM      6  C   UNL     1       2.360   4.091  19.445  0.00  0.00    +0.000 C 
ATOM      7  C   UNL     1       1.684   4.848  18.338  0.00  0.00    +0.000 C 
ATOM      8  C   UNL     1       2.558   5.956  17.758  0.00  0.00    +0.000 C 
ATOM      9  C   UNL     1       3.998   5.540  17.587  0.00  0.00    +0.000 A 
ATOM     10  C   UNL     1       4.837   6.213  16.683  0.00  0.00    +0.000 A 
ATOM     11  C   UNL     1       6.174   5.839  16.564  0.00  0.00    +0.000 A 
ATOM     12  C   UNL     1       6.668   4.800  17.345  0.00  0.00    +0.000 A 
ATOM     13  F   UNL     1       7.956   4.447  17.230  0.00  0.00    +0.000 F 
ATOM     14  C   UNL     1       5.857   4.138  18.260  0.00  0.00    +0.000 A 
ATOM     15  C   UNL     1       4.523   4.514  18.380  0.00  0.00    +0.000 A 
ATOM     16  N   UNL     1       3.708   3.892  19.327  0.00  0.00    +0.000 N 
ATOM     17  H   UNL     1       4.112   3.247  19.998  0.00  0.00    +0.000 HD
ENDBRANCH   1   8
BRANCH   3  18
ATOM     18  C   UNL     1       1.707   9.642  18.328  0.00  0.00    +0.000 A 
ATOM     19  C   UNL     1       2.294  10.795  17.805  0.00  0.00    +0.000 A 
ATOM     20  C   UNL     1       2.090  12.036  18.409  0.00  0.00    +0.000 A 
ATOM     21  C   UNL     1       1.303  12.135  19.554  0.00  0.00    +0.000 A 
ATOM     22  C   UNL     1       0.708  10.996  20.106  0.00  0.00    +0.000 A 
ATOM     23  C   UNL     1       0.870   9.760  19.445  0.00  0.00    +0.000 A 
BRANCH  22  24
ATOM     24  C   UNL     1      -0.075  11.042  21.342  0.00  0.00    +0.000 A 
ATOM     25  N   UNL     1       0.248  10.422  22.467  0.00  0.00    +0.000 NA
ATOM     26  N   UNL     1      -0.712  10.741  23.391  0.00  0.00    +0.000 NA
ATOM     27  N   UNL     1      -1.613  11.560  22.876  0.00  0.00    +0.000 NA
ATOM     28  N   UNL     1      -1.220  11.774  21.606  0.00  0.00    +0.000 N 
BRANCH  28  29
ATOM     29  C   UNL     1      -1.918  12.698  20.731  0.00  0.00    +0.000 C 
ATOM     30  C   UNL     1      -3.436  12.813  20.725  0.00  0.00    +0.000 C 
ATOM     31  C   UNL     1      -2.751  12.182  19.564  0.00  0.00    +0.000 C 
ENDBRANCH  28  29
ENDBRANCH  22  24
ENDBRANCH   3  18
TORSDOF 4
ENDMDL
MODEL 8
REMARK VINA RESULT:      -8.6      3.578      8.426
REMARK  Name = 
REMARK  4 active torsions:
REMARK  status: ('A' for Active; 'I' for Inactive)
REMARK    1  A    between atoms: C_4  and  C_5
REMARK    2  A    between atoms: N_7  and  C_8
REMARK    3  A    between atoms: C_12  and  C_13
REMARK    4  A    between atoms: N_17  and  C_18
REMARK                            x       y       z     vdW  Elec       q    Type
REMARK                         _______ _______ _______ _____ _____    ______ ____
ROOT
ATOM      1  C   UNL     1       1.225   9.836  18.473  0.00  0.00    +0.000 C 
ATOM      2  O   UNL     1       1.730  10.331  17.465  0.00  0.00    +0.000 OA
ATOM      3  N   UNL     1       1.521   8.578  18.981  0.00  0.00    +0.000 N 
ATOM      4  H   UNL     1       0.888   8.191  19.670  0.00  0.00    +0.000 HD
ENDROOT
BRANCH   1   8
ATOM      5  O   UNL     1      -2.371  10.850  16.646  0.00  0.00    +0.000 OA
ATOM      6  C   UNL     1      -1.622  11.226  17.543  0.00  0.00    +0.000 C 
ATOM      7  C   UNL     1      -1.242  10.339  18.694  0.00  0.00    +0.000 C 
ATOM      8  C   UNL     1       0.159  10.626  19.227  0.00  0.00    +0.000 C 
ATOM      9  C   UNL     1       0.466  12.101  19.307  0.00  0.00    +0.000 A 
ATOM     10  C   UNL     1       1.473  12.579  20.162  0.00  0.00    +0.000 A 
ATOM     11  C   UNL     1       1.768  13.941  20.198  0.00  0.00    +0.000 A 
ATOM     12  C   UNL     1       1.062  14.817  19.381  0.00  0.00    +0.000 A 
ATOM     13  F   UNL     1       1.352  16.125  19.415  0.00  0.00    +0.000 F 
ATOM     14  C   UNL     1       0.078  14.358  18.514  0.00  0.00    +0.000 A 
ATOM     15  C   UNL     1      -0.215  12.999  18.477  0.00  0.00    +0.000 A 
ATOM     16  N   UNL     1      -1.166  12.515  17.578  0.00  0.00    +0.000 N 
ATOM     17  H   UNL     1      -1.564  13.135  16.879  0.00  0.00    +0.000 HD
ENDBRANCH   1   8
BRANCH   3  18
ATOM     18  C   UNL     1       2.453   7.674  18.418  0.00  0.00    +0.000 A 
ATOM     19  C   UNL     1       3.575   8.092  17.700  0.00  0.00    +0.000 A 
ATOM     20  C   UNL     1       4.422   7.162  17.097  0.00  0.00    +0.000 A 
ATOM     21  C   UNL     1       4.148   5.800  17.196  0.00  0.00    +0.000 A 
ATOM     22  C   UNL     1       3.027   5.351  17.902  0.00  0.00    +0.000 A 
ATOM     23  C   UNL     1       2.218   6.300  18.562  0.00  0.00    +0.000 A 
BRANCH  22  24
ATOM     24  C   UNL     1       2.665   3.935  17.979  0.00  0.00    +0.000 A 
ATOM     25  N   UNL     1       2.337   3.179  16.942  0.00  0.00    +0.000 NA
ATOM     26  N   UNL     1       2.104   1.917  17.423  0.00  0.00    +0.000 NA
ATOM     27  N   UNL     1       2.298   1.864  18.729  0.00  0.00    +0.000 NA
ATOM     28  N   UNL     1       2.668   3.107  19.089  0.00  0.00    +0.000 N 
BRANCH  28  29
ATOM     29  C   UNL     1       3.055   3.430  20.451  0.00  0.00    +0.000 C 
ATOM     30  C   UNL     1       2.505   2.667  21.648  0.00  0.00    +0.000 C 
ATOM     31  C   UNL     1       2.056   4.066  21.410  0.00  0.00    +0.000 C 
ENDBRANCH  28  29
ENDBRANCH  22  24
ENDBRANCH   3  18
TORSDOF 4
ENDMDL
MODEL 9
REMARK VINA RESULT:      -8.6      2.825      4.007
REMARK  Name = 
REMARK  4 active torsions:
REMARK  status: ('A' for Active; 'I' for Inactive)
REMARK    1  A    between atoms: C_4  and  C_5
REMARK    2  A    between atoms: N_7  and  C_8
REMARK    3  A    between atoms: C_12  and  C_13
REMARK    4  A    between atoms: N_17  and  C_18
REMARK                            x       y       z     vdW  Elec       q    Type
REMARK                         _______ _______ _______ _____ _____    ______ ____
ROOT
ATOM      1  C   UNL     1       2.119   7.402  20.025  0.00  0.00    +0.000 C 
ATOM      2  O   UNL     1       1.791   7.953  18.973  0.00  0.00    +0.000 OA
ATOM      3  N   UNL     1       1.757   7.824  21.297  0.00  0.00    +0.000 N 
ATOM      4  H   UNL     1       2.266   7.434  22.082  0.00  0.00    +0.000 HD
ENDROOT
BRANCH   1   8
ATOM      5  O   UNL     1       4.566   6.726  16.730  0.00  0.00    +0.000 OA
ATOM      6  C   UNL     1       4.000   6.118  17.634  0.00  0.00    +0.000 C 
ATOM      7  C   UNL     1       4.250   6.422  19.084  0.00  0.00    +0.000 C 
ATOM      8  C   UNL     1       3.026   6.176  19.961  0.00  0.00    +0.000 C 
ATOM      9  C   UNL     1       2.285   4.914  19.596  0.00  0.00    +0.000 A 
ATOM     10  C   UNL     1       1.441   4.283  20.524  0.00  0.00    +0.000 A 
ATOM     11  C   UNL     1       0.736   3.137  20.158  0.00  0.00    +0.000 A 
ATOM     12  C   UNL     1       0.874   2.629  18.872  0.00  0.00    +0.000 A 
ATOM     13  F   UNL     1       0.191   1.530  18.523  0.00  0.00    +0.000 F 
ATOM     14  C   UNL     1       1.688   3.253  17.934  0.00  0.00    +0.000 A 
ATOM     15  C   UNL     1       2.389   4.398  18.299  0.00  0.00    +0.000 A 
ATOM     16  N   UNL     1       3.173   5.064  17.356  0.00  0.00    +0.000 N 
ATOM     17  H   UNL     1       3.145   4.780  16.382  0.00  0.00    +0.000 HD
ENDBRANCH   1   8
BRANCH   3  18
ATOM     18  C   UNL     1       0.950   8.952  21.580  0.00  0.00    +0.000 A 
ATOM     19  C   UNL     1       0.084   9.008  22.673  0.00  0.00    +0.000 A 
ATOM     20  C   UNL     1      -0.750  10.110  22.865  0.00  0.00    +0.000 A 
ATOM     21  C   UNL     1      -0.735  11.165  21.957  0.00  0.00    +0.000 A 
ATOM     22  C   UNL     1       0.116  11.134  20.847  0.00  0.00    +0.000 A 
ATOM     23  C   UNL     1       1.000  10.044  20.703  0.00  0.00    +0.000 A 
BRANCH  22  24
ATOM     24  C   UNL     1       0.120  12.190  19.833  0.00  0.00    +0.000 A 
ATOM     25  N   UNL     1       1.096  13.069  19.659  0.00  0.00    +0.000 NA
ATOM     26  N   UNL     1       0.740  13.858  18.598  0.00  0.00    +0.000 NA
ATOM     27  N   UNL     1      -0.423  13.481  18.094  0.00  0.00    +0.000 NA
ATOM     28  N   UNL     1      -0.813  12.430  18.839  0.00  0.00    +0.000 N 
BRANCH  28  29
ATOM     29  C   UNL     1      -2.018  11.679  18.538  0.00  0.00    +0.000 C 
ATOM     30  C   UNL     1      -1.977  10.206  18.158  0.00  0.00    +0.000 C 
ATOM     31  C   UNL     1      -2.308  11.215  17.116  0.00  0.00    +0.000 C 
ENDBRANCH  28  29
ENDBRANCH  22  24
ENDBRANCH   3  18
TORSDOF 4
ENDMDL
