MODEL 1
REMARK VINA RESULT:      -8.6      0.000      0.000
REMARK  Name = 
REMARK  5 active torsions:
REMARK  status: ('A' for Active; 'I' for Inactive)
REMARK    1  A    between atoms: C_1  and  C_2
REMARK    2  A    between atoms: C_5  and  N_6
REMARK    3  A    between atoms: C_8  and  N_9
REMARK    4  A    between atoms: C_10  and  C_12
REMARK    5  A    between atoms: C_26  and  C_27
REMARK                            x       y       z     vdW  Elec       q    Type
REMARK                         _______ _______ _______ _____ _____    ______ ____
ROOT
ATOM      1  N   UNL     1       8.227   9.559  17.683  0.00  0.00    +0.000 N 
ATOM      2  C   UNL     1       8.998  10.284  18.631  0.00  0.00    +0.000 C 
ATOM      3  O   UNL     1       9.337   9.794  19.710  0.00  0.00    +0.000 OA
ATOM      4  H   UNL     1       7.911  10.038  16.828  0.00  0.00    +0.000 HD
ENDROOT
BRANCH   2   5
ATOM      5  C   UNL     1       9.417  11.713  18.331  0.00  0.00    +0.000 A 
ATOM      6  C   UNL     1       8.497  12.772  18.352  0.00  0.00    +0.000 A 
ATOM      7  C   UNL     1       8.875  14.065  18.054  0.00  0.00    +0.000 A 
ATOM      8  C   UNL     1      10.179  14.198  17.786  0.00  0.00    +0.000 A 
ATOM      9  C   UNL     1      11.122  13.304  17.733  0.00  0.00    +0.000 A 
ATOM     10  C   UNL     1      10.712  12.033  17.974  0.00  0.00    +0.000 A 
ATOM     11  F   UNL     1      11.645  11.105  17.838  0.00  0.00    +0.000 F 
ATOM     12  N   UNL     1      10.616  15.389  17.513  0.00  0.00    +0.000 N 
ATOM     13  C   UNL     1      11.077  16.536  17.237  0.00  0.00    +0.000 C 
ATOM     14  O   UNL     1      12.202  17.016  16.965  0.00  0.00    +0.000 OA
ATOM     15  C   UNL     1       9.011  16.591  17.591  0.00  0.00    +0.000 C 
ATOM     16  C   UNL     1       7.976  15.243  18.053  0.00  0.00    +0.000 C 
ATOM     17  H   UNL     1      10.393  16.454  17.425  0.00  0.00    +0.000 HD
ENDBRANCH   2   5
BRANCH   1  20
ATOM     18  N   UNL     1       6.524   6.409  17.977  0.00  0.00    +0.000 N 
ATOM     19  C   UNL     1       6.619   7.652  17.472  0.00  0.00    +0.000 A 
ATOM     20  C   UNL     1       7.796   8.249  17.896  0.00  0.00    +0.000 A 
ATOM     21  C   UNL     1       8.414   7.233  18.564  0.00  0.00    +0.000 A 
ATOM     22  N   UNL     1       7.682   6.121  18.615  0.00  0.00    +0.000 NA
BRANCH  18  27
ATOM     23  C   UNL     1       2.131   2.782  17.515  0.00  0.00    +0.000 C 
ATOM     24  C   UNL     1       3.283   3.726  17.613  0.00  0.00    +0.000 A 
ATOM     25  C   UNL     1       3.329   4.668  18.622  0.00  0.00    +0.000 A 
ATOM     26  C   UNL     1       4.397   5.536  18.735  0.00  0.00    +0.000 A 
ATOM     27  C   UNL     1       5.450   5.489  17.837  0.00  0.00    +0.000 A 
ATOM     28  C   UNL     1       5.446   4.545  16.816  0.00  0.00    +0.000 A 
ATOM     29  C   UNL     1       6.599   4.513  15.873  0.00  0.00    +0.000 C 
ATOM     30  C   UNL     1       4.350   3.675  16.715  0.00  0.00    +0.000 A 
ENDBRANCH  18  27
ENDBRANCH   1  20
TORSDOF 3
ENDMDL
MODEL 2
REMARK VINA RESULT:      -8.3      1.791      2.750
REMARK  Name = 
REMARK  5 active torsions:
REMARK  status: ('A' for Active; 'I' for Inactive)
REMARK    1  A    between atoms: C_1  and  C_2
REMARK    2  A    between atoms: C_5  and  N_6
REMARK    3  A    between atoms: C_8  and  N_9
REMARK    4  A    between atoms: C_10  and  C_12
REMARK    5  A    between atoms: C_26  and  C_27
REMARK                            x       y       z     vdW  Elec       q    Type
REMARK                         _______ _______ _______ _____ _____    ______ ____
ROOT
ATOM      1  N   UNL     1       7.312   8.497  17.261  0.00  0.00    +0.000 N 
ATOM      2  C   UNL     1       8.309   8.773  18.235  0.00  0.00    +0.000 C 
ATOM      3  O   UNL     1       8.689   7.921  19.040  0.00  0.00    +0.000 OA
ATOM      4  H   UNL     1       6.979   9.263  16.659  0.00  0.00    +0.000 HD
ENDROOT
BRANCH   2   5
ATOM      5  C   UNL     1       8.926  10.158  18.314  0.00  0.00    +0.000 A 
ATOM      6  C   UNL     1      10.088  10.408  19.061  0.00  0.00    +0.000 A 
ATOM      7  C   UNL     1      10.632  11.673  19.151  0.00  0.00    +0.000 A 
ATOM      8  C   UNL     1       9.971  12.596  18.442  0.00  0.00    +0.000 A 
ATOM      9  C   UNL     1       8.895  12.491  17.721  0.00  0.00    +0.000 A 
ATOM     10  C   UNL     1       8.349  11.249  17.695  0.00  0.00    +0.000 A 
ATOM     11  F   UNL     1       7.207  11.150  17.035  0.00  0.00    +0.000 F 
ATOM     12  N   UNL     1      10.432  13.809  18.462  0.00  0.00    +0.000 N 
ATOM     13  C   UNL     1      10.851  15.005  18.463  0.00  0.00    +0.000 C 
ATOM     14  O   UNL     1      10.509  16.081  17.921  0.00  0.00    +0.000 OA
ATOM     15  C   UNL     1      12.039  13.763  19.664  0.00  0.00    +0.000 C 
ATOM     16  C   UNL     1      11.853  12.029  19.912  0.00  0.00    +0.000 C 
ATOM     17  H   UNL     1      11.216  14.491  18.799  0.00  0.00    +0.000 HD
ENDBRANCH   2   5
BRANCH   1  20
ATOM     18  N   UNL     1       5.234   5.567  17.345  0.00  0.00    +0.000 N 
ATOM     19  C   UNL     1       5.415   6.887  17.535  0.00  0.00    +0.000 A 
ATOM     20  C   UNL     1       6.692   7.253  17.138  0.00  0.00    +0.000 A 
ATOM     21  C   UNL     1       7.174   6.094  16.603  0.00  0.00    +0.000 A 
ATOM     22  N   UNL     1       6.319   5.079  16.702  0.00  0.00    +0.000 NA
BRANCH  18  27
ATOM     23  C   UNL     1       0.734   2.306  18.681  0.00  0.00    +0.000 C 
ATOM     24  C   UNL     1       1.900   3.175  18.344  0.00  0.00    +0.000 A 
ATOM     25  C   UNL     1       3.100   2.612  17.956  0.00  0.00    +0.000 A 
ATOM     26  C   UNL     1       4.182   3.405  17.626  0.00  0.00    +0.000 A 
ATOM     27  C   UNL     1       4.094   4.785  17.678  0.00  0.00    +0.000 A 
ATOM     28  C   UNL     1       2.898   5.389  18.051  0.00  0.00    +0.000 A 
ATOM     29  C   UNL     1       2.833   6.877  18.087  0.00  0.00    +0.000 C 
ATOM     30  C   UNL     1       1.812   4.567  18.387  0.00  0.00    +0.000 A 
ENDBRANCH  18  27
ENDBRANCH   1  20
TORSDOF 3
ENDMDL
MODEL 3
REMARK VINA RESULT:      -8.3      1.390      1.940
REMARK  Name = 
REMARK  5 active torsions:
REMARK  status: ('A' for Active; 'I' for Inactive)
REMARK    1  A    between atoms: C_1  and  C_2
REMARK    2  A    between atoms: C_5  and  N_6
REMARK    3  A    between atoms: C_8  and  N_9
REMARK    4  A    between atoms: C_10  and  C_12
REMARK    5  A    between atoms: C_26  and  C_27
REMARK                            x       y       z     vdW  Elec       q    Type
REMARK                         _______ _______ _______ _____ _____    ______ ____
ROOT
ATOM      1  N   UNL     1       7.836   9.103  17.394  0.00  0.00    +0.000 N 
ATOM      2  C   UNL     1       8.704   9.608  18.399  0.00  0.00    +0.000 C 
ATOM      3  O   UNL     1       9.013   8.944  19.391  0.00  0.00    +0.000 OA
ATOM      4  H   UNL     1       7.553   9.723  16.623  0.00  0.00    +0.000 HD
ENDROOT
BRANCH   2   5
ATOM      5  C   UNL     1       9.267  11.013  18.275  0.00  0.00    +0.000 A 
ATOM      6  C   UNL     1      10.473  11.383  18.890  0.00  0.00    +0.000 A 
ATOM      7  C   UNL     1      10.970  12.667  18.797  0.00  0.00    +0.000 A 
ATOM      8  C   UNL     1      10.216  13.483  18.049  0.00  0.00    +0.000 A 
ATOM      9  C   UNL     1       9.091  13.263  17.436  0.00  0.00    +0.000 A 
ATOM     10  C   UNL     1       8.597  12.009  17.592  0.00  0.00    +0.000 A 
ATOM     11  F   UNL     1       7.411  11.799  17.044  0.00  0.00    +0.000 F 
ATOM     12  N   UNL     1      10.626  14.705  17.899  0.00  0.00    +0.000 N 
ATOM     13  C   UNL     1      10.993  15.907  17.734  0.00  0.00    +0.000 C 
ATOM     14  O   UNL     1      10.564  16.904  17.109  0.00  0.00    +0.000 OA
ATOM     15  C   UNL     1      12.324  14.847  18.960  0.00  0.00    +0.000 C 
ATOM     16  C   UNL     1      12.231  13.146  19.409  0.00  0.00    +0.000 C 
ATOM     17  H   UNL     1      11.405  15.446  18.093  0.00  0.00    +0.000 HD
ENDBRANCH   2   5
BRANCH   1  20
ATOM     18  N   UNL     1       5.801   6.154  17.665  0.00  0.00    +0.000 N 
ATOM     19  C   UNL     1       5.929   7.484  17.512  0.00  0.00    +0.000 A 
ATOM     20  C   UNL     1       7.271   7.828  17.449  0.00  0.00    +0.000 A 
ATOM     21  C   UNL     1       7.884   6.609  17.451  0.00  0.00    +0.000 A 
ATOM     22  N   UNL     1       7.029   5.595  17.565  0.00  0.00    +0.000 NA
BRANCH  18  27
ATOM     23  C   UNL     1       0.947   3.238  18.450  0.00  0.00    +0.000 C 
ATOM     24  C   UNL     1       2.214   3.994  18.223  0.00  0.00    +0.000 A 
ATOM     25  C   UNL     1       2.598   4.992  19.097  0.00  0.00    +0.000 A 
ATOM     26  C   UNL     1       3.776   5.688  18.908  0.00  0.00    +0.000 A 
ATOM     27  C   UNL     1       4.604   5.406  17.835  0.00  0.00    +0.000 A 
ATOM     28  C   UNL     1       4.258   4.399  16.941  0.00  0.00    +0.000 A 
ATOM     29  C   UNL     1       5.176   4.113  15.802  0.00  0.00    +0.000 C 
ATOM     30  C   UNL     1       3.055   3.707  17.147  0.00  0.00    +0.000 A 
ENDBRANCH  18  27
ENDBRANCH   1  20
TORSDOF 3
ENDMDL
MODEL 4
REMARK VINA RESULT:      -8.2      8.499     11.443
REMARK  Name = 
REMARK  5 active torsions:
REMARK  status: ('A' for Active; 'I' for Inactive)
REMARK    1  A    between atoms: C_1  and  C_2
REMARK    2  A    between atoms: C_5  and  N_6
REMARK    3  A    between atoms: C_8  and  N_9
REMARK    4  A    between atoms: C_10  and  C_12
REMARK    5  A    between atoms: C_26  and  C_27
REMARK                            x       y       z     vdW  Elec       q    Type
REMARK                         _______ _______ _______ _____ _____    ______ ____
ROOT
ATOM      1  N   UNL     1       0.884   9.864  20.825  0.00  0.00    +0.000 N 
ATOM      2  C   UNL     1       1.000   9.350  19.506  0.00  0.00    +0.000 C 
ATOM      3  O   UNL     1       0.354   9.814  18.564  0.00  0.00    +0.000 OA
ATOM      4  H   UNL     1       1.391   9.395  21.588  0.00  0.00    +0.000 HD
ENDROOT
BRANCH   2   5
ATOM      5  C   UNL     1       1.932   8.183  19.229  0.00  0.00    +0.000 A 
ATOM      6  C   UNL     1       2.726   8.130  18.073  0.00  0.00    +0.000 A 
ATOM      7  C   UNL     1       3.553   7.057  17.811  0.00  0.00    +0.000 A 
ATOM      8  C   UNL     1       3.541   6.121  18.767  0.00  0.00    +0.000 A 
ATOM      9  C   UNL     1       2.855   6.054  19.870  0.00  0.00    +0.000 A 
ATOM     10  C   UNL     1       2.008   7.095  20.074  0.00  0.00    +0.000 A 
ATOM     11  F   UNL     1       1.244   6.995  21.150  0.00  0.00    +0.000 F 
ATOM     12  N   UNL     1       4.306   5.087  18.602  0.00  0.00    +0.000 N 
ATOM     13  C   UNL     1       5.038   4.060  18.472  0.00  0.00    +0.000 C 
ATOM     14  O   UNL     1       5.284   3.035  19.148  0.00  0.00    +0.000 OA
ATOM     15  C   UNL     1       5.219   5.359  16.835  0.00  0.00    +0.000 C 
ATOM     16  C   UNL     1       4.426   6.917  16.622  0.00  0.00    +0.000 C 
ATOM     17  H   UNL     1       5.066   4.590  17.993  0.00  0.00    +0.000 HD
ENDBRANCH   2   5
BRANCH   1  20
ATOM     18  N   UNL     1      -1.744  12.102  21.822  0.00  0.00    +0.000 N 
ATOM     19  C   UNL     1      -1.196  10.874  21.786  0.00  0.00    +0.000 A 
ATOM     20  C   UNL     1       0.039  10.923  21.157  0.00  0.00    +0.000 A 
ATOM     21  C   UNL     1       0.208  12.262  20.953  0.00  0.00    +0.000 A 
ATOM     22  N   UNL     1      -0.834  12.987  21.353  0.00  0.00    +0.000 NA
BRANCH  18  27
ATOM     23  C   UNL     1      -6.830  13.604  23.956  0.00  0.00    +0.000 C 
ATOM     24  C   UNL     1      -5.507  13.222  23.379  0.00  0.00    +0.000 A 
ATOM     25  C   UNL     1      -4.443  12.928  24.208  0.00  0.00    +0.000 A 
ATOM     26  C   UNL     1      -3.218  12.558  23.688  0.00  0.00    +0.000 A 
ATOM     27  C   UNL     1      -3.023  12.473  22.320  0.00  0.00    +0.000 A 
ATOM     28  C   UNL     1      -4.076  12.748  21.453  0.00  0.00    +0.000 A 
ATOM     29  C   UNL     1      -3.836  12.637  19.987  0.00  0.00    +0.000 C 
ATOM     30  C   UNL     1      -5.310  13.127  22.001  0.00  0.00    +0.000 A 
ENDBRANCH  18  27
ENDBRANCH   1  20
TORSDOF 3
ENDMDL
MODEL 5
REMARK VINA RESULT:      -8.0      7.691      9.300
REMARK  Name = 
REMARK  5 active torsions:
REMARK  status: ('A' for Active; 'I' for Inactive)
REMARK    1  A    between atoms: C_1  and  C_2
REMARK    2  A    between atoms: C_5  and  N_6
REMARK    3  A    between atoms: C_8  and  N_9
REMARK    4  A    between atoms: C_10  and  C_12
REMARK    5  A    between atoms: C_26  and  C_27
REMARK                            x       y       z     vdW  Elec       q    Type
REMARK                         _______ _______ _______ _____ _____    ______ ____
ROOT
ATOM      1  N   UNL     1       0.783   9.109  20.228  0.00  0.00    +0.000 N 
ATOM      2  C   UNL     1       0.868   9.830  21.449  0.00  0.00    +0.000 C 
ATOM      3  O   UNL     1       1.678   9.532  22.329  0.00  0.00    +0.000 OA
ATOM      4  H   UNL     1       0.041   9.353  19.556  0.00  0.00    +0.000 HD
ENDROOT
BRANCH   2   5
ATOM      5  C   UNL     1      -0.069  10.997  21.704  0.00  0.00    +0.000 A 
ATOM      6  C   UNL     1      -0.028  12.162  20.923  0.00  0.00    +0.000 A 
ATOM      7  C   UNL     1      -0.864  13.231  21.173  0.00  0.00    +0.000 A 
ATOM      8  C   UNL     1      -1.712  13.027  22.188  0.00  0.00    +0.000 A 
ATOM      9  C   UNL     1      -1.845  12.005  22.980  0.00  0.00    +0.000 A 
ATOM     10  C   UNL     1      -0.973  10.991  22.748  0.00  0.00    +0.000 A 
ATOM     11  F   UNL     1      -1.042   9.983  23.602  0.00  0.00    +0.000 F 
ATOM     12  N   UNL     1      -2.543  13.981  22.474  0.00  0.00    +0.000 N 
ATOM     13  C   UNL     1      -3.366  14.893  22.786  0.00  0.00    +0.000 C 
ATOM     14  O   UNL     1      -4.280  15.034  23.630  0.00  0.00    +0.000 OA
ATOM     15  C   UNL     1      -2.135  15.466  21.187  0.00  0.00    +0.000 C 
ATOM     16  C   UNL     1      -0.893  14.496  20.402  0.00  0.00    +0.000 C 
ATOM     17  H   UNL     1      -2.936  14.968  22.219  0.00  0.00    +0.000 HD
ENDBRANCH   2   5
BRANCH   1  20
ATOM     18  N   UNL     1       2.926   6.581  18.840  0.00  0.00    +0.000 N 
ATOM     19  C   UNL     1       2.372   7.806  18.797  0.00  0.00    +0.000 A 
ATOM     20  C   UNL     1       1.601   8.018  19.930  0.00  0.00    +0.000 A 
ATOM     21  C   UNL     1       1.850   6.897  20.666  0.00  0.00    +0.000 A 
ATOM     22  N   UNL     1       2.649   6.032  20.044  0.00  0.00    +0.000 NA
BRANCH  18  27
ATOM     23  C   UNL     1       6.260   4.159  14.878  0.00  0.00    +0.000 C 
ATOM     24  C   UNL     1       5.382   4.771  15.919  0.00  0.00    +0.000 A 
ATOM     25  C   UNL     1       5.646   6.039  16.397  0.00  0.00    +0.000 A 
ATOM     26  C   UNL     1       4.833   6.624  17.348  0.00  0.00    +0.000 A 
ATOM     27  C   UNL     1       3.732   5.953  17.851  0.00  0.00    +0.000 A 
ATOM     28  C   UNL     1       3.425   4.679  17.384  0.00  0.00    +0.000 A 
ATOM     29  C   UNL     1       2.227   3.988  17.937  0.00  0.00    +0.000 C 
ATOM     30  C   UNL     1       4.266   4.101  16.422  0.00  0.00    +0.000 A 
ENDBRANCH  18  27
ENDBRANCH   1  20
TORSDOF 3
ENDMDL
MODEL 6
REMARK VINA RESULT:      -8.0      8.544     11.436
REMARK  Name = 
REMARK  5 active torsions:
REMARK  status: ('A' for Active; 'I' for Inactive)
REMARK    1  A    between atoms: C_1  and  C_2
REMARK    2  A    between atoms: C_5  and  N_6
REMARK    3  A    between atoms: C_8  and  N_9
REMARK    4  A    between atoms: C_10  and  C_12
REMARK    5  A    between atoms: C_26  and  C_27
REMARK                            x       y       z     vdW  Elec       q    Type
REMARK                         _______ _______ _______ _____ _____    ______ ____
ROOT
ATOM      1  N   UNL     1       0.826  10.150  20.912  0.00  0.00    +0.000 N 
ATOM      2  C   UNL     1       0.687   9.586  19.616  0.00  0.00    +0.000 C 
ATOM      3  O   UNL     1      -0.211   9.930  18.845  0.00  0.00    +0.000 OA
ATOM      4  H   UNL     1       1.549   9.778  21.542  0.00  0.00    +0.000 HD
ENDROOT
BRANCH   2   5
ATOM      5  C   UNL     1       1.656   8.513  19.151  0.00  0.00    +0.000 A 
ATOM      6  C   UNL     1       1.879   7.345  19.897  0.00  0.00    +0.000 A 
ATOM      7  C   UNL     1       2.779   6.384  19.485  0.00  0.00    +0.000 A 
ATOM      8  C   UNL     1       3.370   6.663  18.317  0.00  0.00    +0.000 A 
ATOM      9  C   UNL     1       3.250   7.699  17.541  0.00  0.00    +0.000 A 
ATOM     10  C   UNL     1       2.402   8.655  17.998  0.00  0.00    +0.000 A 
ATOM     11  F   UNL     1       2.339   9.751  17.259  0.00  0.00    +0.000 F 
ATOM     12  N   UNL     1       4.217   5.797  17.853  0.00  0.00    +0.000 N 
ATOM     13  C   UNL     1       5.055   4.977  17.372  0.00  0.00    +0.000 C 
ATOM     14  O   UNL     1       5.756   4.906  16.337  0.00  0.00    +0.000 OA
ATOM     15  C   UNL     1       4.295   4.324  19.214  0.00  0.00    +0.000 C 
ATOM     16  C   UNL     1       3.076   5.123  20.204  0.00  0.00    +0.000 C 
ATOM     17  H   UNL     1       4.698   4.824  17.972  0.00  0.00    +0.000 HD
ENDBRANCH   2   5
BRANCH   1  20
ATOM     18  N   UNL     1      -1.856  12.174  22.184  0.00  0.00    +0.000 N 
ATOM     19  C   UNL     1      -1.319  10.973  21.909  0.00  0.00    +0.000 A 
ATOM     20  C   UNL     1      -0.034  11.130  21.411  0.00  0.00    +0.000 A 
ATOM     21  C   UNL     1       0.164  12.474  21.537  0.00  0.00    +0.000 A 
ATOM     22  N   UNL     1      -0.901  13.117  22.009  0.00  0.00    +0.000 NA
BRANCH  18  27
ATOM     23  C   UNL     1      -7.087  13.310  24.191  0.00  0.00    +0.000 C 
ATOM     24  C   UNL     1      -5.726  13.026  23.648  0.00  0.00    +0.000 A 
ATOM     25  C   UNL     1      -4.697  12.668  24.497  0.00  0.00    +0.000 A 
ATOM     26  C   UNL     1      -3.437  12.386  24.006  0.00  0.00    +0.000 A 
ATOM     27  C   UNL     1      -3.170  12.458  22.650  0.00  0.00    +0.000 A 
ATOM     28  C   UNL     1      -4.184  12.801  21.763  0.00  0.00    +0.000 A 
ATOM     29  C   UNL     1      -3.866  12.859  20.308  0.00  0.00    +0.000 C 
ATOM     30  C   UNL     1      -5.455  13.089  22.280  0.00  0.00    +0.000 A 
ENDBRANCH  18  27
ENDBRANCH   1  20
TORSDOF 3
ENDMDL
MODEL 7
REMARK VINA RESULT:      -8.0      8.390     11.455
REMARK  Name = 
REMARK  5 active torsions:
REMARK  status: ('A' for Active; 'I' for Inactive)
REMARK    1  A    between atoms: C_1  and  C_2
REMARK    2  A    between atoms: C_5  and  N_6
REMARK    3  A    between atoms: C_8  and  N_9
REMARK    4  A    between atoms: C_10  and  C_12
REMARK    5  A    between atoms: C_26  and  C_27
REMARK                            x       y       z     vdW  Elec       q    Type
REMARK                         _______ _______ _______ _____ _____    ______ ____
ROOT
ATOM      1  N   UNL     1       1.103  10.028  20.222  0.00  0.00    +0.000 N 
ATOM      2  C   UNL     1       1.249   9.333  18.991  0.00  0.00    +0.000 C 
ATOM      3  O   UNL     1       0.686   9.705  17.959  0.00  0.00    +0.000 OA
ATOM      4  H   UNL     1       1.537   9.635  21.069  0.00  0.00    +0.000 HD
ENDROOT
BRANCH   2   5
ATOM      5  C   UNL     1       2.109   8.083  18.926  0.00  0.00    +0.000 A 
ATOM      6  C   UNL     1       2.969   7.833  17.845  0.00  0.00    +0.000 A 
ATOM      7  C   UNL     1       3.730   6.684  17.776  0.00  0.00    +0.000 A 
ATOM      8  C   UNL     1       3.588   5.879  18.836  0.00  0.00    +0.000 A 
ATOM      9  C   UNL     1       2.831   5.997  19.886  0.00  0.00    +0.000 A 
ATOM     10  C   UNL     1       2.051   7.108  19.901  0.00  0.00    +0.000 A 
ATOM     11  F   UNL     1       1.215   7.195  20.923  0.00  0.00    +0.000 F 
ATOM     12  N   UNL     1       4.285   4.785  18.854  0.00  0.00    +0.000 N 
ATOM     13  C   UNL     1       4.947   3.705  18.903  0.00  0.00    +0.000 C 
ATOM     14  O   UNL     1       5.073   2.760  19.715  0.00  0.00    +0.000 OA
ATOM     15  C   UNL     1       5.325   4.771  17.137  0.00  0.00    +0.000 C 
ATOM     16  C   UNL     1       4.664   6.338  16.679  0.00  0.00    +0.000 C 
ATOM     17  H   UNL     1       5.043   4.168  18.367  0.00  0.00    +0.000 HD
ENDBRANCH   2   5
BRANCH   1  20
ATOM     18  N   UNL     1      -1.367  12.557  20.862  0.00  0.00    +0.000 N 
ATOM     19  C   UNL     1      -0.860  11.329  21.071  0.00  0.00    +0.000 A 
ATOM     20  C   UNL     1       0.320  11.174  20.360  0.00  0.00    +0.000 A 
ATOM     21  C   UNL     1       0.511  12.421  19.839  0.00  0.00    +0.000 A 
ATOM     22  N   UNL     1      -0.473  13.267  20.136  0.00  0.00    +0.000 NA
BRANCH  18  27
ATOM     23  C   UNL     1      -6.349  14.651  22.724  0.00  0.00    +0.000 C 
ATOM     24  C   UNL     1      -5.041  14.102  22.260  0.00  0.00    +0.000 A 
ATOM     25  C   UNL     1      -4.930  13.527  21.009  0.00  0.00    +0.000 A 
ATOM     26  C   UNL     1      -3.722  13.030  20.561  0.00  0.00    +0.000 A 
ATOM     27  C   UNL     1      -2.589  13.092  21.353  0.00  0.00    +0.000 A 
ATOM     28  C   UNL     1      -2.659  13.676  22.613  0.00  0.00    +0.000 A 
ATOM     29  C   UNL     1      -1.419  13.737  23.438  0.00  0.00    +0.000 C 
ATOM     30  C   UNL     1      -3.895  14.170  23.053  0.00  0.00    +0.000 A 
ENDBRANCH  18  27
ENDBRANCH   1  20
TORSDOF 3
ENDMDL
MODEL 8
REMARK VINA RESULT:      -8.0      7.325      9.448
REMARK  Name = 
REMARK  5 active torsions:
REMARK  status: ('A' for Active; 'I' for Inactive)
REMARK    1  A    between atoms: C_1  and  C_2
REMARK    2  A    between atoms: C_5  and  N_6
REMARK    3  A    between atoms: C_8  and  N_9
REMARK    4  A    between atoms: C_10  and  C_12
REMARK    5  A    between atoms: C_26  and  C_27
REMARK                            x       y       z     vdW  Elec       q    Type
REMARK                         _______ _______ _______ _____ _____    ______ ____
ROOT
ATOM      1  N   UNL     1       0.987   7.754  20.949  0.00  0.00    +0.000 N 
ATOM      2  C   UNL     1       0.855   9.077  20.446  0.00  0.00    +0.000 C 
ATOM      3  O   UNL     1       1.505   9.476  19.478  0.00  0.00    +0.000 OA
ATOM      4  H   UNL     1       0.475   7.493  21.803  0.00  0.00    +0.000 HD
ENDROOT
BRANCH   2   5
ATOM      5  C   UNL     1      -0.099  10.049  21.118  0.00  0.00    +0.000 A 
ATOM      6  C   UNL     1      -0.782  11.035  20.390  0.00  0.00    +0.000 A 
ATOM      7  C   UNL     1      -1.629  11.934  21.007  0.00  0.00    +0.000 A 
ATOM      8  C   UNL     1      -1.749  11.743  22.326  0.00  0.00    +0.000 A 
ATOM      9  C   UNL     1      -1.175  10.877  23.106  0.00  0.00    +0.000 A 
ATOM     10  C   UNL     1      -0.304  10.043  22.483  0.00  0.00    +0.000 A 
ATOM     11  F   UNL     1       0.351   9.214  23.281  0.00  0.00    +0.000 F 
ATOM     12  N   UNL     1      -2.543  12.538  22.975  0.00  0.00    +0.000 N 
ATOM     13  C   UNL     1      -3.305  13.299  23.643  0.00  0.00    +0.000 C 
ATOM     14  O   UNL     1      -3.660  13.396  24.840  0.00  0.00    +0.000 OA
ATOM     15  C   UNL     1      -3.271  13.818  21.611  0.00  0.00    +0.000 C 
ATOM     16  C   UNL     1      -2.391  13.003  20.321  0.00  0.00    +0.000 C 
ATOM     17  H   UNL     1      -3.263  13.358  22.932  0.00  0.00    +0.000 HD
ENDBRANCH   2   5
BRANCH   1  20
ATOM     18  N   UNL     1       3.260   5.770  18.998  0.00  0.00    +0.000 N 
ATOM     19  C   UNL     1       2.663   6.943  19.275  0.00  0.00    +0.000 A 
ATOM     20  C   UNL     1       1.852   6.812  20.392  0.00  0.00    +0.000 A 
ATOM     21  C   UNL     1       2.123   5.538  20.799  0.00  0.00    +0.000 A 
ATOM     22  N   UNL     1       2.969   4.901  19.993  0.00  0.00    +0.000 NA
BRANCH  18  27
ATOM     23  C   UNL     1       6.788   4.633  14.647  0.00  0.00    +0.000 C 
ATOM     24  C   UNL     1       5.860   4.908  15.783  0.00  0.00    +0.000 A 
ATOM     25  C   UNL     1       6.063   6.003  16.600  0.00  0.00    +0.000 A 
ATOM     26  C   UNL     1       5.203   6.278  17.645  0.00  0.00    +0.000 A 
ATOM     27  C   UNL     1       4.115   5.463  17.904  0.00  0.00    +0.000 A 
ATOM     28  C   UNL     1       3.870   4.359  17.094  0.00  0.00    +0.000 A 
ATOM     29  C   UNL     1       2.684   3.507  17.393  0.00  0.00    +0.000 C 
ATOM     30  C   UNL     1       4.758   4.093  16.042  0.00  0.00    +0.000 A 
ENDBRANCH  18  27
ENDBRANCH   1  20
TORSDOF 3
ENDMDL
MODEL 9
REMARK VINA RESULT:      -8.0      2.040      2.608
REMARK  Name = 
REMARK  5 active torsions:
REMARK  status: ('A' for Active; 'I' for Inactive)
REMARK    1  A    between atoms: C_1  and  C_2
REMARK    2  A    between atoms: C_5  and  N_6
REMARK    3  A    between atoms: C_8  and  N_9
REMARK    4  A    between atoms: C_10  and  C_12
REMARK    5  A    between atoms: C_26  and  C_27
REMARK                            x       y       z     vdW  Elec       q    Type
REMARK                         _______ _______ _______ _____ _____    ______ ____
ROOT
ATOM      1  N   UNL     1       7.570   8.761  17.500  0.00  0.00    +0.000 N 
ATOM      2  C   UNL     1       8.558   8.920  18.509  0.00  0.00    +0.000 C 
ATOM      3  O   UNL     1       8.898   7.990  19.243  0.00  0.00    +0.000 OA
ATOM      4  H   UNL     1       7.271   9.586  16.961  0.00  0.00    +0.000 HD
ENDROOT
BRANCH   2   5
ATOM      5  C   UNL     1       9.217  10.273  18.714  0.00  0.00    +0.000 A 
ATOM      6  C   UNL     1       9.772  10.995  17.647  0.00  0.00    +0.000 A 
ATOM      7  C   UNL     1      10.393  12.212  17.840  0.00  0.00    +0.000 A 
ATOM      8  C   UNL     1      10.376  12.629  19.112  0.00  0.00    +0.000 A 
ATOM      9  C   UNL     1       9.900  12.058  20.178  0.00  0.00    +0.000 A 
ATOM     10  C   UNL     1       9.347  10.837  19.968  0.00  0.00    +0.000 A 
ATOM     11  F   UNL     1       8.937  10.209  21.059  0.00  0.00    +0.000 F 
ATOM     12  N   UNL     1      10.925  13.775  19.373  0.00  0.00    +0.000 N 
ATOM     13  C   UNL     1      11.457  14.888  19.666  0.00  0.00    +0.000 C 
ATOM     14  O   UNL     1      11.604  15.573  20.703  0.00  0.00    +0.000 OA
ATOM     15  C   UNL     1      11.638  14.451  17.622  0.00  0.00    +0.000 C 
ATOM     16  C   UNL     1      11.003  13.042  16.776  0.00  0.00    +0.000 C 
ATOM     17  H   UNL     1      11.418  14.670  18.986  0.00  0.00    +0.000 HD
ENDBRANCH   2   5
BRANCH   1  20
ATOM     18  N   UNL     1       5.433   5.877  17.353  0.00  0.00    +0.000 N 
ATOM     19  C   UNL     1       5.657   7.157  17.698  0.00  0.00    +0.000 A 
ATOM     20  C   UNL     1       6.913   7.553  17.262  0.00  0.00    +0.000 A 
ATOM     21  C   UNL     1       7.330   6.467  16.549  0.00  0.00    +0.000 A 
ATOM     22  N   UNL     1       6.459   5.460  16.577  0.00  0.00    +0.000 NA
BRANCH  18  27
ATOM     23  C   UNL     1       0.964   2.538  18.601  0.00  0.00    +0.000 C 
ATOM     24  C   UNL     1       2.121   3.427  18.287  0.00  0.00    +0.000 A 
ATOM     25  C   UNL     1       3.349   2.886  17.963  0.00  0.00    +0.000 A 
ATOM     26  C   UNL     1       4.424   3.696  17.655  0.00  0.00    +0.000 A 
ATOM     27  C   UNL     1       4.300   5.075  17.663  0.00  0.00    +0.000 A 
ATOM     28  C   UNL     1       3.075   5.657  17.970  0.00  0.00    +0.000 A 
ATOM     29  C   UNL     1       2.972   7.144  17.960  0.00  0.00    +0.000 C 
ATOM     30  C   UNL     1       1.997   4.817  18.286  0.00  0.00    +0.000 A 
ENDBRANCH  18  27
ENDBRANCH   1  20
TORSDOF 3
ENDMDL
