MODEL 1
REMARK VINA RESULT:      -9.2      0.000      0.000
REMARK  Name = 
REMARK  3 active torsions:
REMARK  status: ('A' for Active; 'I' for Inactive)
REMARK    1  A    between atoms: C_2  and  C_16
REMARK    2  A    between atoms: N_3  and  C_4
REMARK    3  A    between atoms: C_4  and  C_5
REMARK                            x       y       z     vdW  Elec       q    Type
REMARK                         _______ _______ _______ _____ _____    ______ ____
ROOT
ATOM      1  O   UNL     1       8.624   7.402  18.970  0.00  0.00    +0.000 OA
ATOM      2  C   UNL     1       8.118   8.246  18.234  0.00  0.00    +0.000 C 
ATOM      3  N   UNL     1       7.307   7.892  17.178  0.00  0.00    +0.000 N 
ATOM      4  H   UNL     1       7.048   8.561  16.472  0.00  0.00    +0.000 HD
ENDROOT
BRANCH   2   5
ATOM      5  C   UNL     1       8.467   9.701  18.362  0.00  0.00    +0.000 A 
ATOM      6  C   UNL     1       9.511   9.976  19.161  0.00  0.00    +0.000 A 
ATOM      7  C   UNL     1      10.139  11.295  19.111  0.00  0.00    +0.000 A 
ATOM      8  C   UNL     1      11.359  11.488  19.751  0.00  0.00    +0.000 A 
ATOM      9  C   UNL     1      12.312  12.268  19.114  0.00  0.00    +0.000 A 
ATOM     10  C   UNL     1      11.926  13.122  18.081  0.00  0.00    +0.000 A 
ATOM     11  C   UNL     1      10.587  13.183  17.685  0.00  0.00    +0.000 A 
ATOM     12  C   UNL     1       9.709  12.206  18.147  0.00  0.00    +0.000 A 
ATOM     13  C   UNL     1       8.383  11.996  17.531  0.00  0.00    +0.000 A 
ATOM     14  O   UNL     1       7.795  12.877  16.917  0.00  0.00    +0.000 OA
ATOM     15  N   UNL     1       7.857  10.709  17.642  0.00  0.00    +0.000 N 
ATOM     16  H   UNL     1       6.996  10.551  17.142  0.00  0.00    +0.000 HD
ENDBRANCH   2   5
BRANCH   3  17
ATOM     17  C   UNL     1       7.199   6.489  16.845  0.00  0.00    +0.000 C 
BRANCH  17  18
ATOM     18  C   UNL     1       6.027   5.823  17.537  0.00  0.00    +0.000 A 
ATOM     19  C   UNL     1       4.734   6.341  17.450  0.00  0.00    +0.000 A 
ATOM     20  C   UNL     1       3.693   5.735  18.159  0.00  0.00    +0.000 A 
ATOM     21  C   UNL     1       3.993   4.638  18.972  0.00  0.00    +0.000 A 
ATOM     22  N   UNL     1       2.945   4.011  19.702  0.00  0.00    +0.000 N 
ATOM     23  C   UNL     1       3.077   2.969  20.575  0.00  0.00    +0.000 A 
ATOM     24  C   UNL     1       1.819   2.630  21.022  0.00  0.00    +0.000 A 
ATOM     25  C   UNL     1       0.976   3.537  20.373  0.00  0.00    +0.000 A 
ATOM     26  N   UNL     1       1.634   4.390  19.587  0.00  0.00    +0.000 NA
ATOM     27  N   UNL     1       5.248   4.134  19.108  0.00  0.00    +0.000 NA
ATOM     28  C   UNL     1       6.223   4.736  18.390  0.00  0.00    +0.000 A 
ENDBRANCH  17  18
ENDBRANCH   3  17
TORSDOF 3
ENDMDL
MODEL 2
REMARK VINA RESULT:      -8.8      0.955      1.142
REMARK  Name = 
REMARK  3 active torsions:
REMARK  status: ('A' for Active; 'I' for Inactive)
REMARK    1  A    between atoms: C_2  and  C_16
REMARK    2  A    between atoms: N_3  and  C_4
REMARK    3  A    between atoms: C_4  and  C_5
REMARK                            x       y       z     vdW  Elec       q    Type
REMARK                         _______ _______ _______ _____ _____    ______ ____
ROOT
ATOM      1  O   UNL     1       8.636   7.257  18.892  0.00  0.00    +0.000 OA
ATOM      2  C   UNL     1       8.069   8.079  18.177  0.00  0.00    +0.000 C 
ATOM      3  N   UNL     1       7.224   7.692  17.160  0.00  0.00    +0.000 N 
ATOM      4  H   UNL     1       6.911   8.348  16.464  0.00  0.00    +0.000 HD
ENDROOT
BRANCH   2   5
ATOM      5  C   UNL     1       8.373   9.546  18.284  0.00  0.00    +0.000 A 
ATOM      6  C   UNL     1       9.429   9.862  19.051  0.00  0.00    +0.000 A 
ATOM      7  C   UNL     1      10.011  11.200  18.973  0.00  0.00    +0.000 A 
ATOM      8  C   UNL     1      11.241  11.439  19.577  0.00  0.00    +0.000 A 
ATOM      9  C   UNL     1      12.150  12.245  18.908  0.00  0.00    +0.000 A 
ATOM     10  C   UNL     1      11.707  13.076  17.879  0.00  0.00    +0.000 A 
ATOM     11  C   UNL     1      10.356  13.089  17.520  0.00  0.00    +0.000 A 
ATOM     12  C   UNL     1       9.525  12.088  18.014  0.00  0.00    +0.000 A 
ATOM     13  C   UNL     1       8.190  11.829  17.437  0.00  0.00    +0.000 A 
ATOM     14  O   UNL     1       7.556  12.685  16.833  0.00  0.00    +0.000 OA
ATOM     15  N   UNL     1       7.710  10.527  17.573  0.00  0.00    +0.000 N 
ATOM     16  H   UNL     1       6.841  10.336  17.098  0.00  0.00    +0.000 HD
ENDBRANCH   2   5
BRANCH   3  17
ATOM     17  C   UNL     1       7.150   6.284  16.838  0.00  0.00    +0.000 C 
BRANCH  17  18
ATOM     18  C   UNL     1       5.913   5.627  17.417  0.00  0.00    +0.000 A 
ATOM     19  C   UNL     1       5.665   5.612  18.790  0.00  0.00    +0.000 A 
ATOM     20  C   UNL     1       4.548   4.936  19.289  0.00  0.00    +0.000 A 
ATOM     21  C   UNL     1       3.726   4.256  18.385  0.00  0.00    +0.000 A 
ATOM     22  N   UNL     1       2.586   3.561  18.877  0.00  0.00    +0.000 N 
ATOM     23  C   UNL     1       1.715   2.810  18.139  0.00  0.00    +0.000 A 
ATOM     24  C   UNL     1       0.727   2.358  18.984  0.00  0.00    +0.000 A 
ATOM     25  C   UNL     1       1.087   2.875  20.232  0.00  0.00    +0.000 A 
ATOM     26  N   UNL     1       2.213   3.588  20.194  0.00  0.00    +0.000 NA
ATOM     27  N   UNL     1       3.961   4.219  17.047  0.00  0.00    +0.000 NA
ATOM     28  C   UNL     1       5.041   4.903  16.603  0.00  0.00    +0.000 A 
ENDBRANCH  17  18
ENDBRANCH   3  17
TORSDOF 3
ENDMDL
MODEL 3
REMARK VINA RESULT:      -8.7      6.451      9.968
REMARK  Name = 
REMARK  3 active torsions:
REMARK  status: ('A' for Active; 'I' for Inactive)
REMARK    1  A    between atoms: C_2  and  C_16
REMARK    2  A    between atoms: N_3  and  C_4
REMARK    3  A    between atoms: C_4  and  C_5
REMARK                            x       y       z     vdW  Elec       q    Type
REMARK                         _______ _______ _______ _____ _____    ______ ____
ROOT
ATOM      1  O   UNL     1       2.411   8.870  17.158  0.00  0.00    +0.000 OA
ATOM      2  C   UNL     1       2.142   8.331  18.227  0.00  0.00    +0.000 C 
ATOM      3  N   UNL     1       1.423   8.982  19.205  0.00  0.00    +0.000 N 
ATOM      4  H   UNL     1       1.364   8.615  20.141  0.00  0.00    +0.000 HD
ENDROOT
BRANCH   2   5
ATOM      5  C   UNL     1       2.701   6.983  18.582  0.00  0.00    +0.000 A 
ATOM      6  C   UNL     1       2.207   6.429  19.701  0.00  0.00    +0.000 A 
ATOM      7  C   UNL     1       2.427   5.009  19.970  0.00  0.00    +0.000 A 
ATOM      8  C   UNL     1       1.710   4.395  20.992  0.00  0.00    +0.000 A 
ATOM      9  C   UNL     1       1.234   3.111  20.773  0.00  0.00    +0.000 A 
ATOM     10  C   UNL     1       1.775   2.342  19.743  0.00  0.00    +0.000 A 
ATOM     11  C   UNL     1       2.785   2.866  18.931  0.00  0.00    +0.000 A 
ATOM     12  C   UNL     1       3.051   4.232  18.996  0.00  0.00    +0.000 A 
ATOM     13  C   UNL     1       3.849   4.918  17.960  0.00  0.00    +0.000 A 
ATOM     14  O   UNL     1       4.665   4.332  17.260  0.00  0.00    +0.000 OA
ATOM     15  N   UNL     1       3.580   6.276  17.785  0.00  0.00    +0.000 N 
ATOM     16  H   UNL     1       4.063   6.716  17.016  0.00  0.00    +0.000 HD
ENDBRANCH   2   5
BRANCH   3  17
ATOM     17  C   UNL     1       1.133  10.385  19.015  0.00  0.00    +0.000 C 
BRANCH  17  18
ATOM     18  C   UNL     1      -0.353  10.653  18.886  0.00  0.00    +0.000 A 
ATOM     19  C   UNL     1      -1.110  10.104  17.851  0.00  0.00    +0.000 A 
ATOM     20  C   UNL     1      -2.464  10.431  17.729  0.00  0.00    +0.000 A 
ATOM     21  C   UNL     1      -3.012  11.340  18.639  0.00  0.00    +0.000 A 
ATOM     22  N   UNL     1      -4.388  11.685  18.528  0.00  0.00    +0.000 N 
ATOM     23  C   UNL     1      -5.060  12.589  19.300  0.00  0.00    +0.000 A 
ATOM     24  C   UNL     1      -6.379  12.585  18.902  0.00  0.00    +0.000 A 
ATOM     25  C   UNL     1      -6.415  11.650  17.863  0.00  0.00    +0.000 A 
ATOM     26  N   UNL     1      -5.223  11.108  17.609  0.00  0.00    +0.000 NA
ATOM     27  N   UNL     1      -2.292  11.921  19.635  0.00  0.00    +0.000 NA
ATOM     28  C   UNL     1      -0.991  11.563  19.730  0.00  0.00    +0.000 A 
ENDBRANCH  17  18
ENDBRANCH   3  17
TORSDOF 3
ENDMDL
MODEL 4
REMARK VINA RESULT:      -8.4      1.575      2.241
REMARK  Name = 
REMARK  3 active torsions:
REMARK  status: ('A' for Active; 'I' for Inactive)
REMARK    1  A    between atoms: C_2  and  C_16
REMARK    2  A    between atoms: N_3  and  C_4
REMARK    3  A    between atoms: C_4  and  C_5
REMARK                            x       y       z     vdW  Elec       q    Type
REMARK                         _______ _______ _______ _____ _____    ______ ____
ROOT
ATOM      1  O   UNL     1       8.614   7.274  19.024  0.00  0.00    +0.000 OA
ATOM      2  C   UNL     1       8.253   8.208  18.312  0.00  0.00    +0.000 C 
ATOM      3  N   UNL     1       7.463   8.008  17.202  0.00  0.00    +0.000 N 
ATOM      4  H   UNL     1       7.325   8.737  16.521  0.00  0.00    +0.000 HD
ENDROOT
BRANCH   2   5
ATOM      5  C   UNL     1       8.767   9.601  18.536  0.00  0.00    +0.000 A 
ATOM      6  C   UNL     1       8.372  10.514  17.634  0.00  0.00    +0.000 A 
ATOM      7  C   UNL     1       8.536  11.938  17.919  0.00  0.00    +0.000 A 
ATOM      8  C   UNL     1       7.904  12.869  17.100  0.00  0.00    +0.000 A 
ATOM      9  C   UNL     1       7.330  13.980  17.699  0.00  0.00    +0.000 A 
ATOM     10  C   UNL     1       7.703  14.334  18.996  0.00  0.00    +0.000 A 
ATOM     11  C   UNL     1       8.644  13.567  19.689  0.00  0.00    +0.000 A 
ATOM     12  C   UNL     1       8.996  12.321  19.177  0.00  0.00    +0.000 A 
ATOM     13  C   UNL     1       9.711  11.318  19.994  0.00  0.00    +0.000 A 
ATOM     14  O   UNL     1      10.405  11.624  20.955  0.00  0.00    +0.000 OA
ATOM     15  N   UNL     1       9.506   9.985  19.637  0.00  0.00    +0.000 N 
ATOM     16  H   UNL     1       9.923   9.305  20.254  0.00  0.00    +0.000 HD
ENDBRANCH   2   5
BRANCH   3  17
ATOM     17  C   UNL     1       7.205   6.647  16.788  0.00  0.00    +0.000 C 
BRANCH  17  18
ATOM     18  C   UNL     1       6.014   6.044  17.505  0.00  0.00    +0.000 A 
ATOM     19  C   UNL     1       4.762   6.662  17.493  0.00  0.00    +0.000 A 
ATOM     20  C   UNL     1       3.706   6.109  18.224  0.00  0.00    +0.000 A 
ATOM     21  C   UNL     1       3.953   4.961  18.982  0.00  0.00    +0.000 A 
ATOM     22  N   UNL     1       2.890   4.387  19.734  0.00  0.00    +0.000 N 
ATOM     23  C   UNL     1       2.975   3.304  20.561  0.00  0.00    +0.000 A 
ATOM     24  C   UNL     1       1.714   3.044  21.049  0.00  0.00    +0.000 A 
ATOM     25  C   UNL     1       0.919   4.038  20.471  0.00  0.00    +0.000 A 
ATOM     26  N   UNL     1       1.608   4.869  19.689  0.00  0.00    +0.000 NA
ATOM     27  N   UNL     1       5.170   4.358  19.045  0.00  0.00    +0.000 NA
ATOM     28  C   UNL     1       6.159   4.913  18.308  0.00  0.00    +0.000 A 
ENDBRANCH  17  18
ENDBRANCH   3  17
TORSDOF 3
ENDMDL
MODEL 5
REMARK VINA RESULT:      -8.4      6.455     10.007
REMARK  Name = 
REMARK  3 active torsions:
REMARK  status: ('A' for Active; 'I' for Inactive)
REMARK    1  A    between atoms: C_2  and  C_16
REMARK    2  A    between atoms: N_3  and  C_4
REMARK    3  A    between atoms: C_4  and  C_5
REMARK                            x       y       z     vdW  Elec       q    Type
REMARK                         _______ _______ _______ _____ _____    ______ ____
ROOT
ATOM      1  O   UNL     1       2.546   9.043  17.119  0.00  0.00    +0.000 OA
ATOM      2  C   UNL     1       2.173   8.440  18.121  0.00  0.00    +0.000 C 
ATOM      3  N   UNL     1       1.433   9.058  19.105  0.00  0.00    +0.000 N 
ATOM      4  H   UNL     1       1.290   8.623  20.001  0.00  0.00    +0.000 HD
ENDROOT
BRANCH   2   5
ATOM      5  C   UNL     1       2.621   7.032  18.394  0.00  0.00    +0.000 A 
ATOM      6  C   UNL     1       2.115   6.470  19.504  0.00  0.00    +0.000 A 
ATOM      7  C   UNL     1       2.217   5.026  19.701  0.00  0.00    +0.000 A 
ATOM      8  C   UNL     1       1.480   4.428  20.719  0.00  0.00    +0.000 A 
ATOM      9  C   UNL     1       0.885   3.203  20.459  0.00  0.00    +0.000 A 
ATOM     10  C   UNL     1       1.323   2.440  19.377  0.00  0.00    +0.000 A 
ATOM     11  C   UNL     1       2.350   2.912  18.554  0.00  0.00    +0.000 A 
ATOM     12  C   UNL     1       2.737   4.244  18.671  0.00  0.00    +0.000 A 
ATOM     13  C   UNL     1       3.561   4.908  17.639  0.00  0.00    +0.000 A 
ATOM     14  O   UNL     1       4.298   4.287  16.884  0.00  0.00    +0.000 OA
ATOM     15  N   UNL     1       3.408   6.291  17.535  0.00  0.00    +0.000 N 
ATOM     16  H   UNL     1       3.904   6.723  16.770  0.00  0.00    +0.000 HD
ENDBRANCH   2   5
BRANCH   3  17
ATOM     17  C   UNL     1       1.247  10.489  19.016  0.00  0.00    +0.000 C 
BRANCH  17  18
ATOM     18  C   UNL     1      -0.215  10.871  18.900  0.00  0.00    +0.000 A 
ATOM     19  C   UNL     1      -0.817  11.748  19.804  0.00  0.00    +0.000 A 
ATOM     20  C   UNL     1      -2.184  12.022  19.703  0.00  0.00    +0.000 A 
ATOM     21  C   UNL     1      -2.920  11.370  18.708  0.00  0.00    +0.000 A 
ATOM     22  N   UNL     1      -4.313  11.636  18.593  0.00  0.00    +0.000 N 
ATOM     23  C   UNL     1      -5.179  11.049  17.716  0.00  0.00    +0.000 A 
ATOM     24  C   UNL     1      -6.418  11.624  17.895  0.00  0.00    +0.000 A 
ATOM     25  C   UNL     1      -6.212  12.551  18.922  0.00  0.00    +0.000 A 
ATOM     26  N   UNL     1      -4.957  12.562  19.369  0.00  0.00    +0.000 NA
ATOM     27  N   UNL     1      -2.371  10.482  17.838  0.00  0.00    +0.000 NA
ATOM     28  C   UNL     1      -1.042  10.261  17.956  0.00  0.00    +0.000 A 
ENDBRANCH  17  18
ENDBRANCH   3  17
TORSDOF 3
ENDMDL
MODEL 6
REMARK VINA RESULT:      -8.3      1.682      2.528
REMARK  Name = 
REMARK  3 active torsions:
REMARK  status: ('A' for Active; 'I' for Inactive)
REMARK    1  A    between atoms: C_2  and  C_16
REMARK    2  A    between atoms: N_3  and  C_4
REMARK    3  A    between atoms: C_4  and  C_5
REMARK                            x       y       z     vdW  Elec       q    Type
REMARK                         _______ _______ _______ _____ _____    ______ ____
ROOT
ATOM      1  O   UNL     1       8.627   7.285  18.983  0.00  0.00    +0.000 OA
ATOM      2  C   UNL     1       8.246   8.229  18.297  0.00  0.00    +0.000 C 
ATOM      3  N   UNL     1       7.422   8.047  17.208  0.00  0.00    +0.000 N 
ATOM      4  H   UNL     1       7.264   8.786  16.543  0.00  0.00    +0.000 HD
ENDROOT
BRANCH   2   5
ATOM      5  C   UNL     1       8.769   9.619  18.525  0.00  0.00    +0.000 A 
ATOM      6  C   UNL     1       8.374  10.539  17.630  0.00  0.00    +0.000 A 
ATOM      7  C   UNL     1       8.546  11.960  17.921  0.00  0.00    +0.000 A 
ATOM      8  C   UNL     1       7.916  12.898  17.110  0.00  0.00    +0.000 A 
ATOM      9  C   UNL     1       7.351  14.010  17.717  0.00  0.00    +0.000 A 
ATOM     10  C   UNL     1       7.732  14.355  19.014  0.00  0.00    +0.000 A 
ATOM     11  C   UNL     1       8.672  13.580  19.699  0.00  0.00    +0.000 A 
ATOM     12  C   UNL     1       9.015  12.334  19.179  0.00  0.00    +0.000 A 
ATOM     13  C   UNL     1       9.728  11.324  19.987  0.00  0.00    +0.000 A 
ATOM     14  O   UNL     1      10.428  11.621  20.947  0.00  0.00    +0.000 OA
ATOM     15  N   UNL     1       9.514   9.994  19.625  0.00  0.00    +0.000 N 
ATOM     16  H   UNL     1       9.931   9.308  20.237  0.00  0.00    +0.000 HD
ENDBRANCH   2   5
BRANCH   3  17
ATOM     17  C   UNL     1       7.150   6.692  16.783  0.00  0.00    +0.000 C 
BRANCH  17  18
ATOM     18  C   UNL     1       6.075   6.032  17.622  0.00  0.00    +0.000 A 
ATOM     19  C   UNL     1       6.329   4.877  18.364  0.00  0.00    +0.000 A 
ATOM     20  C   UNL     1       5.292   4.260  19.070  0.00  0.00    +0.000 A 
ATOM     21  C   UNL     1       4.009   4.808  18.978  0.00  0.00    +0.000 A 
ATOM     22  N   UNL     1       2.941   4.191  19.689  0.00  0.00    +0.000 N 
ATOM     23  C   UNL     1       1.629   4.568  19.665  0.00  0.00    +0.000 A 
ATOM     24  C   UNL     1       0.939   3.748  20.530  0.00  0.00    +0.000 A 
ATOM     25  C   UNL     1       1.918   2.885  21.029  0.00  0.00    +0.000 A 
ATOM     26  N   UNL     1       3.129   3.122  20.524  0.00  0.00    +0.000 NA
ATOM     27  N   UNL     1       3.721   5.909  18.234  0.00  0.00    +0.000 NA
ATOM     28  C   UNL     1       4.756   6.487  17.582  0.00  0.00    +0.000 A 
ENDBRANCH  17  18
ENDBRANCH   3  17
TORSDOF 3
ENDMDL
MODEL 7
REMARK VINA RESULT:      -8.3      6.590     10.036
REMARK  Name = 
REMARK  3 active torsions:
REMARK  status: ('A' for Active; 'I' for Inactive)
REMARK    1  A    between atoms: C_2  and  C_16
REMARK    2  A    between atoms: N_3  and  C_4
REMARK    3  A    between atoms: C_4  and  C_5
REMARK                            x       y       z     vdW  Elec       q    Type
REMARK                         _______ _______ _______ _____ _____    ______ ____
ROOT
ATOM      1  O   UNL     1       2.164   9.094  17.243  0.00  0.00    +0.000 OA
ATOM      2  C   UNL     1       2.009   8.540  18.328  0.00  0.00    +0.000 C 
ATOM      3  N   UNL     1       1.446   9.195  19.401  0.00  0.00    +0.000 N 
ATOM      4  H   UNL     1       1.490   8.809  20.330  0.00  0.00    +0.000 HD
ENDROOT
BRANCH   2   5
ATOM      5  C   UNL     1       2.552   7.163  18.583  0.00  0.00    +0.000 A 
ATOM      6  C   UNL     1       2.051   6.535  19.660  0.00  0.00    +0.000 A 
ATOM      7  C   UNL     1       2.253   5.098  19.825  0.00  0.00    +0.000 A 
ATOM      8  C   UNL     1       1.528   4.420  20.800  0.00  0.00    +0.000 A 
ATOM      9  C   UNL     1       1.036   3.161  20.489  0.00  0.00    +0.000 A 
ATOM     10  C   UNL     1       1.567   2.462  19.406  0.00  0.00    +0.000 A 
ATOM     11  C   UNL     1       2.584   3.031  18.633  0.00  0.00    +0.000 A 
ATOM     12  C   UNL     1       2.867   4.385  18.796  0.00  0.00    +0.000 A 
ATOM     13  C   UNL     1       3.673   5.135  17.812  0.00  0.00    +0.000 A 
ATOM     14  O   UNL     1       4.481   4.591  17.070  0.00  0.00    +0.000 OA
ATOM     15  N   UNL     1       3.422   6.505  17.736  0.00  0.00    +0.000 N 
ATOM     16  H   UNL     1       3.910   6.993  17.001  0.00  0.00    +0.000 HD
ENDBRANCH   2   5
BRANCH   3  17
ATOM     17  C   UNL     1       1.194  10.613  19.275  0.00  0.00    +0.000 C 
BRANCH  17  18
ATOM     18  C   UNL     1       0.092  11.085  20.201  0.00  0.00    +0.000 A 
ATOM     19  C   UNL     1       0.020  10.664  21.530  0.00  0.00    +0.000 A 
ATOM     20  C   UNL     1      -1.052  11.068  22.332  0.00  0.00    +0.000 A 
ATOM     21  C   UNL     1      -2.048  11.862  21.757  0.00  0.00    +0.000 A 
ATOM     22  N   UNL     1      -3.147  12.281  22.558  0.00  0.00    +0.000 N 
ATOM     23  C   UNL     1      -4.222  13.012  22.140  0.00  0.00    +0.000 A 
ATOM     24  C   UNL     1      -5.024  13.247  23.234  0.00  0.00    +0.000 A 
ATOM     25  C   UNL     1      -4.360  12.605  24.283  0.00  0.00    +0.000 A 
ATOM     26  N   UNL     1      -3.236  12.002  23.896  0.00  0.00    +0.000 NA
ATOM     27  N   UNL     1      -2.027  12.258  20.456  0.00  0.00    +0.000 NA
ATOM     28  C   UNL     1      -0.963  11.861  19.721  0.00  0.00    +0.000 A 
ENDBRANCH  17  18
ENDBRANCH   3  17
TORSDOF 3
ENDMDL
MODEL 8
REMARK VINA RESULT:      -8.2      5.339      8.224
REMARK  Name = 
REMARK  3 active torsions:
REMARK  status: ('A' for Active; 'I' for Inactive)
REMARK    1  A    between atoms: C_2  and  C_16
REMARK    2  A    between atoms: N_3  and  C_4
REMARK    3  A    between atoms: C_4  and  C_5
REMARK                            x       y       z     vdW  Elec       q    Type
REMARK                         _______ _______ _______ _____ _____    ______ ____
ROOT
ATOM      1  O   UNL     1       2.752   3.950  20.394  0.00  0.00    +0.000 OA
ATOM      2  C   UNL     1       3.411   4.836  19.856  0.00  0.00    +0.000 C 
ATOM      3  N   UNL     1       3.029   6.158  19.914  0.00  0.00    +0.000 N 
ATOM      4  H   UNL     1       3.458   6.852  19.324  0.00  0.00    +0.000 HD
ENDROOT
BRANCH   2   5
ATOM      5  C   UNL     1       4.594   4.510  18.989  0.00  0.00    +0.000 A 
ATOM      6  C   UNL     1       4.301   4.030  17.770  0.00  0.00    +0.000 A 
ATOM      7  C   UNL     1       5.334   3.984  16.738  0.00  0.00    +0.000 A 
ATOM      8  C   UNL     1       4.965   3.722  15.422  0.00  0.00    +0.000 A 
ATOM      9  C   UNL     1       5.596   4.436  14.414  0.00  0.00    +0.000 A 
ATOM     10  C   UNL     1       6.797   5.092  14.683  0.00  0.00    +0.000 A 
ATOM     11  C   UNL     1       7.357   5.036  15.963  0.00  0.00    +0.000 A 
ATOM     12  C   UNL     1       6.579   4.549  17.010  0.00  0.00    +0.000 A 
ATOM     13  C   UNL     1       6.956   4.760  18.423  0.00  0.00    +0.000 A 
ATOM     14  O   UNL     1       8.112   4.958  18.773  0.00  0.00    +0.000 OA
ATOM     15  N   UNL     1       5.904   4.773  19.338  0.00  0.00    +0.000 N 
ATOM     16  H   UNL     1       6.159   5.007  20.285  0.00  0.00    +0.000 HD
ENDBRANCH   2   5
BRANCH   3  17
ATOM     17  C   UNL     1       1.735   6.467  20.480  0.00  0.00    +0.000 C 
BRANCH  17  18
ATOM     18  C   UNL     1       1.485   7.960  20.563  0.00  0.00    +0.000 A 
ATOM     19  C   UNL     1       1.132   8.579  21.763  0.00  0.00    +0.000 A 
ATOM     20  C   UNL     1       0.844   9.946  21.782  0.00  0.00    +0.000 A 
ATOM     21  C   UNL     1       0.883  10.650  20.574  0.00  0.00    +0.000 A 
ATOM     22  N   UNL     1       0.590  12.043  20.576  0.00  0.00    +0.000 N 
ATOM     23  C   UNL     1       0.536  12.860  19.483  0.00  0.00    +0.000 A 
ATOM     24  C   UNL     1       0.276  14.138  19.924  0.00  0.00    +0.000 A 
ATOM     25  C   UNL     1       0.173  14.001  21.312  0.00  0.00    +0.000 A 
ATOM     26  N   UNL     1       0.342  12.745  21.725  0.00  0.00    +0.000 NA
ATOM     27  N   UNL     1       1.186  10.069  19.384  0.00  0.00    +0.000 NA
ATOM     28  C   UNL     1       1.478   8.748  19.412  0.00  0.00    +0.000 A 
ENDBRANCH  17  18
ENDBRANCH   3  17
TORSDOF 3
ENDMDL
MODEL 9
REMARK VINA RESULT:      -8.2      6.595      9.986
REMARK  Name = 
REMARK  3 active torsions:
REMARK  status: ('A' for Active; 'I' for Inactive)
REMARK    1  A    between atoms: C_2  and  C_16
REMARK    2  A    between atoms: N_3  and  C_4
REMARK    3  A    between atoms: C_4  and  C_5
REMARK                            x       y       z     vdW  Elec       q    Type
REMARK                         _______ _______ _______ _____ _____    ______ ____
ROOT
ATOM      1  O   UNL     1       2.248   9.073  17.223  0.00  0.00    +0.000 OA
ATOM      2  C   UNL     1       2.045   8.503  18.292  0.00  0.00    +0.000 C 
ATOM      3  N   UNL     1       1.443   9.145  19.351  0.00  0.00    +0.000 N 
ATOM      4  H   UNL     1       1.446   8.745  20.275  0.00  0.00    +0.000 HD
ENDROOT
BRANCH   2   5
ATOM      5  C   UNL     1       2.566   7.118  18.548  0.00  0.00    +0.000 A 
ATOM      6  C   UNL     1       2.159   6.550  19.695  0.00  0.00    +0.000 A 
ATOM      7  C   UNL     1       2.331   5.113  19.898  0.00  0.00    +0.000 A 
ATOM      8  C   UNL     1       1.690   4.500  20.969  0.00  0.00    +0.000 A 
ATOM      9  C   UNL     1       1.128   3.249  20.762  0.00  0.00    +0.000 A 
ATOM     10  C   UNL     1       1.523   2.490  19.660  0.00  0.00    +0.000 A 
ATOM     11  C   UNL     1       2.472   2.993  18.765  0.00  0.00    +0.000 A 
ATOM     12  C   UNL     1       2.813   4.340  18.843  0.00  0.00    +0.000 A 
ATOM     13  C   UNL     1       3.538   5.023  17.751  0.00  0.00    +0.000 A 
ATOM     14  O   UNL     1       4.247   4.423  16.954  0.00  0.00    +0.000 OA
ATOM     15  N   UNL     1       3.323   6.398  17.645  0.00  0.00    +0.000 N 
ATOM     16  H   UNL     1       3.748   6.840  16.844  0.00  0.00    +0.000 HD
ENDBRANCH   2   5
BRANCH   3  17
ATOM     17  C   UNL     1       1.206  10.567  19.238  0.00  0.00    +0.000 C 
BRANCH  17  18
ATOM     18  C   UNL     1       0.012  11.018  20.053  0.00  0.00    +0.000 A 
ATOM     19  C   UNL     1      -1.000  11.805  19.500  0.00  0.00    +0.000 A 
ATOM     20  C   UNL     1      -2.050  12.256  20.305  0.00  0.00    +0.000 A 
ATOM     21  C   UNL     1      -2.032  11.931  21.664  0.00  0.00    +0.000 A 
ATOM     22  N   UNL     1      -3.092  12.385  22.498  0.00  0.00    +0.000 N 
ATOM     23  C   UNL     1      -3.198  12.198  23.847  0.00  0.00    +0.000 A 
ATOM     24  C   UNL     1      -4.394  12.743  24.256  0.00  0.00    +0.000 A 
ATOM     25  C   UNL     1      -4.950  13.257  23.080  0.00  0.00    +0.000 A 
ATOM     26  N   UNL     1      -4.175  13.068  22.012  0.00  0.00    +0.000 NA
ATOM     27  N   UNL     1      -1.042  11.199  22.241  0.00  0.00    +0.000 NA
ATOM     28  C   UNL     1      -0.055  10.765  21.424  0.00  0.00    +0.000 A 
ENDBRANCH  17  18
ENDBRANCH   3  17
TORSDOF 3
ENDMDL
