MODEL 1
REMARK VINA RESULT:      -8.5      0.000      0.000
REMARK  Name = 
REMARK  3 active torsions:
REMARK  status: ('A' for Active; 'I' for Inactive)
REMARK    1  A    between atoms: C_1  and  C_2
REMARK    2  A    between atoms: C_9  and  C_10
REMARK    3  A    between atoms: C_20  and  C_21
REMARK                            x       y       z     vdW  Elec       q    Type
REMARK                         _______ _______ _______ _____ _____    ______ ____
ROOT
ATOM      1  C   UNL     1       1.866   8.400  18.267  0.00  0.00    +0.000 C 
ATOM      2  O   UNL     1       1.288   8.751  17.237  0.00  0.00    +0.000 OA
ATOM      3  N   UNL     1       3.066   7.656  18.209  0.00  0.00    +0.000 N 
ATOM      4  C   UNL     1       3.743   7.530  16.908  0.00  0.00    +0.000 C 
ATOM      5  C   UNL     1       4.649   6.316  16.758  0.00  0.00    +0.000 A 
ATOM      6  C   UNL     1       5.322   6.099  15.545  0.00  0.00    +0.000 A 
ATOM      7  C   UNL     1       6.156   4.987  15.375  0.00  0.00    +0.000 A 
ATOM      8  C   UNL     1       6.335   4.076  16.411  0.00  0.00    +0.000 A 
ATOM      9  C   UNL     1       5.674   4.272  17.620  0.00  0.00    +0.000 A 
ATOM     10  C   UNL     1       4.835   5.388  17.800  0.00  0.00    +0.000 A 
ATOM     11  C   UNL     1       4.105   5.561  19.109  0.00  0.00    +0.000 C 
ATOM     12  C   UNL     1       3.759   7.034  19.343  0.00  0.00    +0.000 C 
ENDROOT
BRANCH   1  21
ATOM     13  C   UNL     1       1.164  13.545  18.411  0.00  0.00    +0.000 C 
ATOM     14  C   UNL     1       0.603  12.447  19.309  0.00  0.00    +0.000 C 
ATOM     15  O   UNL     1       1.199  11.188  18.974  0.00  0.00    +0.000 OA
ATOM     16  C   UNL     1       0.995  10.189  19.901  0.00  0.00    +0.000 A 
ATOM     17  C   UNL     1       0.562  10.502  21.210  0.00  0.00    +0.000 A 
ATOM     18  C   UNL     1       0.316   9.508  22.157  0.00  0.00    +0.000 A 
ATOM     19  C   UNL     1       0.621   8.193  21.857  0.00  0.00    +0.000 A 
ATOM     20  C   UNL     1       1.188   7.889  20.622  0.00  0.00    +0.000 A 
ATOM     21  C   UNL     1       1.299   8.846  19.592  0.00  0.00    +0.000 A 
ATOM     22  N   UNL     1       0.480  11.829  21.639  0.00  0.00    +0.000 N 
ATOM     23  C   UNL     1       0.720  12.865  20.781  0.00  0.00    +0.000 C 
ATOM     24  O   UNL     1       0.889  14.005  21.193  0.00  0.00    +0.000 OA
ATOM     25  H   UNL     1       0.434  12.052  22.626  0.00  0.00    +0.000 HD
ENDBRANCH   1  21
BRANCH  11  26
ATOM     26  C   UNL     1       2.872   4.678  19.228  0.00  0.00    +0.000 A 
ATOM     27  C   UNL     1       2.286   4.472  20.486  0.00  0.00    +0.000 A 
ATOM     28  C   UNL     1       1.161   3.654  20.613  0.00  0.00    +0.000 A 
ATOM     29  C   UNL     1       0.604   3.051  19.486  0.00  0.00    +0.000 A 
ATOM     30  C   UNL     1       1.162   3.265  18.238  0.00  0.00    +0.000 A 
ATOM     31  C   UNL     1       2.292   4.062  18.105  0.00  0.00    +0.000 A 
ENDBRANCH  11  26
TORSDOF 2
ENDMDL
MODEL 2
REMARK VINA RESULT:      -8.0      2.913      8.317
REMARK  Name = 
REMARK  3 active torsions:
REMARK  status: ('A' for Active; 'I' for Inactive)
REMARK    1  A    between atoms: C_1  and  C_2
REMARK    2  A    between atoms: C_9  and  C_10
REMARK    3  A    between atoms: C_20  and  C_21
REMARK                            x       y       z     vdW  Elec       q    Type
REMARK                         _______ _______ _______ _____ _____    ______ ____
ROOT
ATOM      1  C   UNL     1       0.665   8.634  20.820  0.00  0.00    +0.000 C 
ATOM      2  O   UNL     1       0.205   7.811  21.613  0.00  0.00    +0.000 OA
ATOM      3  N   UNL     1       0.414  10.016  20.980  0.00  0.00    +0.000 N 
ATOM      4  C   UNL     1      -0.187  10.471  22.245  0.00  0.00    +0.000 C 
ATOM      5  C   UNL     1      -0.944  11.789  22.171  0.00  0.00    +0.000 A 
ATOM      6  C   UNL     1      -1.569  12.294  23.323  0.00  0.00    +0.000 A 
ATOM      7  C   UNL     1      -2.280  13.500  23.283  0.00  0.00    +0.000 A 
ATOM      8  C   UNL     1      -2.377  14.223  22.099  0.00  0.00    +0.000 A 
ATOM      9  C   UNL     1      -1.766  13.737  20.946  0.00  0.00    +0.000 A 
ATOM     10  C   UNL     1      -1.049  12.526  20.977  0.00  0.00    +0.000 A 
ATOM     11  C   UNL     1      -0.423  12.005  19.707  0.00  0.00    +0.000 C 
ATOM     12  C   UNL     1       0.753  11.077  20.025  0.00  0.00    +0.000 C 
ENDROOT
BRANCH   1  21
ATOM     13  C   UNL     1       2.105   3.704  21.597  0.00  0.00    +0.000 C 
ATOM     14  C   UNL     1       2.161   4.561  20.336  0.00  0.00    +0.000 C 
ATOM     15  O   UNL     1       1.793   5.911  20.646  0.00  0.00    +0.000 OA
ATOM     16  C   UNL     1       2.090   6.829  19.661  0.00  0.00    +0.000 A 
ATOM     17  C   UNL     1       2.999   6.506  18.629  0.00  0.00    +0.000 A 
ATOM     18  C   UNL     1       3.292   7.404  17.603  0.00  0.00    +0.000 A 
ATOM     19  C   UNL     1       2.781   8.688  17.658  0.00  0.00    +0.000 A 
ATOM     20  C   UNL     1       2.002   9.066  18.748  0.00  0.00    +0.000 A 
ATOM     21  C   UNL     1       1.562   8.137  19.714  0.00  0.00    +0.000 A 
ATOM     22  N   UNL     1       3.732   5.316  18.666  0.00  0.00    +0.000 N 
ATOM     23  C   UNL     1       3.519   4.387  19.646  0.00  0.00    +0.000 C 
ATOM     24  O   UNL     1       4.307   3.468  19.831  0.00  0.00    +0.000 OA
ATOM     25  H   UNL     1       4.559   5.200  18.095  0.00  0.00    +0.000 HD
ENDBRANCH   1  21
BRANCH  11  26
ATOM     26  C   UNL     1      -1.423  11.330  18.780  0.00  0.00    +0.000 A 
ATOM     27  C   UNL     1      -2.779  11.688  18.844  0.00  0.00    +0.000 A 
ATOM     28  C   UNL     1      -3.710  11.068  18.008  0.00  0.00    +0.000 A 
ATOM     29  C   UNL     1      -3.296  10.099  17.095  0.00  0.00    +0.000 A 
ATOM     30  C   UNL     1      -1.958   9.754  17.011  0.00  0.00    +0.000 A 
ATOM     31  C   UNL     1      -1.027  10.352  17.850  0.00  0.00    +0.000 A 
ENDBRANCH  11  26
TORSDOF 2
ENDMDL
MODEL 3
REMARK VINA RESULT:      -7.8      3.598      7.116
REMARK  Name = 
REMARK  3 active torsions:
REMARK  status: ('A' for Active; 'I' for Inactive)
REMARK    1  A    between atoms: C_1  and  C_2
REMARK    2  A    between atoms: C_9  and  C_10
REMARK    3  A    between atoms: C_20  and  C_21
REMARK                            x       y       z     vdW  Elec       q    Type
REMARK                         _______ _______ _______ _____ _____    ______ ____
ROOT
ATOM      1  C   UNL     1      -1.155  11.820  22.293  0.00  0.00    +0.000 C 
ATOM      2  O   UNL     1      -0.601  11.620  23.374  0.00  0.00    +0.000 OA
ATOM      3  N   UNL     1      -0.845  11.033  21.161  0.00  0.00    +0.000 N 
ATOM      4  C   UNL     1      -0.043   9.814  21.361  0.00  0.00    +0.000 C 
ATOM      5  C   UNL     1       0.729   9.333  20.141  0.00  0.00    +0.000 A 
ATOM      6  C   UNL     1       1.539   8.190  20.240  0.00  0.00    +0.000 A 
ATOM      7  C   UNL     1       2.268   7.729  19.137  0.00  0.00    +0.000 A 
ATOM      8  C   UNL     1       2.199   8.395  17.918  0.00  0.00    +0.000 A 
ATOM      9  C   UNL     1       1.404   9.532  17.801  0.00  0.00    +0.000 A 
ATOM     10  C   UNL     1       0.668  10.002  18.905  0.00  0.00    +0.000 A 
ATOM     11  C   UNL     1      -0.161  11.255  18.761  0.00  0.00    +0.000 C 
ATOM     12  C   UNL     1      -1.299  11.270  19.786  0.00  0.00    +0.000 C 
ENDROOT
BRANCH   1  21
ATOM     13  C   UNL     1       0.889  16.591  22.097  0.00  0.00    +0.000 C 
ATOM     14  C   UNL     1      -0.519  16.107  21.768  0.00  0.00    +0.000 C 
ATOM     15  O   UNL     1      -0.657  14.725  22.120  0.00  0.00    +0.000 OA
ATOM     16  C   UNL     1      -1.955  14.263  22.146  0.00  0.00    +0.000 A 
ATOM     17  C   UNL     1      -3.039  15.169  22.187  0.00  0.00    +0.000 A 
ATOM     18  C   UNL     1      -4.362  14.730  22.181  0.00  0.00    +0.000 A 
ATOM     19  C   UNL     1      -4.628  13.375  22.264  0.00  0.00    +0.000 A 
ATOM     20  C   UNL     1      -3.570  12.477  22.374  0.00  0.00    +0.000 A 
ATOM     21  C   UNL     1      -2.226  12.880  22.224  0.00  0.00    +0.000 A 
ATOM     22  N   UNL     1      -2.821  16.539  22.356  0.00  0.00    +0.000 N 
ATOM     23  C   UNL     1      -1.555  17.054  22.389  0.00  0.00    +0.000 C 
ATOM     24  O   UNL     1      -1.344  18.196  22.775  0.00  0.00    +0.000 OA
ATOM     25  H   UNL     1      -3.572  17.150  22.650  0.00  0.00    +0.000 HD
ENDBRANCH   1  21
BRANCH  11  26
ATOM     26  C   UNL     1       0.664  12.531  18.833  0.00  0.00    +0.000 A 
ATOM     27  C   UNL     1       0.040  13.772  18.634  0.00  0.00    +0.000 A 
ATOM     28  C   UNL     1       0.787  14.950  18.685  0.00  0.00    +0.000 A 
ATOM     29  C   UNL     1       2.155  14.902  18.949  0.00  0.00    +0.000 A 
ATOM     30  C   UNL     1       2.776  13.684  19.167  0.00  0.00    +0.000 A 
ATOM     31  C   UNL     1       2.045  12.505  19.101  0.00  0.00    +0.000 A 
ENDBRANCH  11  26
TORSDOF 2
ENDMDL
MODEL 4
REMARK VINA RESULT:      -7.7      8.961     10.708
REMARK  Name = 
REMARK  3 active torsions:
REMARK  status: ('A' for Active; 'I' for Inactive)
REMARK    1  A    between atoms: C_1  and  C_2
REMARK    2  A    between atoms: C_9  and  C_10
REMARK    3  A    between atoms: C_20  and  C_21
REMARK                            x       y       z     vdW  Elec       q    Type
REMARK                         _______ _______ _______ _____ _____    ______ ____
ROOT
ATOM      1  C   UNL     1       7.645  14.683  21.977  0.00  0.00    +0.000 C 
ATOM      2  O   UNL     1       6.540  15.108  21.637  0.00  0.00    +0.000 OA
ATOM      3  N   UNL     1       8.813  15.052  21.272  0.00  0.00    +0.000 N 
ATOM      4  C   UNL     1       8.716  16.148  20.293  0.00  0.00    +0.000 C 
ATOM      5  C   UNL     1       9.768  16.136  19.194  0.00  0.00    +0.000 A 
ATOM      6  C   UNL     1       9.745  17.129  18.201  0.00  0.00    +0.000 A 
ATOM      7  C   UNL     1      10.695  17.138  17.172  0.00  0.00    +0.000 A 
ATOM      8  C   UNL     1      11.684  16.162  17.117  0.00  0.00    +0.000 A 
ATOM      9  C   UNL     1      11.722  15.167  18.091  0.00  0.00    +0.000 A 
ATOM     10  C   UNL     1      10.772  15.151  19.128  0.00  0.00    +0.000 A 
ATOM     11  C   UNL     1      10.815  14.044  20.153  0.00  0.00    +0.000 C 
ATOM     12  C   UNL     1      10.156  14.492  21.460  0.00  0.00    +0.000 C 
ENDROOT
BRANCH   1  21
ATOM     13  C   UNL     1       9.772  17.233  25.971  0.00  0.00    +0.000 C 
ATOM     14  C   UNL     1       8.959  15.943  25.945  0.00  0.00    +0.000 C 
ATOM     15  O   UNL     1       8.714  15.546  24.590  0.00  0.00    +0.000 OA
ATOM     16  C   UNL     1       8.252  14.256  24.443  0.00  0.00    +0.000 A 
ATOM     17  C   UNL     1       8.374  13.324  25.498  0.00  0.00    +0.000 A 
ATOM     18  C   UNL     1       7.885  12.023  25.387  0.00  0.00    +0.000 A 
ATOM     19  C   UNL     1       7.380  11.588  24.175  0.00  0.00    +0.000 A 
ATOM     20  C   UNL     1       7.390  12.451  23.083  0.00  0.00    +0.000 A 
ATOM     21  C   UNL     1       7.730  13.815  23.207  0.00  0.00    +0.000 A 
ATOM     22  N   UNL     1       9.098  13.639  26.651  0.00  0.00    +0.000 N 
ATOM     23  C   UNL     1       9.626  14.886  26.835  0.00  0.00    +0.000 C 
ATOM     24  O   UNL     1      10.455  15.103  27.709  0.00  0.00    +0.000 OA
ATOM     25  H   UNL     1       9.414  12.910  27.279  0.00  0.00    +0.000 HD
ENDBRANCH   1  21
BRANCH  11  26
ATOM     26  C   UNL     1      10.214  12.740  19.650  0.00  0.00    +0.000 A 
ATOM     27  C   UNL     1      10.080  11.654  20.530  0.00  0.00    +0.000 A 
ATOM     28  C   UNL     1       9.541  10.447  20.080  0.00  0.00    +0.000 A 
ATOM     29  C   UNL     1       9.119  10.318  18.758  0.00  0.00    +0.000 A 
ATOM     30  C   UNL     1       9.229  11.390  17.888  0.00  0.00    +0.000 A 
ATOM     31  C   UNL     1       9.780  12.588  18.321  0.00  0.00    +0.000 A 
ENDBRANCH  11  26
TORSDOF 2
ENDMDL
MODEL 5
REMARK VINA RESULT:      -7.7      2.013      4.155
REMARK  Name = 
REMARK  3 active torsions:
REMARK  status: ('A' for Active; 'I' for Inactive)
REMARK    1  A    between atoms: C_1  and  C_2
REMARK    2  A    between atoms: C_9  and  C_10
REMARK    3  A    between atoms: C_20  and  C_21
REMARK                            x       y       z     vdW  Elec       q    Type
REMARK                         _______ _______ _______ _____ _____    ______ ____
ROOT
ATOM      1  C   UNL     1       1.982   7.160  20.215  0.00  0.00    +0.000 C 
ATOM      2  O   UNL     1       1.985   7.086  21.444  0.00  0.00    +0.000 OA
ATOM      3  N   UNL     1       2.058   5.995  19.418  0.00  0.00    +0.000 N 
ATOM      4  C   UNL     1       1.882   4.690  20.077  0.00  0.00    +0.000 C 
ATOM      5  C   UNL     1       2.513   3.506  19.359  0.00  0.00    +0.000 A 
ATOM      6  C   UNL     1       2.415   2.222  19.920  0.00  0.00    +0.000 A 
ATOM      7  C   UNL     1       2.993   1.115  19.287  0.00  0.00    +0.000 A 
ATOM      8  C   UNL     1       3.673   1.267  18.083  0.00  0.00    +0.000 A 
ATOM      9  C   UNL     1       3.783   2.532  17.512  0.00  0.00    +0.000 A 
ATOM     10  C   UNL     1       3.205   3.650  18.141  0.00  0.00    +0.000 A 
ATOM     11  C   UNL     1       3.365   5.015  17.518  0.00  0.00    +0.000 C 
ATOM     12  C   UNL     1       2.234   5.947  17.962  0.00  0.00    +0.000 C 
ENDROOT
BRANCH   1  21
ATOM     13  C   UNL     1      -0.954  10.301  23.128  0.00  0.00    +0.000 C 
ATOM     14  C   UNL     1      -0.005  10.624  21.979  0.00  0.00    +0.000 C 
ATOM     15  O   UNL     1       0.469   9.411  21.381  0.00  0.00    +0.000 OA
ATOM     16  C   UNL     1       1.090   9.574  20.161  0.00  0.00    +0.000 A 
ATOM     17  C   UNL     1       0.928  10.771  19.428  0.00  0.00    +0.000 A 
ATOM     18  C   UNL     1       1.571  10.975  18.207  0.00  0.00    +0.000 A 
ATOM     19  C   UNL     1       2.285   9.939  17.634  0.00  0.00    +0.000 A 
ATOM     20  C   UNL     1       2.330   8.705  18.276  0.00  0.00    +0.000 A 
ATOM     21  C   UNL     1       1.825   8.518  19.580  0.00  0.00    +0.000 A 
ATOM     22  N   UNL     1       0.019  11.748  19.843  0.00  0.00    +0.000 N 
ATOM     23  C   UNL     1      -0.666  11.621  21.019  0.00  0.00    +0.000 C 
ATOM     24  O   UNL     1      -1.628  12.333  21.274  0.00  0.00    +0.000 OA
ATOM     25  H   UNL     1      -0.297  12.466  19.203  0.00  0.00    +0.000 HD
ENDBRANCH   1  21
BRANCH  11  26
ATOM     26  C   UNL     1       4.728   5.636  17.780  0.00  0.00    +0.000 A 
ATOM     27  C   UNL     1       5.173   6.696  16.975  0.00  0.00    +0.000 A 
ATOM     28  C   UNL     1       6.427   7.268  17.195  0.00  0.00    +0.000 A 
ATOM     29  C   UNL     1       7.239   6.800  18.228  0.00  0.00    +0.000 A 
ATOM     30  C   UNL     1       6.800   5.769  19.041  0.00  0.00    +0.000 A 
ATOM     31  C   UNL     1       5.562   5.182  18.817  0.00  0.00    +0.000 A 
ENDBRANCH  11  26
TORSDOF 2
ENDMDL
MODEL 6
REMARK VINA RESULT:      -7.5      4.421      7.775
REMARK  Name = 
REMARK  3 active torsions:
REMARK  status: ('A' for Active; 'I' for Inactive)
REMARK    1  A    between atoms: C_1  and  C_2
REMARK    2  A    between atoms: C_9  and  C_10
REMARK    3  A    between atoms: C_20  and  C_21
REMARK                            x       y       z     vdW  Elec       q    Type
REMARK                         _______ _______ _______ _____ _____    ______ ____
ROOT
ATOM      1  C   UNL     1      -0.394  14.041  20.791  0.00  0.00    +0.000 C 
ATOM      2  O   UNL     1      -0.864  14.268  21.907  0.00  0.00    +0.000 OA
ATOM      3  N   UNL     1      -1.180  13.442  19.780  0.00  0.00    +0.000 N 
ATOM      4  C   UNL     1      -2.631  13.329  20.003  0.00  0.00    +0.000 C 
ATOM      5  C   UNL     1      -3.328  12.225  19.222  0.00  0.00    +0.000 A 
ATOM      6  C   UNL     1      -4.708  12.026  19.384  0.00  0.00    +0.000 A 
ATOM      7  C   UNL     1      -5.375  11.013  18.685  0.00  0.00    +0.000 A 
ATOM      8  C   UNL     1      -4.679  10.184  17.811  0.00  0.00    +0.000 A 
ATOM      9  C   UNL     1      -3.309  10.363  17.639  0.00  0.00    +0.000 A 
ATOM     10  C   UNL     1      -2.631  11.380  18.337  0.00  0.00    +0.000 A 
ATOM     11  C   UNL     1      -1.141  11.533  18.157  0.00  0.00    +0.000 C 
ATOM     12  C   UNL     1      -0.703  12.965  18.477  0.00  0.00    +0.000 C 
ENDROOT
BRANCH   1  21
ATOM     13  C   UNL     1      -0.269  17.930  17.349  0.00  0.00    +0.000 C 
ATOM     14  C   UNL     1       0.802  17.431  18.313  0.00  0.00    +0.000 C 
ATOM     15  O   UNL     1       0.359  16.232  18.960  0.00  0.00    +0.000 OA
ATOM     16  C   UNL     1       1.347  15.534  19.621  0.00  0.00    +0.000 A 
ATOM     17  C   UNL     1       2.711  15.796  19.356  0.00  0.00    +0.000 A 
ATOM     18  C   UNL     1       3.730  15.128  20.034  0.00  0.00    +0.000 A 
ATOM     19  C   UNL     1       3.409  14.096  20.896  0.00  0.00    +0.000 A 
ATOM     20  C   UNL     1       2.075  13.728  21.054  0.00  0.00    +0.000 A 
ATOM     21  C   UNL     1       1.019  14.485  20.506  0.00  0.00    +0.000 A 
ATOM     22  N   UNL     1       3.087  16.651  18.316  0.00  0.00    +0.000 N 
ATOM     23  C   UNL     1       2.152  17.333  17.590  0.00  0.00    +0.000 C 
ATOM     24  O   UNL     1       2.444  17.885  16.537  0.00  0.00    +0.000 OA
ATOM     25  H   UNL     1       4.031  16.637  17.951  0.00  0.00    +0.000 HD
ENDBRANCH   1  21
BRANCH  11  26
ATOM     26  C   UNL     1      -0.335  10.519  18.954  0.00  0.00    +0.000 A 
ATOM     27  C   UNL     1       0.769   9.889  18.358  0.00  0.00    +0.000 A 
ATOM     28  C   UNL     1       1.512   8.947  19.073  0.00  0.00    +0.000 A 
ATOM     29  C   UNL     1       1.169   8.637  20.389  0.00  0.00    +0.000 A 
ATOM     30  C   UNL     1       0.094   9.268  20.991  0.00  0.00    +0.000 A 
ATOM     31  C   UNL     1      -0.661  10.193  20.283  0.00  0.00    +0.000 A 
ENDBRANCH  11  26
TORSDOF 2
ENDMDL
MODEL 7
REMARK VINA RESULT:      -7.5      5.638      8.952
REMARK  Name = 
REMARK  3 active torsions:
REMARK  status: ('A' for Active; 'I' for Inactive)
REMARK    1  A    between atoms: C_1  and  C_2
REMARK    2  A    between atoms: C_9  and  C_10
REMARK    3  A    between atoms: C_20  and  C_21
REMARK                            x       y       z     vdW  Elec       q    Type
REMARK                         _______ _______ _______ _____ _____    ______ ____
ROOT
ATOM      1  C   UNL     1       0.132  11.709  21.517  0.00  0.00    +0.000 C 
ATOM      2  O   UNL     1       0.411  10.719  22.194  0.00  0.00    +0.000 OA
ATOM      3  N   UNL     1      -1.027  12.471  21.789  0.00  0.00    +0.000 N 
ATOM      4  C   UNL     1      -1.750  12.211  23.046  0.00  0.00    +0.000 C 
ATOM      5  C   UNL     1      -3.222  12.597  23.043  0.00  0.00    +0.000 A 
ATOM      6  C   UNL     1      -4.000  12.368  24.189  0.00  0.00    +0.000 A 
ATOM      7  C   UNL     1      -5.359  12.705  24.214  0.00  0.00    +0.000 A 
ATOM      8  C   UNL     1      -5.964  13.277  23.099  0.00  0.00    +0.000 A 
ATOM      9  C   UNL     1      -5.209  13.509  21.952  0.00  0.00    +0.000 A 
ATOM     10  C   UNL     1      -3.843  13.174  21.919  0.00  0.00    +0.000 A 
ATOM     11  C   UNL     1      -3.055  13.406  20.653  0.00  0.00    +0.000 C 
ATOM     12  C   UNL     1      -1.564  13.561  20.966  0.00  0.00    +0.000 C 
ENDROOT
BRANCH   1  21
ATOM     13  C   UNL     1       2.536  16.151  22.730  0.00  0.00    +0.000 C 
ATOM     14  C   UNL     1       2.881  15.098  21.683  0.00  0.00    +0.000 C 
ATOM     15  O   UNL     1       1.837  14.118  21.612  0.00  0.00    +0.000 OA
ATOM     16  C   UNL     1       1.895  13.294  20.509  0.00  0.00    +0.000 A 
ATOM     17  C   UNL     1       2.687  13.642  19.392  0.00  0.00    +0.000 A 
ATOM     18  C   UNL     1       2.788  12.811  18.278  0.00  0.00    +0.000 A 
ATOM     19  C   UNL     1       2.000  11.676  18.203  0.00  0.00    +0.000 A 
ATOM     20  C   UNL     1       1.105  11.398  19.232  0.00  0.00    +0.000 A 
ATOM     21  C   UNL     1       1.095  12.132  20.436  0.00  0.00    +0.000 A 
ATOM     22  N   UNL     1       3.303  14.894  19.315  0.00  0.00    +0.000 N 
ATOM     23  C   UNL     1       3.241  15.777  20.356  0.00  0.00    +0.000 C 
ATOM     24  O   UNL     1       3.561  16.950  20.213  0.00  0.00    +0.000 OA
ATOM     25  H   UNL     1       3.639  15.251  18.429  0.00  0.00    +0.000 HD
ENDBRANCH   1  21
BRANCH  11  26
ATOM     26  C   UNL     1      -3.290  12.336  19.598  0.00  0.00    +0.000 A 
ATOM     27  C   UNL     1      -4.601  12.025  19.207  0.00  0.00    +0.000 A 
ATOM     28  C   UNL     1      -4.832  11.036  18.248  0.00  0.00    +0.000 A 
ATOM     29  C   UNL     1      -3.761  10.364  17.662  0.00  0.00    +0.000 A 
ATOM     30  C   UNL     1      -2.463  10.679  18.027  0.00  0.00    +0.000 A 
ATOM     31  C   UNL     1      -2.224  11.648  18.993  0.00  0.00    +0.000 A 
ENDBRANCH  11  26
TORSDOF 2
ENDMDL
MODEL 8
REMARK VINA RESULT:      -7.4      6.103      8.381
REMARK  Name = 
REMARK  3 active torsions:
REMARK  status: ('A' for Active; 'I' for Inactive)
REMARK    1  A    between atoms: C_1  and  C_2
REMARK    2  A    between atoms: C_9  and  C_10
REMARK    3  A    between atoms: C_20  and  C_21
REMARK                            x       y       z     vdW  Elec       q    Type
REMARK                         _______ _______ _______ _____ _____    ______ ____
ROOT
ATOM      1  C   UNL     1      -1.756  15.645  21.033  0.00  0.00    +0.000 C 
ATOM      2  O   UNL     1      -2.349  16.505  20.380  0.00  0.00    +0.000 OA
ATOM      3  N   UNL     1      -0.397  15.349  20.778  0.00  0.00    +0.000 N 
ATOM      4  C   UNL     1       0.359  16.259  19.902  0.00  0.00    +0.000 C 
ATOM      5  C   UNL     1       1.568  15.644  19.211  0.00  0.00    +0.000 A 
ATOM      6  C   UNL     1       2.341  16.427  18.339  0.00  0.00    +0.000 A 
ATOM      7  C   UNL     1       3.453  15.886  17.682  0.00  0.00    +0.000 A 
ATOM      8  C   UNL     1       3.816  14.559  17.886  0.00  0.00    +0.000 A 
ATOM      9  C   UNL     1       3.060  13.765  18.745  0.00  0.00    +0.000 A 
ATOM     10  C   UNL     1       1.941  14.301  19.410  0.00  0.00    +0.000 A 
ATOM     11  C   UNL     1       1.121  13.411  20.311  0.00  0.00    +0.000 C 
ATOM     12  C   UNL     1       0.375  14.244  21.357  0.00  0.00    +0.000 C 
ENDROOT
BRANCH   1  21
ATOM     13  C   UNL     1      -5.219  12.212  19.245  0.00  0.00    +0.000 C 
ATOM     14  C   UNL     1      -4.627  12.380  20.640  0.00  0.00    +0.000 C 
ATOM     15  O   UNL     1      -3.822  13.564  20.691  0.00  0.00    +0.000 OA
ATOM     16  C   UNL     1      -3.482  13.975  21.961  0.00  0.00    +0.000 A 
ATOM     17  C   UNL     1      -4.178  13.480  23.087  0.00  0.00    +0.000 A 
ATOM     18  C   UNL     1      -3.833  13.854  24.385  0.00  0.00    +0.000 A 
ATOM     19  C   UNL     1      -2.870  14.829  24.578  0.00  0.00    +0.000 A 
ATOM     20  C   UNL     1      -2.280  15.433  23.471  0.00  0.00    +0.000 A 
ATOM     21  C   UNL     1      -2.494  14.965  22.158  0.00  0.00    +0.000 A 
ATOM     22  N   UNL     1      -5.319  12.688  22.932  0.00  0.00    +0.000 N 
ATOM     23  C   UNL     1      -5.738  12.288  21.694  0.00  0.00    +0.000 C 
ATOM     24  O   UNL     1      -6.851  11.808  21.524  0.00  0.00    +0.000 OA
ATOM     25  H   UNL     1      -5.965  12.555  23.700  0.00  0.00    +0.000 HD
ENDBRANCH   1  21
BRANCH  11  26
ATOM     26  C   UNL     1       0.169  12.502  19.548  0.00  0.00    +0.000 A 
ATOM     27  C   UNL     1       0.071  11.148  19.903  0.00  0.00    +0.000 A 
ATOM     28  C   UNL     1      -0.789  10.298  19.204  0.00  0.00    +0.000 A 
ATOM     29  C   UNL     1      -1.567  10.794  18.159  0.00  0.00    +0.000 A 
ATOM     30  C   UNL     1      -1.492  12.133  17.815  0.00  0.00    +0.000 A 
ATOM     31  C   UNL     1      -0.627  12.982  18.492  0.00  0.00    +0.000 A 
ENDBRANCH  11  26
TORSDOF 2
ENDMDL
MODEL 9
REMARK VINA RESULT:      -7.3      7.030     10.814
REMARK  Name = 
REMARK  3 active torsions:
REMARK  status: ('A' for Active; 'I' for Inactive)
REMARK    1  A    between atoms: C_1  and  C_2
REMARK    2  A    between atoms: C_9  and  C_10
REMARK    3  A    between atoms: C_20  and  C_21
REMARK                            x       y       z     vdW  Elec       q    Type
REMARK                         _______ _______ _______ _____ _____    ______ ____
ROOT
ATOM      1  C   UNL     1      -4.901  14.844  21.061  0.00  0.00    +0.000 C 
ATOM      2  O   UNL     1      -4.816  15.801  20.291  0.00  0.00    +0.000 OA
ATOM      3  N   UNL     1      -4.466  14.950  22.402  0.00  0.00    +0.000 N 
ATOM      4  C   UNL     1      -4.152  16.290  22.926  0.00  0.00    +0.000 C 
ATOM      5  C   UNL     1      -3.186  16.320  24.102  0.00  0.00    +0.000 A 
ATOM      6  C   UNL     1      -2.809  17.554  24.658  0.00  0.00    +0.000 A 
ATOM      7  C   UNL     1      -1.915  17.614  25.734  0.00  0.00    +0.000 A 
ATOM      8  C   UNL     1      -1.387  16.448  26.276  0.00  0.00    +0.000 A 
ATOM      9  C   UNL     1      -1.745  15.215  25.738  0.00  0.00    +0.000 A 
ATOM     10  C   UNL     1      -2.643  15.146  24.656  0.00  0.00    +0.000 A 
ATOM     11  C   UNL     1      -2.992  13.800  24.070  0.00  0.00    +0.000 C 
ATOM     12  C   UNL     1      -4.352  13.852  23.369  0.00  0.00    +0.000 C 
ENDROOT
BRANCH   1  21
ATOM     13  C   UNL     1      -1.610  12.036  18.187  0.00  0.00    +0.000 C 
ATOM     14  C   UNL     1      -2.928  11.642  18.846  0.00  0.00    +0.000 C 
ATOM     15  O   UNL     1      -3.558  12.798  19.410  0.00  0.00    +0.000 OA
ATOM     16  C   UNL     1      -4.877  12.618  19.766  0.00  0.00    +0.000 A 
ATOM     17  C   UNL     1      -5.612  11.518  19.271  0.00  0.00    +0.000 A 
ATOM     18  C   UNL     1      -6.938  11.295  19.641  0.00  0.00    +0.000 A 
ATOM     19  C   UNL     1      -7.595  12.237  20.412  0.00  0.00    +0.000 A 
ATOM     20  C   UNL     1      -6.927  13.400  20.785  0.00  0.00    +0.000 A 
ATOM     21  C   UNL     1      -5.546  13.577  20.559  0.00  0.00    +0.000 A 
ATOM     22  N   UNL     1      -5.071  10.678  18.294  0.00  0.00    +0.000 N 
ATOM     23  C   UNL     1      -3.784  10.835  17.861  0.00  0.00    +0.000 C 
ATOM     24  O   UNL     1      -3.381  10.275  16.850  0.00  0.00    +0.000 OA
ATOM     25  H   UNL     1      -5.667  10.067  17.749  0.00  0.00    +0.000 HD
ENDBRANCH   1  21
BRANCH  11  26
ATOM     26  C   UNL     1      -1.915  13.253  23.145  0.00  0.00    +0.000 A 
ATOM     27  C   UNL     1      -1.781  11.865  22.981  0.00  0.00    +0.000 A 
ATOM     28  C   UNL     1      -0.789  11.349  22.145  0.00  0.00    +0.000 A 
ATOM     29  C   UNL     1       0.064  12.209  21.455  0.00  0.00    +0.000 A 
ATOM     30  C   UNL     1      -0.074  13.580  21.594  0.00  0.00    +0.000 A 
ATOM     31  C   UNL     1      -1.046  14.102  22.437  0.00  0.00    +0.000 A 
ENDBRANCH  11  26
TORSDOF 2
ENDMDL
