MODEL 1
REMARK VINA RESULT:      -8.7      0.000      0.000
REMARK  Name = 
REMARK  4 active torsions:
REMARK  status: ('A' for Active; 'I' for Inactive)
REMARK    1  A    between atoms: C_2  and  C_3
REMARK    2  A    between atoms: N_14  and  C_15
REMARK    3  A    between atoms: N_14  and  C_20
REMARK    4  A    between atoms: C_15  and  C_16
REMARK                            x       y       z     vdW  Elec       q    Type
REMARK                         _______ _______ _______ _____ _____    ______ ____
ROOT
ATOM      1  O   UNL     1       3.606   3.269  16.603  0.00  0.00    +0.000 OA
ATOM      2  C   UNL     1       4.208   4.231  17.088  0.00  0.00    +0.000 C 
ATOM      3  N   UNL     1       5.520   4.524  16.715  0.00  0.00    +0.000 N 
ENDROOT
BRANCH   2   4
ATOM      4  C   UNL     1       3.492   5.135  18.072  0.00  0.00    +0.000 A 
ATOM      5  C   UNL     1       3.074   6.344  17.667  0.00  0.00    +0.000 A 
ATOM      6  C   UNL     1       2.394   7.208  18.626  0.00  0.00    +0.000 A 
ATOM      7  C   UNL     1       2.018   8.514  18.293  0.00  0.00    +0.000 A 
ATOM      8  C   UNL     1       1.375   9.326  19.233  0.00  0.00    +0.000 A 
ATOM      9  C   UNL     1       1.087   8.836  20.508  0.00  0.00    +0.000 A 
ATOM     10  C   UNL     1       1.447   7.535  20.843  0.00  0.00    +0.000 A 
ATOM     11  C   UNL     1       2.110   6.729  19.907  0.00  0.00    +0.000 A 
ATOM     12  C   UNL     1       2.539   5.370  20.303  0.00  0.00    +0.000 A 
ATOM     13  O   UNL     1       2.245   4.902  21.396  0.00  0.00    +0.000 OA
ATOM     14  O   UNL     1       3.303   4.694  19.402  0.00  0.00    +0.000 OA
ENDBRANCH   2   4
BRANCH   3  15
ATOM     15  C   UNL     1       6.367   5.438  17.387  0.00  0.00    +0.000 A 
ATOM     16  C   UNL     1       6.569   6.722  16.870  0.00  0.00    +0.000 A 
ATOM     17  C   UNL     1       7.473   7.589  17.487  0.00  0.00    +0.000 A 
ATOM     18  C   UNL     1       8.172   7.173  18.620  0.00  0.00    +0.000 A 
ATOM     19  C   UNL     1       7.950   5.904  19.154  0.00  0.00    +0.000 A 
ATOM     20  C   UNL     1       7.035   5.041  18.550  0.00  0.00    +0.000 A 
ENDBRANCH   3  15
BRANCH   3  21
ATOM     21  C   UNL     1       6.169   3.686  15.687  0.00  0.00    +0.000 C 
BRANCH  21  22
ATOM     22  C   UNL     1       6.229   4.275  14.278  0.00  0.00    +0.000 C 
ATOM     23  F   UNL     1       7.309   5.057  14.073  0.00  0.00    +0.000 F 
ATOM     24  F   UNL     1       6.282   3.278  13.358  0.00  0.00    +0.000 F 
ATOM     25  F   UNL     1       5.129   5.010  13.999  0.00  0.00    +0.000 F 
ENDBRANCH  21  22
ENDBRANCH   3  21
TORSDOF 4
ENDMDL
MODEL 2
REMARK VINA RESULT:      -8.6      0.193      1.244
REMARK  Name = 
REMARK  4 active torsions:
REMARK  status: ('A' for Active; 'I' for Inactive)
REMARK    1  A    between atoms: C_2  and  C_3
REMARK    2  A    between atoms: N_14  and  C_15
REMARK    3  A    between atoms: N_14  and  C_20
REMARK    4  A    between atoms: C_15  and  C_16
REMARK                            x       y       z     vdW  Elec       q    Type
REMARK                         _______ _______ _______ _____ _____    ______ ____
ROOT
ATOM      1  O   UNL     1       3.730   3.223  16.451  0.00  0.00    +0.000 OA
ATOM      2  C   UNL     1       4.341   4.174  16.946  0.00  0.00    +0.000 C 
ATOM      3  N   UNL     1       5.655   4.458  16.575  0.00  0.00    +0.000 N 
ENDROOT
BRANCH   2   4
ATOM      4  C   UNL     1       3.636   5.074  17.941  0.00  0.00    +0.000 A 
ATOM      5  C   UNL     1       3.203   6.279  17.543  0.00  0.00    +0.000 A 
ATOM      6  C   UNL     1       2.534   7.139  18.512  0.00  0.00    +0.000 A 
ATOM      7  C   UNL     1       2.144   8.444  18.186  0.00  0.00    +0.000 A 
ATOM      8  C   UNL     1       1.510   9.252  19.136  0.00  0.00    +0.000 A 
ATOM      9  C   UNL     1       1.246   8.760  20.414  0.00  0.00    +0.000 A 
ATOM     10  C   UNL     1       1.620   7.460  20.744  0.00  0.00    +0.000 A 
ATOM     11  C   UNL     1       2.272   6.659  19.798  0.00  0.00    +0.000 A 
ATOM     12  C   UNL     1       2.716   5.303  20.187  0.00  0.00    +0.000 A 
ATOM     13  O   UNL     1       2.442   4.833  21.284  0.00  0.00    +0.000 OA
ATOM     14  O   UNL     1       3.470   4.632  19.274  0.00  0.00    +0.000 OA
ENDBRANCH   2   4
BRANCH   3  15
ATOM     15  C   UNL     1       6.512   5.357  17.256  0.00  0.00    +0.000 A 
ATOM     16  C   UNL     1       7.132   4.972  18.449  0.00  0.00    +0.000 A 
ATOM     17  C   UNL     1       7.905   5.890  19.163  0.00  0.00    +0.000 A 
ATOM     18  C   UNL     1       8.059   7.190  18.683  0.00  0.00    +0.000 A 
ATOM     19  C   UNL     1       7.466   7.568  17.479  0.00  0.00    +0.000 A 
ATOM     20  C   UNL     1       6.706   6.648  16.754  0.00  0.00    +0.000 A 
ENDBRANCH   3  15
BRANCH   3  21
ATOM     21  C   UNL     1       6.295   3.625  15.536  0.00  0.00    +0.000 C 
BRANCH  21  22
ATOM     22  C   UNL     1       6.218   4.158  14.106  0.00  0.00    +0.000 C 
ATOM     23  F   UNL     1       5.097   4.868  13.861  0.00  0.00    +0.000 F 
ATOM     24  F   UNL     1       7.270   4.980  13.858  0.00  0.00    +0.000 F 
ATOM     25  F   UNL     1       6.279   3.158  13.198  0.00  0.00    +0.000 F 
ENDBRANCH  21  22
ENDBRANCH   3  21
TORSDOF 4
ENDMDL
MODEL 3
REMARK VINA RESULT:      -7.7      2.711      3.819
REMARK  Name = 
REMARK  4 active torsions:
REMARK  status: ('A' for Active; 'I' for Inactive)
REMARK    1  A    between atoms: C_2  and  C_3
REMARK    2  A    between atoms: N_14  and  C_15
REMARK    3  A    between atoms: N_14  and  C_20
REMARK    4  A    between atoms: C_15  and  C_16
REMARK                            x       y       z     vdW  Elec       q    Type
REMARK                         _______ _______ _______ _____ _____    ______ ____
ROOT
ATOM      1  O   UNL     1       2.054   4.070  20.810  0.00  0.00    +0.000 OA
ATOM      2  C   UNL     1       2.674   4.764  19.998  0.00  0.00    +0.000 C 
ATOM      3  N   UNL     1       3.722   4.230  19.248  0.00  0.00    +0.000 N 
ENDROOT
BRANCH   2   4
ATOM      4  C   UNL     1       2.261   6.206  19.783  0.00  0.00    +0.000 A 
ATOM      5  C   UNL     1       1.755   6.903  20.812  0.00  0.00    +0.000 A 
ATOM      6  C   UNL     1       1.353   8.287  20.590  0.00  0.00    +0.000 A 
ATOM      7  C   UNL     1       0.732   9.037  21.595  0.00  0.00    +0.000 A 
ATOM      8  C   UNL     1       0.348  10.361  21.355  0.00  0.00    +0.000 A 
ATOM      9  C   UNL     1       0.595  10.952  20.116  0.00  0.00    +0.000 A 
ATOM     10  C   UNL     1       1.222  10.217  19.114  0.00  0.00    +0.000 A 
ATOM     11  C   UNL     1       1.588   8.884  19.349  0.00  0.00    +0.000 A 
ATOM     12  C   UNL     1       2.197   8.101  18.253  0.00  0.00    +0.000 A 
ATOM     13  O   UNL     1       2.474   8.619  17.178  0.00  0.00    +0.000 OA
ATOM     14  O   UNL     1       2.395   6.777  18.497  0.00  0.00    +0.000 OA
ENDBRANCH   2   4
BRANCH   3  15
ATOM     15  C   UNL     1       4.643   4.993  18.489  0.00  0.00    +0.000 A 
ATOM     16  C   UNL     1       4.411   5.229  17.130  0.00  0.00    +0.000 A 
ATOM     17  C   UNL     1       5.364   5.905  16.366  0.00  0.00    +0.000 A 
ATOM     18  C   UNL     1       6.546   6.346  16.960  0.00  0.00    +0.000 A 
ATOM     19  C   UNL     1       6.767   6.137  18.321  0.00  0.00    +0.000 A 
ATOM     20  C   UNL     1       5.809   5.476  19.092  0.00  0.00    +0.000 A 
ENDBRANCH   3  15
BRANCH   3  21
ATOM     21  C   UNL     1       4.051   2.799  19.404  0.00  0.00    +0.000 C 
BRANCH  21  22
ATOM     22  C   UNL     1       3.228   1.824  18.563  0.00  0.00    +0.000 C 
ATOM     23  F   UNL     1       3.868   0.663  18.314  0.00  0.00    +0.000 F 
ATOM     24  F   UNL     1       2.076   1.510  19.209  0.00  0.00    +0.000 F 
ATOM     25  F   UNL     1       2.878   2.365  17.374  0.00  0.00    +0.000 F 
ENDBRANCH  21  22
ENDBRANCH   3  21
TORSDOF 4
ENDMDL
MODEL 4
REMARK VINA RESULT:      -7.6      2.732      3.908
REMARK  Name = 
REMARK  4 active torsions:
REMARK  status: ('A' for Active; 'I' for Inactive)
REMARK    1  A    between atoms: C_2  and  C_3
REMARK    2  A    between atoms: N_14  and  C_15
REMARK    3  A    between atoms: N_14  and  C_20
REMARK    4  A    between atoms: C_15  and  C_16
REMARK                            x       y       z     vdW  Elec       q    Type
REMARK                         _______ _______ _______ _____ _____    ______ ____
ROOT
ATOM      1  O   UNL     1       2.109   4.088  20.872  0.00  0.00    +0.000 OA
ATOM      2  C   UNL     1       2.689   4.761  20.016  0.00  0.00    +0.000 C 
ATOM      3  N   UNL     1       3.690   4.206  19.218  0.00  0.00    +0.000 N 
ENDROOT
BRANCH   2   4
ATOM      4  C   UNL     1       2.276   6.203  19.799  0.00  0.00    +0.000 A 
ATOM      5  C   UNL     1       1.780   6.905  20.829  0.00  0.00    +0.000 A 
ATOM      6  C   UNL     1       1.378   8.289  20.605  0.00  0.00    +0.000 A 
ATOM      7  C   UNL     1       0.766   9.044  21.613  0.00  0.00    +0.000 A 
ATOM      8  C   UNL     1       0.383  10.367  21.371  0.00  0.00    +0.000 A 
ATOM      9  C   UNL     1       0.620  10.954  20.127  0.00  0.00    +0.000 A 
ATOM     10  C   UNL     1       1.238  10.214  19.123  0.00  0.00    +0.000 A 
ATOM     11  C   UNL     1       1.604   8.881  19.360  0.00  0.00    +0.000 A 
ATOM     12  C   UNL     1       2.203   8.093  18.262  0.00  0.00    +0.000 A 
ATOM     13  O   UNL     1       2.472   8.607  17.183  0.00  0.00    +0.000 OA
ATOM     14  O   UNL     1       2.401   6.770  18.510  0.00  0.00    +0.000 OA
ENDBRANCH   2   4
BRANCH   3  15
ATOM     15  C   UNL     1       4.573   4.947  18.396  0.00  0.00    +0.000 A 
ATOM     16  C   UNL     1       5.725   5.525  18.940  0.00  0.00    +0.000 A 
ATOM     17  C   UNL     1       6.546   6.327  18.146  0.00  0.00    +0.000 A 
ATOM     18  C   UNL     1       6.217   6.550  16.810  0.00  0.00    +0.000 A 
ATOM     19  C   UNL     1       5.085   5.951  16.257  0.00  0.00    +0.000 A 
ATOM     20  C   UNL     1       4.271   5.135  17.043  0.00  0.00    +0.000 A 
ENDBRANCH   3  15
BRANCH   3  21
ATOM     21  C   UNL     1       4.015   2.774  19.381  0.00  0.00    +0.000 C 
BRANCH  21  22
ATOM     22  C   UNL     1       3.165   1.795  18.572  0.00  0.00    +0.000 C 
ATOM     23  F   UNL     1       2.783   2.284  17.374  0.00  0.00    +0.000 F 
ATOM     24  F   UNL     1       3.868   0.658  18.331  0.00  0.00    +0.000 F 
ATOM     25  F   UNL     1       2.049   1.432  19.244  0.00  0.00    +0.000 F 
ENDBRANCH  21  22
ENDBRANCH   3  21
TORSDOF 4
ENDMDL
MODEL 5
REMARK VINA RESULT:      -7.5      3.544      6.419
REMARK  Name = 
REMARK  4 active torsions:
REMARK  status: ('A' for Active; 'I' for Inactive)
REMARK    1  A    between atoms: C_2  and  C_3
REMARK    2  A    between atoms: N_14  and  C_15
REMARK    3  A    between atoms: N_14  and  C_20
REMARK    4  A    between atoms: C_15  and  C_16
REMARK                            x       y       z     vdW  Elec       q    Type
REMARK                         _______ _______ _______ _____ _____    ______ ____
ROOT
ATOM      1  O   UNL     1       4.575   2.202  20.022  0.00  0.00    +0.000 OA
ATOM      2  C   UNL     1       4.349   3.332  19.580  0.00  0.00    +0.000 C 
ATOM      3  N   UNL     1       3.367   4.144  20.147  0.00  0.00    +0.000 N 
ENDROOT
BRANCH   2   4
ATOM      4  C   UNL     1       5.182   3.860  18.429  0.00  0.00    +0.000 A 
ATOM      5  C   UNL     1       4.875   3.494  17.176  0.00  0.00    +0.000 A 
ATOM      6  C   UNL     1       5.689   4.002  16.078  0.00  0.00    +0.000 A 
ATOM      7  C   UNL     1       5.481   3.584  14.759  0.00  0.00    +0.000 A 
ATOM      8  C   UNL     1       6.281   4.080  13.724  0.00  0.00    +0.000 A 
ATOM      9  C   UNL     1       7.285   5.010  13.995  0.00  0.00    +0.000 A 
ATOM     10  C   UNL     1       7.493   5.440  15.302  0.00  0.00    +0.000 A 
ATOM     11  C   UNL     1       6.704   4.927  16.341  0.00  0.00    +0.000 A 
ATOM     12  C   UNL     1       6.980   5.349  17.730  0.00  0.00    +0.000 A 
ATOM     13  O   UNL     1       7.818   6.207  17.981  0.00  0.00    +0.000 OA
ATOM     14  O   UNL     1       6.279   4.708  18.705  0.00  0.00    +0.000 OA
ENDBRANCH   2   4
BRANCH   3  15
ATOM     15  C   UNL     1       2.867   5.335  19.566  0.00  0.00    +0.000 A 
ATOM     16  C   UNL     1       2.750   5.446  18.177  0.00  0.00    +0.000 A 
ATOM     17  C   UNL     1       2.341   6.651  17.604  0.00  0.00    +0.000 A 
ATOM     18  C   UNL     1       2.047   7.743  18.419  0.00  0.00    +0.000 A 
ATOM     19  C   UNL     1       2.135   7.627  19.806  0.00  0.00    +0.000 A 
ATOM     20  C   UNL     1       2.528   6.418  20.384  0.00  0.00    +0.000 A 
ENDBRANCH   3  15
BRANCH   3  21
ATOM     21  C   UNL     1       2.628   3.648  21.326  0.00  0.00    +0.000 C 
BRANCH  21  22
ATOM     22  C   UNL     1       1.291   2.965  21.043  0.00  0.00    +0.000 C 
ATOM     23  F   UNL     1       0.364   3.801  20.529  0.00  0.00    +0.000 F 
ATOM     24  F   UNL     1       1.462   1.963  20.143  0.00  0.00    +0.000 F 
ATOM     25  F   UNL     1       0.771   2.407  22.159  0.00  0.00    +0.000 F 
ENDBRANCH  21  22
ENDBRANCH   3  21
TORSDOF 4
ENDMDL
MODEL 6
REMARK VINA RESULT:      -7.5      3.712      6.439
REMARK  Name = 
REMARK  4 active torsions:
REMARK  status: ('A' for Active; 'I' for Inactive)
REMARK    1  A    between atoms: C_2  and  C_3
REMARK    2  A    between atoms: N_14  and  C_15
REMARK    3  A    between atoms: N_14  and  C_20
REMARK    4  A    between atoms: C_15  and  C_16
REMARK                            x       y       z     vdW  Elec       q    Type
REMARK                         _______ _______ _______ _____ _____    ______ ____
ROOT
ATOM      1  O   UNL     1       3.078   1.676  18.809  0.00  0.00    +0.000 OA
ATOM      2  C   UNL     1       3.200   2.903  18.747  0.00  0.00    +0.000 C 
ATOM      3  N   UNL     1       2.344   3.749  19.453  0.00  0.00    +0.000 N 
ENDROOT
BRANCH   2   4
ATOM      4  C   UNL     1       4.326   3.496  17.925  0.00  0.00    +0.000 A 
ATOM      5  C   UNL     1       4.268   3.427  16.587  0.00  0.00    +0.000 A 
ATOM      6  C   UNL     1       5.363   3.995  15.807  0.00  0.00    +0.000 A 
ATOM      7  C   UNL     1       5.408   3.872  14.414  0.00  0.00    +0.000 A 
ATOM      8  C   UNL     1       6.472   4.418  13.689  0.00  0.00    +0.000 A 
ATOM      9  C   UNL     1       7.493   5.105  14.348  0.00  0.00    +0.000 A 
ATOM     10  C   UNL     1       7.451   5.242  15.732  0.00  0.00    +0.000 A 
ATOM     11  C   UNL     1       6.393   4.677  16.459  0.00  0.00    +0.000 A 
ATOM     12  C   UNL     1       6.398   4.780  17.934  0.00  0.00    +0.000 A 
ATOM     13  O   UNL     1       7.254   5.428  18.524  0.00  0.00    +0.000 OA
ATOM     14  O   UNL     1       5.426   4.089  18.588  0.00  0.00    +0.000 OA
ENDBRANCH   2   4
BRANCH   3  15
ATOM     15  C   UNL     1       2.244   5.147  19.253  0.00  0.00    +0.000 A 
ATOM     16  C   UNL     1       2.367   5.687  17.969  0.00  0.00    +0.000 A 
ATOM     17  C   UNL     1       2.356   7.071  17.788  0.00  0.00    +0.000 A 
ATOM     18  C   UNL     1       2.221   7.914  18.890  0.00  0.00    +0.000 A 
ATOM     19  C   UNL     1       2.070   7.378  20.169  0.00  0.00    +0.000 A 
ATOM     20  C   UNL     1       2.063   5.995  20.352  0.00  0.00    +0.000 A 
ENDBRANCH   3  15
BRANCH   3  21
ATOM     21  C   UNL     1       1.310   3.150  20.321  0.00  0.00    +0.000 C 
BRANCH  21  22
ATOM     22  C   UNL     1       1.737   2.830  21.753  0.00  0.00    +0.000 C 
ATOM     23  F   UNL     1       0.722   2.398  22.529  0.00  0.00    +0.000 F 
ATOM     24  F   UNL     1       2.677   1.849  21.750  0.00  0.00    +0.000 F 
ATOM     25  F   UNL     1       2.292   3.904  22.358  0.00  0.00    +0.000 F 
ENDBRANCH  21  22
ENDBRANCH   3  21
TORSDOF 4
ENDMDL
MODEL 7
REMARK VINA RESULT:      -7.5      2.678      4.533
REMARK  Name = 
REMARK  4 active torsions:
REMARK  status: ('A' for Active; 'I' for Inactive)
REMARK    1  A    between atoms: C_2  and  C_3
REMARK    2  A    between atoms: N_14  and  C_15
REMARK    3  A    between atoms: N_14  and  C_20
REMARK    4  A    between atoms: C_15  and  C_16
REMARK                            x       y       z     vdW  Elec       q    Type
REMARK                         _______ _______ _______ _____ _____    ______ ____
ROOT
ATOM      1  O   UNL     1       4.190   7.503  17.003  0.00  0.00    +0.000 OA
ATOM      2  C   UNL     1       3.447   6.992  17.846  0.00  0.00    +0.000 C 
ATOM      3  N   UNL     1       3.559   5.643  18.182  0.00  0.00    +0.000 N 
ENDROOT
BRANCH   2   4
ATOM      4  C   UNL     1       2.425   7.856  18.557  0.00  0.00    +0.000 A 
ATOM      5  C   UNL     1       1.604   8.630  17.833  0.00  0.00    +0.000 A 
ATOM      6  C   UNL     1       0.630   9.464  18.529  0.00  0.00    +0.000 A 
ATOM      7  C   UNL     1      -0.189  10.364  17.838  0.00  0.00    +0.000 A 
ATOM      8  C   UNL     1      -1.110  11.158  18.530  0.00  0.00    +0.000 A 
ATOM      9  C   UNL     1      -1.231  11.050  19.916  0.00  0.00    +0.000 A 
ATOM     10  C   UNL     1      -0.428  10.150  20.610  0.00  0.00    +0.000 A 
ATOM     11  C   UNL     1       0.508   9.369  19.918  0.00  0.00    +0.000 A 
ATOM     12  C   UNL     1       1.394   8.464  20.680  0.00  0.00    +0.000 A 
ATOM     13  O   UNL     1       1.263   8.313  21.889  0.00  0.00    +0.000 OA
ATOM     14  O   UNL     1       2.375   7.844  19.970  0.00  0.00    +0.000 OA
ENDBRANCH   2   4
BRANCH   3  15
ATOM     15  C   UNL     1       2.606   4.915  18.937  0.00  0.00    +0.000 A 
ATOM     16  C   UNL     1       2.688   4.884  20.332  0.00  0.00    +0.000 A 
ATOM     17  C   UNL     1       1.801   4.096  21.067  0.00  0.00    +0.000 A 
ATOM     18  C   UNL     1       0.833   3.340  20.407  0.00  0.00    +0.000 A 
ATOM     19  C   UNL     1       0.731   3.392  19.017  0.00  0.00    +0.000 A 
ATOM     20  C   UNL     1       1.605   4.192  18.280  0.00  0.00    +0.000 A 
ENDBRANCH   3  15
BRANCH   3  21
ATOM     21  C   UNL     1       4.621   4.838  17.545  0.00  0.00    +0.000 C 
BRANCH  21  22
ATOM     22  C   UNL     1       5.793   4.440  18.442  0.00  0.00    +0.000 C 
ATOM     23  F   UNL     1       6.145   5.404  19.318  0.00  0.00    +0.000 F 
ATOM     24  F   UNL     1       5.467   3.342  19.172  0.00  0.00    +0.000 F 
ATOM     25  F   UNL     1       6.888   4.120  17.717  0.00  0.00    +0.000 F 
ENDBRANCH  21  22
ENDBRANCH   3  21
TORSDOF 4
ENDMDL
MODEL 8
REMARK VINA RESULT:      -7.5      3.497      6.465
REMARK  Name = 
REMARK  4 active torsions:
REMARK  status: ('A' for Active; 'I' for Inactive)
REMARK    1  A    between atoms: C_2  and  C_3
REMARK    2  A    between atoms: N_14  and  C_15
REMARK    3  A    between atoms: N_14  and  C_20
REMARK    4  A    between atoms: C_15  and  C_16
REMARK                            x       y       z     vdW  Elec       q    Type
REMARK                         _______ _______ _______ _____ _____    ______ ____
ROOT
ATOM      1  O   UNL     1       4.390   2.158  19.833  0.00  0.00    +0.000 OA
ATOM      2  C   UNL     1       4.259   3.317  19.428  0.00  0.00    +0.000 C 
ATOM      3  N   UNL     1       3.362   4.196  20.035  0.00  0.00    +0.000 N 
ENDROOT
BRANCH   2   4
ATOM      4  C   UNL     1       5.120   3.804  18.280  0.00  0.00    +0.000 A 
ATOM      5  C   UNL     1       4.776   3.488  17.023  0.00  0.00    +0.000 A 
ATOM      6  C   UNL     1       5.617   3.955  15.927  0.00  0.00    +0.000 A 
ATOM      7  C   UNL     1       5.366   3.581  14.602  0.00  0.00    +0.000 A 
ATOM      8  C   UNL     1       6.193   4.037  13.569  0.00  0.00    +0.000 A 
ATOM      9  C   UNL     1       7.267   4.882  13.848  0.00  0.00    +0.000 A 
ATOM     10  C   UNL     1       7.517   5.268  15.161  0.00  0.00    +0.000 A 
ATOM     11  C   UNL     1       6.700   4.795  16.198  0.00  0.00    +0.000 A 
ATOM     12  C   UNL     1       7.020   5.167  17.592  0.00  0.00    +0.000 A 
ATOM     13  O   UNL     1       7.922   5.954  17.851  0.00  0.00    +0.000 OA
ATOM     14  O   UNL     1       6.280   4.561  18.561  0.00  0.00    +0.000 OA
ENDBRANCH   2   4
BRANCH   3  15
ATOM     15  C   UNL     1       2.963   5.444  19.498  0.00  0.00    +0.000 A 
ATOM     16  C   UNL     1       2.570   6.483  20.346  0.00  0.00    +0.000 A 
ATOM     17  C   UNL     1       2.094   7.681  19.810  0.00  0.00    +0.000 A 
ATOM     18  C   UNL     1       2.012   7.839  18.427  0.00  0.00    +0.000 A 
ATOM     19  C   UNL     1       2.431   6.814  17.578  0.00  0.00    +0.000 A 
ATOM     20  C   UNL     1       2.924   5.622  18.111  0.00  0.00    +0.000 A 
ENDBRANCH   3  15
BRANCH   3  21
ATOM     21  C   UNL     1       2.599   3.731  21.211  0.00  0.00    +0.000 C 
BRANCH  21  22
ATOM     22  C   UNL     1       1.235   3.106  20.923  0.00  0.00    +0.000 C 
ATOM     23  F   UNL     1       0.695   2.484  21.992  0.00  0.00    +0.000 F 
ATOM     24  F   UNL     1       0.355   4.066  20.538  0.00  0.00    +0.000 F 
ATOM     25  F   UNL     1       1.302   2.208  19.914  0.00  0.00    +0.000 F 
ENDBRANCH  21  22
ENDBRANCH   3  21
TORSDOF 4
ENDMDL
MODEL 9
REMARK VINA RESULT:      -7.5      3.672      6.479
REMARK  Name = 
REMARK  4 active torsions:
REMARK  status: ('A' for Active; 'I' for Inactive)
REMARK    1  A    between atoms: C_2  and  C_3
REMARK    2  A    between atoms: N_14  and  C_15
REMARK    3  A    between atoms: N_14  and  C_20
REMARK    4  A    between atoms: C_15  and  C_16
REMARK                            x       y       z     vdW  Elec       q    Type
REMARK                         _______ _______ _______ _____ _____    ______ ____
ROOT
ATOM      1  O   UNL     1       3.016   1.778  18.700  0.00  0.00    +0.000 OA
ATOM      2  C   UNL     1       3.198   2.998  18.668  0.00  0.00    +0.000 C 
ATOM      3  N   UNL     1       2.399   3.866  19.413  0.00  0.00    +0.000 N 
ENDROOT
BRANCH   2   4
ATOM      4  C   UNL     1       4.337   3.558  17.840  0.00  0.00    +0.000 A 
ATOM      5  C   UNL     1       4.264   3.502  16.502  0.00  0.00    +0.000 A 
ATOM      6  C   UNL     1       5.371   4.036  15.716  0.00  0.00    +0.000 A 
ATOM      7  C   UNL     1       5.398   3.922  14.321  0.00  0.00    +0.000 A 
ATOM      8  C   UNL     1       6.475   4.436  13.591  0.00  0.00    +0.000 A 
ATOM      9  C   UNL     1       7.525   5.082  14.244  0.00  0.00    +0.000 A 
ATOM     10  C   UNL     1       7.501   5.209  15.630  0.00  0.00    +0.000 A 
ATOM     11  C   UNL     1       6.431   4.676  16.362  0.00  0.00    +0.000 A 
ATOM     12  C   UNL     1       6.453   4.768  17.838  0.00  0.00    +0.000 A 
ATOM     13  O   UNL     1       7.337   5.381  18.425  0.00  0.00    +0.000 OA
ATOM     14  O   UNL     1       5.463   4.106  18.496  0.00  0.00    +0.000 OA
ENDBRANCH   2   4
BRANCH   3  15
ATOM     15  C   UNL     1       2.365   5.272  19.253  0.00  0.00    +0.000 A 
ATOM     16  C   UNL     1       2.163   6.103  20.359  0.00  0.00    +0.000 A 
ATOM     17  C   UNL     1       2.042   7.483  20.184  0.00  0.00    +0.000 A 
ATOM     18  C   UNL     1       2.125   8.031  18.905  0.00  0.00    +0.000 A 
ATOM     19  C   UNL     1       2.356   7.208  17.803  0.00  0.00    +0.000 A 
ATOM     20  C   UNL     1       2.494   5.830  17.976  0.00  0.00    +0.000 A 
ENDBRANCH   3  15
BRANCH   3  21
ATOM     21  C   UNL     1       1.353   3.295  20.285  0.00  0.00    +0.000 C 
BRANCH  21  22
ATOM     22  C   UNL     1       1.791   2.911  21.698  0.00  0.00    +0.000 C 
ATOM     23  F   UNL     1       2.284   3.950  22.404  0.00  0.00    +0.000 F 
ATOM     24  F   UNL     1       0.734   2.424  22.397  0.00  0.00    +0.000 F 
ATOM     25  F   UNL     1       2.732   1.940  21.681  0.00  0.00    +0.000 F 
ENDBRANCH  21  22
ENDBRANCH   3  21
TORSDOF 4
ENDMDL
