MODEL 1
REMARK VINA RESULT:      -8.2      0.000      0.000
REMARK  Name = 
REMARK  5 active torsions:
REMARK  status: ('A' for Active; 'I' for Inactive)
REMARK    1  A    between atoms: C_1  and  C_2
REMARK    2  A    between atoms: C_4  and  C_5
REMARK    3  A    between atoms: N_7  and  C_8
REMARK    4  A    between atoms: C_8  and  C_9
REMARK    5  A    between atoms: N_19  and  C_20
REMARK                            x       y       z     vdW  Elec       q    Type
REMARK                         _______ _______ _______ _____ _____    ______ ____
ROOT
ATOM      1  C   UNL     1       8.164   8.278  17.981  0.00  0.00    +0.000 C 
ATOM      2  O   UNL     1       7.641   8.117  16.879  0.00  0.00    +0.000 OA
ATOM      3  N   UNL     1       8.323   7.220  18.867  0.00  0.00    +0.000 N 
ATOM      4  H   UNL     1       8.792   7.375  19.756  0.00  0.00    +0.000 HD
ENDROOT
BRANCH   1   8
ATOM      5  C   UNL     1       9.780  11.767  21.059  0.00  0.00    +0.000 C 
ATOM      6  C   UNL     1       9.479  11.027  19.809  0.00  0.00    +0.000 A 
ATOM      7  N   UNL     1       9.134   9.757  19.758  0.00  0.00    +0.000 NA
ATOM      8  C   UNL     1       8.679   9.587  18.467  0.00  0.00    +0.000 A 
ATOM      9  N   UNL     1       8.725  10.716  17.731  0.00  0.00    +0.000 NA
ATOM     10  N   UNL     1       9.351  11.596  18.550  0.00  0.00    +0.000 N 
BRANCH  10  11
ATOM     11  C   UNL     1       9.767  12.881  18.088  0.00  0.00    +0.000 A 
ATOM     12  C   UNL     1      10.971  13.022  17.376  0.00  0.00    +0.000 A 
ATOM     13  C   UNL     1      11.363  14.281  16.899  0.00  0.00    +0.000 A 
ATOM     14  C   UNL     1      10.579  15.398  17.162  0.00  0.00    +0.000 A 
ATOM     15  F   UNL     1      10.959  16.601  16.715  0.00  0.00    +0.000 F 
ATOM     16  C   UNL     1       9.406  15.283  17.897  0.00  0.00    +0.000 A 
ATOM     17  C   UNL     1       9.000  14.027  18.359  0.00  0.00    +0.000 A 
ENDBRANCH  10  11
ENDBRANCH   1   8
BRANCH   3  18
ATOM     18  C   UNL     1       7.902   5.886  18.513  0.00  0.00    +0.000 C 
BRANCH  18  19
ATOM     19  C   UNL     1       6.437   5.688  18.734  0.00  0.00    +0.000 A 
ATOM     20  N   UNL     1       5.841   5.005  19.694  0.00  0.00    +0.000 NA
ATOM     21  C   UNL     1       4.497   5.033  19.397  0.00  0.00    +0.000 A 
ATOM     22  C   UNL     1       3.419   4.406  20.039  0.00  0.00    +0.000 A 
ATOM     23  C   UNL     1       2.131   4.554  19.505  0.00  0.00    +0.000 A 
ATOM     24  C   UNL     1       1.914   5.351  18.379  0.00  0.00    +0.000 A 
ATOM     25  C   UNL     1       2.974   6.004  17.736  0.00  0.00    +0.000 A 
ATOM     26  C   UNL     1       4.254   5.799  18.262  0.00  0.00    +0.000 A 
ATOM     27  N   UNL     1       5.502   6.203  17.858  0.00  0.00    +0.000 N 
ATOM     28  H   UNL     1       5.702   6.734  17.023  0.00  0.00    +0.000 HD
ENDBRANCH  18  19
ENDBRANCH   3  18
TORSDOF 4
ENDMDL
MODEL 2
REMARK VINA RESULT:      -8.1      6.831      9.459
REMARK  Name = 
REMARK  5 active torsions:
REMARK  status: ('A' for Active; 'I' for Inactive)
REMARK    1  A    between atoms: C_1  and  C_2
REMARK    2  A    between atoms: C_4  and  C_5
REMARK    3  A    between atoms: N_7  and  C_8
REMARK    4  A    between atoms: C_8  and  C_9
REMARK    5  A    between atoms: N_19  and  C_20
REMARK                            x       y       z     vdW  Elec       q    Type
REMARK                         _______ _______ _______ _____ _____    ______ ____
ROOT
ATOM      1  C   UNL     1       1.188   8.390  20.706  0.00  0.00    +0.000 C 
ATOM      2  O   UNL     1       0.773   8.615  21.842  0.00  0.00    +0.000 OA
ATOM      3  N   UNL     1       1.021   9.312  19.680  0.00  0.00    +0.000 N 
ATOM      4  H   UNL     1       1.407   9.115  18.760  0.00  0.00    +0.000 HD
ENDROOT
BRANCH   1   8
ATOM      5  C   UNL     1       2.563   3.661  20.662  0.00  0.00    +0.000 C 
ATOM      6  C   UNL     1       2.388   5.076  20.253  0.00  0.00    +0.000 A 
ATOM      7  N   UNL     1       1.518   5.907  20.791  0.00  0.00    +0.000 NA
ATOM      8  C   UNL     1       1.904   7.144  20.320  0.00  0.00    +0.000 A 
ATOM      9  N   UNL     1       2.989   7.097  19.521  0.00  0.00    +0.000 NA
ATOM     10  N   UNL     1       3.216   5.769  19.381  0.00  0.00    +0.000 N 
BRANCH  10  11
ATOM     11  C   UNL     1       4.181   5.268  18.455  0.00  0.00    +0.000 A 
ATOM     12  C   UNL     1       5.554   5.420  18.713  0.00  0.00    +0.000 A 
ATOM     13  C   UNL     1       6.500   4.903  17.815  0.00  0.00    +0.000 A 
ATOM     14  C   UNL     1       6.078   4.273  16.651  0.00  0.00    +0.000 A 
ATOM     15  F   UNL     1       6.982   3.788  15.789  0.00  0.00    +0.000 F 
ATOM     16  C   UNL     1       4.726   4.148  16.361  0.00  0.00    +0.000 A 
ATOM     17  C   UNL     1       3.778   4.645  17.262  0.00  0.00    +0.000 A 
ENDBRANCH  10  11
ENDBRANCH   1   8
BRANCH   3  18
ATOM     18  C   UNL     1       0.376  10.581  19.919  0.00  0.00    +0.000 C 
BRANCH  18  19
ATOM     19  C   UNL     1      -0.782  10.798  18.999  0.00  0.00    +0.000 A 
ATOM     20  N   UNL     1      -1.911  11.437  19.244  0.00  0.00    +0.000 NA
ATOM     21  C   UNL     1      -2.691  11.266  18.122  0.00  0.00    +0.000 A 
ATOM     22  C   UNL     1      -4.012  11.668  17.873  0.00  0.00    +0.000 A 
ATOM     23  C   UNL     1      -4.607  11.325  16.651  0.00  0.00    +0.000 A 
ATOM     24  C   UNL     1      -3.884  10.634  15.675  0.00  0.00    +0.000 A 
ATOM     25  C   UNL     1      -2.557  10.242  15.896  0.00  0.00    +0.000 A 
ATOM     26  C   UNL     1      -2.005  10.555  17.143  0.00  0.00    +0.000 A 
ATOM     27  N   UNL     1      -0.795  10.269  17.724  0.00  0.00    +0.000 N 
ATOM     28  H   UNL     1      -0.065   9.709  17.307  0.00  0.00    +0.000 HD
ENDBRANCH  18  19
ENDBRANCH   3  18
TORSDOF 4
ENDMDL
MODEL 3
REMARK VINA RESULT:      -8.1      6.643      9.230
REMARK  Name = 
REMARK  5 active torsions:
REMARK  status: ('A' for Active; 'I' for Inactive)
REMARK    1  A    between atoms: C_1  and  C_2
REMARK    2  A    between atoms: C_4  and  C_5
REMARK    3  A    between atoms: N_7  and  C_8
REMARK    4  A    between atoms: C_8  and  C_9
REMARK    5  A    between atoms: N_19  and  C_20
REMARK                            x       y       z     vdW  Elec       q    Type
REMARK                         _______ _______ _______ _____ _____    ______ ____
ROOT
ATOM      1  C   UNL     1       1.451   8.143  20.495  0.00  0.00    +0.000 C 
ATOM      2  O   UNL     1       1.003   8.275  21.633  0.00  0.00    +0.000 OA
ATOM      3  N   UNL     1       1.289   9.134  19.535  0.00  0.00    +0.000 N 
ATOM      4  H   UNL     1       1.702   9.014  18.614  0.00  0.00    +0.000 HD
ENDROOT
BRANCH   1   8
ATOM      5  C   UNL     1       2.944   3.461  20.157  0.00  0.00    +0.000 C 
ATOM      6  C   UNL     1       2.739   4.896  19.841  0.00  0.00    +0.000 A 
ATOM      7  N   UNL     1       1.842   5.668  20.420  0.00  0.00    +0.000 NA
ATOM      8  C   UNL     1       2.202   6.943  20.037  0.00  0.00    +0.000 A 
ATOM      9  N   UNL     1       3.297   6.975  19.251  0.00  0.00    +0.000 NA
ATOM     10  N   UNL     1       3.559   5.664  19.027  0.00  0.00    +0.000 N 
BRANCH  10  11
ATOM     11  C   UNL     1       4.547   5.250  18.083  0.00  0.00    +0.000 A 
ATOM     12  C   UNL     1       4.162   4.628  16.883  0.00  0.00    +0.000 A 
ATOM     13  C   UNL     1       5.133   4.248  15.945  0.00  0.00    +0.000 A 
ATOM     14  C   UNL     1       6.480   4.452  16.219  0.00  0.00    +0.000 A 
ATOM     15  F   UNL     1       7.408   4.079  15.327  0.00  0.00    +0.000 F 
ATOM     16  C   UNL     1       6.880   5.030  17.417  0.00  0.00    +0.000 A 
ATOM     17  C   UNL     1       5.915   5.430  18.347  0.00  0.00    +0.000 A 
ENDBRANCH  10  11
ENDBRANCH   1   8
BRANCH   3  18
ATOM     18  C   UNL     1       0.612  10.369  19.851  0.00  0.00    +0.000 C 
BRANCH  18  19
ATOM     19  C   UNL     1      -0.559  10.606  18.952  0.00  0.00    +0.000 A 
ATOM     20  N   UNL     1      -1.642  11.320  19.194  0.00  0.00    +0.000 NA
ATOM     21  C   UNL     1      -2.464  11.138  18.104  0.00  0.00    +0.000 A 
ATOM     22  C   UNL     1      -3.767  11.602  17.870  0.00  0.00    +0.000 A 
ATOM     23  C   UNL     1      -4.417  11.232  16.684  0.00  0.00    +0.000 A 
ATOM     24  C   UNL     1      -3.765  10.452  15.727  0.00  0.00    +0.000 A 
ATOM     25  C   UNL     1      -2.455   9.996  15.932  0.00  0.00    +0.000 A 
ATOM     26  C   UNL     1      -1.849  10.340  17.145  0.00  0.00    +0.000 A 
ATOM     27  N   UNL     1      -0.641  10.014  17.707  0.00  0.00    +0.000 N 
ATOM     28  H   UNL     1       0.044   9.393  17.301  0.00  0.00    +0.000 HD
ENDBRANCH  18  19
ENDBRANCH   3  18
TORSDOF 4
ENDMDL
MODEL 4
REMARK VINA RESULT:      -8.1      0.937      1.360
REMARK  Name = 
REMARK  5 active torsions:
REMARK  status: ('A' for Active; 'I' for Inactive)
REMARK    1  A    between atoms: C_1  and  C_2
REMARK    2  A    between atoms: C_4  and  C_5
REMARK    3  A    between atoms: N_7  and  C_8
REMARK    4  A    between atoms: C_8  and  C_9
REMARK    5  A    between atoms: N_19  and  C_20
REMARK                            x       y       z     vdW  Elec       q    Type
REMARK                         _______ _______ _______ _____ _____    ______ ____
ROOT
ATOM      1  C   UNL     1       7.778   7.845  17.678  0.00  0.00    +0.000 C 
ATOM      2  O   UNL     1       7.172   7.786  16.609  0.00  0.00    +0.000 OA
ATOM      3  N   UNL     1       7.963   6.718  18.468  0.00  0.00    +0.000 N 
ATOM      4  H   UNL     1       8.499   6.790  19.329  0.00  0.00    +0.000 HD
ENDROOT
BRANCH   1   8
ATOM      5  C   UNL     1       9.599  11.086  20.909  0.00  0.00    +0.000 C 
ATOM      6  C   UNL     1       9.254  10.424  19.628  0.00  0.00    +0.000 A 
ATOM      7  N   UNL     1       8.834   9.180  19.519  0.00  0.00    +0.000 NA
ATOM      8  C   UNL     1       8.370   9.097  18.223  0.00  0.00    +0.000 A 
ATOM      9  N   UNL     1       8.483  10.254  17.540  0.00  0.00    +0.000 NA
ATOM     10  N   UNL     1       9.161  11.057  18.396  0.00  0.00    +0.000 N 
BRANCH  10  11
ATOM     11  C   UNL     1       9.653  12.334  17.992  0.00  0.00    +0.000 A 
ATOM     12  C   UNL     1      10.909  12.445  17.372  0.00  0.00    +0.000 A 
ATOM     13  C   UNL     1      11.378  13.699  16.951  0.00  0.00    +0.000 A 
ATOM     14  C   UNL     1      10.615  14.838  17.181  0.00  0.00    +0.000 A 
ATOM     15  F   UNL     1      11.068  16.035  16.788  0.00  0.00    +0.000 F 
ATOM     16  C   UNL     1       9.390  14.751  17.828  0.00  0.00    +0.000 A 
ATOM     17  C   UNL     1       8.908  13.502  18.232  0.00  0.00    +0.000 A 
ENDBRANCH  10  11
ENDBRANCH   1   8
BRANCH   3  18
ATOM     18  C   UNL     1       7.473   5.427  18.046  0.00  0.00    +0.000 C 
BRANCH  18  19
ATOM     19  C   UNL     1       6.106   5.149  18.583  0.00  0.00    +0.000 A 
ATOM     20  N   UNL     1       5.134   6.008  18.827  0.00  0.00    +0.000 NA
ATOM     21  C   UNL     1       4.124   5.277  19.412  0.00  0.00    +0.000 A 
ATOM     22  C   UNL     1       2.895   5.700  19.940  0.00  0.00    +0.000 A 
ATOM     23  C   UNL     1       2.050   4.753  20.535  0.00  0.00    +0.000 A 
ATOM     24  C   UNL     1       2.401   3.401  20.562  0.00  0.00    +0.000 A 
ATOM     25  C   UNL     1       3.614   2.955  20.021  0.00  0.00    +0.000 A 
ATOM     26  C   UNL     1       4.460   3.929  19.477  0.00  0.00    +0.000 A 
ATOM     27  N   UNL     1       5.723   3.873  18.946  0.00  0.00    +0.000 N 
ATOM     28  H   UNL     1       6.297   3.044  18.890  0.00  0.00    +0.000 HD
ENDBRANCH  18  19
ENDBRANCH   3  18
TORSDOF 4
ENDMDL
MODEL 5
REMARK VINA RESULT:      -8.1      6.895      9.983
REMARK  Name = 
REMARK  5 active torsions:
REMARK  status: ('A' for Active; 'I' for Inactive)
REMARK    1  A    between atoms: C_1  and  C_2
REMARK    2  A    between atoms: C_4  and  C_5
REMARK    3  A    between atoms: N_7  and  C_8
REMARK    4  A    between atoms: C_8  and  C_9
REMARK    5  A    between atoms: N_19  and  C_20
REMARK                            x       y       z     vdW  Elec       q    Type
REMARK                         _______ _______ _______ _____ _____    ______ ____
ROOT
ATOM      1  C   UNL     1       2.100   9.288  18.264  0.00  0.00    +0.000 C 
ATOM      2  O   UNL     1       2.294  10.373  17.717  0.00  0.00    +0.000 OA
ATOM      3  N   UNL     1       1.193   9.156  19.307  0.00  0.00    +0.000 N 
ATOM      4  H   UNL     1       1.026   8.240  19.715  0.00  0.00    +0.000 HD
ENDROOT
BRANCH   1   8
ATOM      5  C   UNL     1       5.202   6.229  15.966  0.00  0.00    +0.000 C 
ATOM      6  C   UNL     1       4.221   6.760  16.942  0.00  0.00    +0.000 A 
ATOM      7  N   UNL     1       3.926   8.037  17.086  0.00  0.00    +0.000 NA
ATOM      8  C   UNL     1       2.791   8.030  17.870  0.00  0.00    +0.000 A 
ATOM      9  N   UNL     1       2.377   6.790  18.201  0.00  0.00    +0.000 NA
ATOM     10  N   UNL     1       3.360   5.993  17.715  0.00  0.00    +0.000 N 
BRANCH  10  11
ATOM     11  C   UNL     1       3.405   4.597  18.009  0.00  0.00    +0.000 A 
ATOM     12  C   UNL     1       2.536   3.707  17.354  0.00  0.00    +0.000 A 
ATOM     13  C   UNL     1       2.602   2.333  17.625  0.00  0.00    +0.000 A 
ATOM     14  C   UNL     1       3.500   1.854  18.570  0.00  0.00    +0.000 A 
ATOM     15  F   UNL     1       3.556   0.542  18.836  0.00  0.00    +0.000 F 
ATOM     16  C   UNL     1       4.338   2.724  19.255  0.00  0.00    +0.000 A 
ATOM     17  C   UNL     1       4.292   4.093  18.975  0.00  0.00    +0.000 A 
ENDBRANCH  10  11
ENDBRANCH   1   8
BRANCH   3  18
ATOM     18  C   UNL     1       0.425  10.287  19.770  0.00  0.00    +0.000 C 
BRANCH  18  19
ATOM     19  C   UNL     1      -0.743  10.568  18.879  0.00  0.00    +0.000 A 
ATOM     20  N   UNL     1      -1.842  11.242  19.162  0.00  0.00    +0.000 NA
ATOM     21  C   UNL     1      -2.650  11.125  18.053  0.00  0.00    +0.000 A 
ATOM     22  C   UNL     1      -3.960  11.581  17.841  0.00  0.00    +0.000 A 
ATOM     23  C   UNL     1      -4.592  11.287  16.625  0.00  0.00    +0.000 A 
ATOM     24  C   UNL     1      -3.916  10.592  15.619  0.00  0.00    +0.000 A 
ATOM     25  C   UNL     1      -2.601  10.146  15.803  0.00  0.00    +0.000 A 
ATOM     26  C   UNL     1      -2.011  10.411  17.045  0.00  0.00    +0.000 A 
ATOM     27  N   UNL     1      -0.802  10.068  17.594  0.00  0.00    +0.000 N 
ATOM     28  H   UNL     1      -0.102   9.490  17.150  0.00  0.00    +0.000 HD
ENDBRANCH  18  19
ENDBRANCH   3  18
TORSDOF 4
ENDMDL
MODEL 6
REMARK VINA RESULT:      -8.0      6.554      8.367
REMARK  Name = 
REMARK  5 active torsions:
REMARK  status: ('A' for Active; 'I' for Inactive)
REMARK    1  A    between atoms: C_1  and  C_2
REMARK    2  A    between atoms: C_4  and  C_5
REMARK    3  A    between atoms: N_7  and  C_8
REMARK    4  A    between atoms: C_8  and  C_9
REMARK    5  A    between atoms: N_19  and  C_20
REMARK                            x       y       z     vdW  Elec       q    Type
REMARK                         _______ _______ _______ _____ _____    ______ ____
ROOT
ATOM      1  C   UNL     1       3.555   5.572  18.247  0.00  0.00    +0.000 C 
ATOM      2  O   UNL     1       2.944   4.551  17.936  0.00  0.00    +0.000 OA
ATOM      3  N   UNL     1       4.942   5.592  18.318  0.00  0.00    +0.000 N 
ATOM      4  H   UNL     1       5.421   6.460  18.542  0.00  0.00    +0.000 HD
ENDROOT
BRANCH   1   8
ATOM      5  C   UNL     1       2.016  10.228  17.780  0.00  0.00    +0.000 C 
ATOM      6  C   UNL     1       2.150   8.837  18.276  0.00  0.00    +0.000 A 
ATOM      7  N   UNL     1       2.758   7.866  17.624  0.00  0.00    +0.000 NA
ATOM      8  C   UNL     1       2.891   6.866  18.565  0.00  0.00    +0.000 A 
ATOM      9  N   UNL     1       2.393   7.198  19.773  0.00  0.00    +0.000 NA
ATOM     10  N   UNL     1       1.812   8.402  19.550  0.00  0.00    +0.000 N 
BRANCH  10  11
ATOM     11  C   UNL     1       1.002   9.035  20.540  0.00  0.00    +0.000 A 
ATOM     12  C   UNL     1       1.148   8.697  21.897  0.00  0.00    +0.000 A 
ATOM     13  C   UNL     1       0.370   9.341  22.870  0.00  0.00    +0.000 A 
ATOM     14  C   UNL     1      -0.573  10.288  22.489  0.00  0.00    +0.000 A 
ATOM     15  F   UNL     1      -1.323  10.896  23.418  0.00  0.00    +0.000 F 
ATOM     16  C   UNL     1      -0.758  10.606  21.150  0.00  0.00    +0.000 A 
ATOM     17  C   UNL     1       0.029   9.982  20.177  0.00  0.00    +0.000 A 
ENDBRANCH  10  11
ENDBRANCH   1   8
BRANCH   3  18
ATOM     18  C   UNL     1       5.718   4.418  18.001  0.00  0.00    +0.000 C 
BRANCH  18  19
ATOM     19  C   UNL     1       6.188   4.429  16.582  0.00  0.00    +0.000 A 
ATOM     20  N   UNL     1       7.149   5.158  16.046  0.00  0.00    +0.000 NA
ATOM     21  C   UNL     1       7.121   4.884  14.697  0.00  0.00    +0.000 A 
ATOM     22  C   UNL     1       7.872   5.438  13.649  0.00  0.00    +0.000 A 
ATOM     23  C   UNL     1       7.617   5.019  12.336  0.00  0.00    +0.000 A 
ATOM     24  C   UNL     1       6.664   4.031  12.075  0.00  0.00    +0.000 A 
ATOM     25  C   UNL     1       5.919   3.450  13.109  0.00  0.00    +0.000 A 
ATOM     26  C   UNL     1       6.160   3.922  14.405  0.00  0.00    +0.000 A 
ATOM     27  N   UNL     1       5.581   3.650  15.618  0.00  0.00    +0.000 N 
ATOM     28  H   UNL     1       4.797   3.029  15.765  0.00  0.00    +0.000 HD
ENDBRANCH  18  19
ENDBRANCH   3  18
TORSDOF 4
ENDMDL
MODEL 7
REMARK VINA RESULT:      -8.0      0.703      1.184
REMARK  Name = 
REMARK  5 active torsions:
REMARK  status: ('A' for Active; 'I' for Inactive)
REMARK    1  A    between atoms: C_1  and  C_2
REMARK    2  A    between atoms: C_4  and  C_5
REMARK    3  A    between atoms: N_7  and  C_8
REMARK    4  A    between atoms: C_8  and  C_9
REMARK    5  A    between atoms: N_19  and  C_20
REMARK                            x       y       z     vdW  Elec       q    Type
REMARK                         _______ _______ _______ _____ _____    ______ ____
ROOT
ATOM      1  C   UNL     1       7.842   7.909  17.796  0.00  0.00    +0.000 C 
ATOM      2  O   UNL     1       7.232   7.818  16.732  0.00  0.00    +0.000 OA
ATOM      3  N   UNL     1       8.051   6.800  18.606  0.00  0.00    +0.000 N 
ATOM      4  H   UNL     1       8.591   6.897  19.462  0.00  0.00    +0.000 HD
ENDROOT
BRANCH   1   8
ATOM      5  C   UNL     1       9.720  11.207  20.936  0.00  0.00    +0.000 C 
ATOM      6  C   UNL     1       9.329  10.536  19.672  0.00  0.00    +0.000 A 
ATOM      7  N   UNL     1       8.950   9.277  19.581  0.00  0.00    +0.000 NA
ATOM      8  C   UNL     1       8.417   9.180  18.313  0.00  0.00    +0.000 A 
ATOM      9  N   UNL     1       8.449  10.343  17.630  0.00  0.00    +0.000 NA
ATOM     10  N   UNL     1       9.143  11.168  18.451  0.00  0.00    +0.000 N 
BRANCH  10  11
ATOM     11  C   UNL     1       9.564  12.464  18.026  0.00  0.00    +0.000 A 
ATOM     12  C   UNL     1       8.753  13.586  18.268  0.00  0.00    +0.000 A 
ATOM     13  C   UNL     1       9.182  14.862  17.875  0.00  0.00    +0.000 A 
ATOM     14  C   UNL     1      10.393  15.013  17.211  0.00  0.00    +0.000 A 
ATOM     15  F   UNL     1      10.797  16.231  16.826  0.00  0.00    +0.000 F 
ATOM     16  C   UNL     1      11.189  13.910  16.929  0.00  0.00    +0.000 A 
ATOM     17  C   UNL     1      10.776  12.638  17.337  0.00  0.00    +0.000 A 
ENDBRANCH  10  11
ENDBRANCH   1   8
BRANCH   3  18
ATOM     18  C   UNL     1       7.580   5.493  18.212  0.00  0.00    +0.000 C 
BRANCH  18  19
ATOM     19  C   UNL     1       6.113   5.335  18.454  0.00  0.00    +0.000 A 
ATOM     20  N   UNL     1       5.447   5.518  19.579  0.00  0.00    +0.000 NA
ATOM     21  C   UNL     1       4.150   5.141  19.314  0.00  0.00    +0.000 A 
ATOM     22  C   UNL     1       3.041   5.063  20.170  0.00  0.00    +0.000 A 
ATOM     23  C   UNL     1       1.822   4.595  19.660  0.00  0.00    +0.000 A 
ATOM     24  C   UNL     1       1.695   4.258  18.310  0.00  0.00    +0.000 A 
ATOM     25  C   UNL     1       2.785   4.350  17.434  0.00  0.00    +0.000 A 
ATOM     26  C   UNL     1       4.002   4.773  17.981  0.00  0.00    +0.000 A 
ATOM     27  N   UNL     1       5.263   4.903  17.457  0.00  0.00    +0.000 N 
ATOM     28  H   UNL     1       5.531   4.661  16.513  0.00  0.00    +0.000 HD
ENDBRANCH  18  19
ENDBRANCH   3  18
TORSDOF 4
ENDMDL
MODEL 8
REMARK VINA RESULT:      -7.9      6.604      8.447
REMARK  Name = 
REMARK  5 active torsions:
REMARK  status: ('A' for Active; 'I' for Inactive)
REMARK    1  A    between atoms: C_1  and  C_2
REMARK    2  A    between atoms: C_4  and  C_5
REMARK    3  A    between atoms: N_7  and  C_8
REMARK    4  A    between atoms: C_8  and  C_9
REMARK    5  A    between atoms: N_19  and  C_20
REMARK                            x       y       z     vdW  Elec       q    Type
REMARK                         _______ _______ _______ _____ _____    ______ ____
ROOT
ATOM      1  C   UNL     1       3.647   5.759  18.522  0.00  0.00    +0.000 C 
ATOM      2  O   UNL     1       3.157   4.633  18.602  0.00  0.00    +0.000 OA
ATOM      3  N   UNL     1       4.974   5.946  18.159  0.00  0.00    +0.000 N 
ATOM      4  H   UNL     1       5.341   6.890  18.066  0.00  0.00    +0.000 HD
ENDROOT
BRANCH   1   8
ATOM      5  C   UNL     1       1.715  10.240  17.855  0.00  0.00    +0.000 C 
ATOM      6  C   UNL     1       1.977   8.894  18.420  0.00  0.00    +0.000 A 
ATOM      7  N   UNL     1       2.646   7.942  17.803  0.00  0.00    +0.000 NA
ATOM      8  C   UNL     1       2.886   7.010  18.790  0.00  0.00    +0.000 A 
ATOM      9  N   UNL     1       2.394   7.367  19.994  0.00  0.00    +0.000 NA
ATOM     10  N   UNL     1       1.709   8.505  19.725  0.00  0.00    +0.000 N 
BRANCH  10  11
ATOM     11  C   UNL     1       0.875   9.124  20.704  0.00  0.00    +0.000 A 
ATOM     12  C   UNL     1       1.005   8.784  22.062  0.00  0.00    +0.000 A 
ATOM     13  C   UNL     1       0.204   9.415  23.025  0.00  0.00    +0.000 A 
ATOM     14  C   UNL     1      -0.746  10.350  22.633  0.00  0.00    +0.000 A 
ATOM     15  F   UNL     1      -1.518  10.945  23.552  0.00  0.00    +0.000 F 
ATOM     16  C   UNL     1      -0.915  10.669  21.292  0.00  0.00    +0.000 A 
ATOM     17  C   UNL     1      -0.105  10.058  20.329  0.00  0.00    +0.000 A 
ENDBRANCH  10  11
ENDBRANCH   1   8
BRANCH   3  18
ATOM     18  C   UNL     1       5.821   4.823  17.835  0.00  0.00    +0.000 C 
BRANCH  18  19
ATOM     19  C   UNL     1       6.012   4.679  16.360  0.00  0.00    +0.000 A 
ATOM     20  N   UNL     1       5.329   3.925  15.518  0.00  0.00    +0.000 NA
ATOM     21  C   UNL     1       5.958   4.057  14.300  0.00  0.00    +0.000 A 
ATOM     22  C   UNL     1       5.697   3.419  13.078  0.00  0.00    +0.000 A 
ATOM     23  C   UNL     1       6.525   3.693  11.980  0.00  0.00    +0.000 A 
ATOM     24  C   UNL     1       7.564   4.620  12.083  0.00  0.00    +0.000 A 
ATOM     25  C   UNL     1       7.827   5.284  13.289  0.00  0.00    +0.000 A 
ATOM     26  C   UNL     1       7.016   4.955  14.381  0.00  0.00    +0.000 A 
ATOM     27  N   UNL     1       7.031   5.336  15.699  0.00  0.00    +0.000 N 
ATOM     28  H   UNL     1       7.715   5.946  16.124  0.00  0.00    +0.000 HD
ENDBRANCH  18  19
ENDBRANCH   3  18
TORSDOF 4
ENDMDL
MODEL 9
REMARK VINA RESULT:      -7.9      6.320      9.003
REMARK  Name = 
REMARK  5 active torsions:
REMARK  status: ('A' for Active; 'I' for Inactive)
REMARK    1  A    between atoms: C_1  and  C_2
REMARK    2  A    between atoms: C_4  and  C_5
REMARK    3  A    between atoms: N_7  and  C_8
REMARK    4  A    between atoms: C_8  and  C_9
REMARK    5  A    between atoms: N_19  and  C_20
REMARK                            x       y       z     vdW  Elec       q    Type
REMARK                         _______ _______ _______ _____ _____    ______ ____
ROOT
ATOM      1  C   UNL     1       1.642   7.869  20.149  0.00  0.00    +0.000 C 
ATOM      2  O   UNL     1       1.051   7.807  21.226  0.00  0.00    +0.000 OA
ATOM      3  N   UNL     1       1.524   8.980  19.324  0.00  0.00    +0.000 N 
ATOM      4  H   UNL     1       2.053   9.020  18.456  0.00  0.00    +0.000 HD
ENDROOT
BRANCH   1   8
ATOM      5  C   UNL     1       3.882   3.501  19.751  0.00  0.00    +0.000 C 
ATOM      6  C   UNL     1       3.391   4.861  19.424  0.00  0.00    +0.000 A 
ATOM      7  N   UNL     1       2.450   5.497  20.093  0.00  0.00    +0.000 NA
ATOM      8  C   UNL     1       2.531   6.794  19.631  0.00  0.00    +0.000 A 
ATOM      9  N   UNL     1       3.498   6.974  18.709  0.00  0.00    +0.000 NA
ATOM     10  N   UNL     1       3.957   5.717  18.490  0.00  0.00    +0.000 N 
BRANCH  10  11
ATOM     11  C   UNL     1       4.878   5.432  17.438  0.00  0.00    +0.000 A 
ATOM     12  C   UNL     1       6.147   6.037  17.424  0.00  0.00    +0.000 A 
ATOM     13  C   UNL     1       7.061   5.732  16.404  0.00  0.00    +0.000 A 
ATOM     14  C   UNL     1       6.698   4.860  15.385  0.00  0.00    +0.000 A 
ATOM     15  F   UNL     1       7.567   4.578  14.406  0.00  0.00    +0.000 F 
ATOM     16  C   UNL     1       5.435   4.284  15.362  0.00  0.00    +0.000 A 
ATOM     17  C   UNL     1       4.526   4.568  16.387  0.00  0.00    +0.000 A 
ENDBRANCH  10  11
ENDBRANCH   1   8
BRANCH   3  18
ATOM     18  C   UNL     1       0.723  10.115  19.716  0.00  0.00    +0.000 C 
BRANCH  18  19
ATOM     19  C   UNL     1      -0.495  10.257  18.862  0.00  0.00    +0.000 A 
ATOM     20  N   UNL     1      -0.703   9.778  17.649  0.00  0.00    +0.000 NA
ATOM     21  C   UNL     1      -1.926  10.272  17.254  0.00  0.00    +0.000 A 
ATOM     22  C   UNL     1      -2.597  10.142  16.029  0.00  0.00    +0.000 A 
ATOM     23  C   UNL     1      -3.828  10.790  15.857  0.00  0.00    +0.000 A 
ATOM     24  C   UNL     1      -4.403  11.517  16.902  0.00  0.00    +0.000 A 
ATOM     25  C   UNL     1      -3.759  11.641  18.140  0.00  0.00    +0.000 A 
ATOM     26  C   UNL     1      -2.509  11.024  18.268  0.00  0.00    +0.000 A 
ATOM     27  N   UNL     1      -1.581  11.001  19.278  0.00  0.00    +0.000 N 
ATOM     28  H   UNL     1      -1.658  11.500  20.153  0.00  0.00    +0.000 HD
ENDBRANCH  18  19
ENDBRANCH   3  18
TORSDOF 4
ENDMDL
