MODEL 1
REMARK VINA RESULT:      -8.9      0.000      0.000
REMARK  Name = 
REMARK  2 active torsions:
REMARK  status: ('A' for Active; 'I' for Inactive)
REMARK    1  A    between atoms: C_7  and  C_8
REMARK    2  A    between atoms: N_10  and  C_11
REMARK                            x       y       z     vdW  Elec       q    Type
REMARK                         _______ _______ _______ _____ _____    ______ ____
ROOT
ATOM      1  C   UNL     1       1.484   9.277  18.184  0.00  0.00    +0.000 C 
ATOM      2  O   UNL     1       2.248   9.716  17.325  0.00  0.00    +0.000 OA
ATOM      3  N   UNL     1       1.639   8.044  18.808  0.00  0.00    +0.000 N 
ATOM      4  H   UNL     1       0.868   7.646  19.327  0.00  0.00    +0.000 HD
ENDROOT
BRANCH   1  11
ATOM      5  O   UNL     1      -5.463  12.607  18.867  0.00  0.00    +0.000 OA
ATOM      6  C   UNL     1      -4.462  11.935  18.640  0.00  0.00    +0.000 C 
ATOM      7  C   UNL     1      -4.513  10.652  17.838  0.00  0.00    +0.000 C 
ATOM      8  C   UNL     1      -3.233  10.437  17.049  0.00  0.00    +0.000 C 
ATOM      9  C   UNL     1      -2.034  10.610  17.940  0.00  0.00    +0.000 A 
ATOM     10  C   UNL     1      -0.848   9.910  17.704  0.00  0.00    +0.000 A 
ATOM     11  C   UNL     1       0.295  10.117  18.499  0.00  0.00    +0.000 A 
ATOM     12  C   UNL     1       0.253  11.087  19.506  0.00  0.00    +0.000 A 
ATOM     13  C   UNL     1      -0.931  11.806  19.734  0.00  0.00    +0.000 A 
ATOM     14  C   UNL     1      -2.069  11.551  18.965  0.00  0.00    +0.000 A 
ATOM     15  N   UNL     1      -3.252  12.247  19.212  0.00  0.00    +0.000 N 
ATOM     16  H   UNL     1      -3.266  13.029  19.853  0.00  0.00    +0.000 HD
ENDBRANCH   1  11
BRANCH   3  17
ATOM     17  C   UNL     1       2.749   7.173  18.590  0.00  0.00    +0.000 A 
ATOM     18  C   UNL     1       3.677   7.411  17.571  0.00  0.00    +0.000 A 
ATOM     19  C   UNL     1       4.696   6.507  17.295  0.00  0.00    +0.000 A 
ATOM     20  C   UNL     1       4.862   5.374  18.083  0.00  0.00    +0.000 A 
ATOM     21  C   UNL     1       4.005   5.153  19.161  0.00  0.00    +0.000 A 
ATOM     22  C   UNL     1       2.942   6.038  19.399  0.00  0.00    +0.000 A 
ATOM     23 CL   UNL     1       1.844   5.664  20.687  0.00  0.00    +0.000 Cl
ATOM     24  O   UNL     1       5.891   4.495  17.887  0.00  0.00    +0.000 OA
ATOM     25  C   UNL     1       5.796   3.834  16.620  0.00  0.00    +0.000 C 
ATOM     26  C   UNL     1       6.309   4.677  15.457  0.00  0.00    +0.000 C 
ATOM     27  C   UNL     1       5.425   5.885  15.202  0.00  0.00    +0.000 C 
ATOM     28  O   UNL     1       5.538   6.829  16.268  0.00  0.00    +0.000 OA
ENDBRANCH   3  17
TORSDOF 2
ENDMDL
MODEL 2
REMARK VINA RESULT:      -8.9      2.497      3.060
REMARK  Name = 
REMARK  2 active torsions:
REMARK  status: ('A' for Active; 'I' for Inactive)
REMARK    1  A    between atoms: C_7  and  C_8
REMARK    2  A    between atoms: N_10  and  C_11
REMARK                            x       y       z     vdW  Elec       q    Type
REMARK                         _______ _______ _______ _____ _____    ______ ____
ROOT
ATOM      1  C   UNL     1       2.256   8.273  18.160  0.00  0.00    +0.000 C 
ATOM      2  O   UNL     1       2.593   8.674  17.046  0.00  0.00    +0.000 OA
ATOM      3  N   UNL     1       2.587   7.024  18.672  0.00  0.00    +0.000 N 
ATOM      4  H   UNL     1       2.097   6.670  19.483  0.00  0.00    +0.000 HD
ENDROOT
BRANCH   1  11
ATOM      5  O   UNL     1      -1.999  11.970  23.456  0.00  0.00    +0.000 OA
ATOM      6  C   UNL     1      -1.278  11.249  22.774  0.00  0.00    +0.000 C 
ATOM      7  C   UNL     1      -0.546  10.056  23.351  0.00  0.00    +0.000 C 
ATOM      8  C   UNL     1      -0.402   8.942  22.328  0.00  0.00    +0.000 C 
ATOM      9  C   UNL     1       0.141   9.486  21.036  0.00  0.00    +0.000 A 
ATOM     10  C   UNL     1       0.926   8.698  20.191  0.00  0.00    +0.000 A 
ATOM     11  C   UNL     1       1.383   9.186  18.951  0.00  0.00    +0.000 A 
ATOM     12  C   UNL     1       0.990  10.463  18.538  0.00  0.00    +0.000 A 
ATOM     13  C   UNL     1       0.185  11.250  19.376  0.00  0.00    +0.000 A 
ATOM     14  C   UNL     1      -0.218  10.767  20.624  0.00  0.00    +0.000 A 
ATOM     15  N   UNL     1      -0.995  11.561  21.466  0.00  0.00    +0.000 N 
ATOM     16  H   UNL     1      -1.384  12.436  21.137  0.00  0.00    +0.000 HD
ENDBRANCH   1  11
BRANCH   3  17
ATOM     17  C   UNL     1       3.429   6.085  18.003  0.00  0.00    +0.000 A 
ATOM     18  C   UNL     1       4.705   6.437  17.554  0.00  0.00    +0.000 A 
ATOM     19  C   UNL     1       5.480   5.552  16.813  0.00  0.00    +0.000 A 
ATOM     20  C   UNL     1       5.029   4.261  16.565  0.00  0.00    +0.000 A 
ATOM     21  C   UNL     1       3.797   3.852  17.074  0.00  0.00    +0.000 A 
ATOM     22  C   UNL     1       2.993   4.766  17.772  0.00  0.00    +0.000 A 
ATOM     23 CL   UNL     1       1.426   4.240  18.293  0.00  0.00    +0.000 Cl
ATOM     24  O   UNL     1       5.789   3.340  15.899  0.00  0.00    +0.000 OA
ATOM     25  C   UNL     1       6.025   3.724  14.539  0.00  0.00    +0.000 C 
ATOM     26  C   UNL     1       7.147   4.745  14.383  0.00  0.00    +0.000 C 
ATOM     27  C   UNL     1       6.774   6.089  14.987  0.00  0.00    +0.000 C 
ATOM     28  O   UNL     1       6.706   6.003  16.411  0.00  0.00    +0.000 OA
ENDBRANCH   3  17
TORSDOF 2
ENDMDL
MODEL 3
REMARK VINA RESULT:      -8.8      2.431      2.974
REMARK  Name = 
REMARK  2 active torsions:
REMARK  status: ('A' for Active; 'I' for Inactive)
REMARK    1  A    between atoms: C_7  and  C_8
REMARK    2  A    between atoms: N_10  and  C_11
REMARK                            x       y       z     vdW  Elec       q    Type
REMARK                         _______ _______ _______ _____ _____    ______ ____
ROOT
ATOM      1  C   UNL     1       2.160   7.727  19.146  0.00  0.00    +0.000 C 
ATOM      2  O   UNL     1       2.202   8.176  18.001  0.00  0.00    +0.000 OA
ATOM      3  N   UNL     1       2.710   6.508  19.525  0.00  0.00    +0.000 N 
ATOM      4  H   UNL     1       2.448   6.095  20.411  0.00  0.00    +0.000 HD
ENDROOT
BRANCH   1  11
ATOM      5  O   UNL     1      -2.304  12.707  23.030  0.00  0.00    +0.000 OA
ATOM      6  C   UNL     1      -1.674  12.011  22.240  0.00  0.00    +0.000 C 
ATOM      7  C   UNL     1      -1.830  12.144  20.740  0.00  0.00    +0.000 C 
ATOM      8  C   UNL     1      -0.532  11.836  20.016  0.00  0.00    +0.000 C 
ATOM      9  C   UNL     1       0.046  10.537  20.505  0.00  0.00    +0.000 A 
ATOM     10  C   UNL     1       0.814   9.724  19.669  0.00  0.00    +0.000 A 
ATOM     11  C   UNL     1       1.407   8.538  20.144  0.00  0.00    +0.000 A 
ATOM     12  C   UNL     1       1.269   8.205  21.495  0.00  0.00    +0.000 A 
ATOM     13  C   UNL     1       0.514   9.030  22.343  0.00  0.00    +0.000 A 
ATOM     14  C   UNL     1      -0.108  10.177  21.842  0.00  0.00    +0.000 A 
ATOM     15  N   UNL     1      -0.880  10.980  22.680  0.00  0.00    +0.000 N 
ATOM     16  H   UNL     1      -0.894  10.819  23.679  0.00  0.00    +0.000 HD
ENDBRANCH   1  11
BRANCH   3  17
ATOM     17  C   UNL     1       3.463   5.666  18.653  0.00  0.00    +0.000 A 
ATOM     18  C   UNL     1       4.806   5.927  18.364  0.00  0.00    +0.000 A 
ATOM     19  C   UNL     1       5.507   5.167  17.435  0.00  0.00    +0.000 A 
ATOM     20  C   UNL     1       4.904   4.073  16.824  0.00  0.00    +0.000 A 
ATOM     21  C   UNL     1       3.592   3.735  17.157  0.00  0.00    +0.000 A 
ATOM     22  C   UNL     1       2.870   4.540  18.051  0.00  0.00    +0.000 A 
ATOM     23 CL   UNL     1       1.212   4.138  18.351  0.00  0.00    +0.000 Cl
ATOM     24  O   UNL     1       5.579   3.260  15.956  0.00  0.00    +0.000 OA
ATOM     25  C   UNL     1       5.967   3.955  14.765  0.00  0.00    +0.000 C 
ATOM     26  C   UNL     1       7.226   4.798  14.937  0.00  0.00    +0.000 C 
ATOM     27  C   UNL     1       6.996   5.971  15.875  0.00  0.00    +0.000 C 
ATOM     28  O   UNL     1       6.810   5.517  17.216  0.00  0.00    +0.000 OA
ENDBRANCH   3  17
TORSDOF 2
ENDMDL
MODEL 4
REMARK VINA RESULT:      -8.8      2.829      8.939
REMARK  Name = 
REMARK  2 active torsions:
REMARK  status: ('A' for Active; 'I' for Inactive)
REMARK    1  A    between atoms: C_7  and  C_8
REMARK    2  A    between atoms: N_10  and  C_11
REMARK                            x       y       z     vdW  Elec       q    Type
REMARK                         _______ _______ _______ _____ _____    ______ ____
ROOT
ATOM      1  C   UNL     1       1.897   8.907  18.251  0.00  0.00    +0.000 C 
ATOM      2  O   UNL     1       2.311   9.787  17.495  0.00  0.00    +0.000 OA
ATOM      3  N   UNL     1       0.949   9.116  19.244  0.00  0.00    +0.000 N 
ATOM      4  H   UNL     1       0.822   8.421  19.969  0.00  0.00    +0.000 HD
ENDROOT
BRANCH   1  11
ATOM      5  O   UNL     1       3.722   1.398  17.932  0.00  0.00    +0.000 OA
ATOM      6  C   UNL     1       3.237   2.520  18.033  0.00  0.00    +0.000 C 
ATOM      7  C   UNL     1       1.772   2.747  18.340  0.00  0.00    +0.000 C 
ATOM      8  C   UNL     1       1.562   4.012  19.153  0.00  0.00    +0.000 C 
ATOM      9  C   UNL     1       2.288   5.167  18.521  0.00  0.00    +0.000 A 
ATOM     10  C   UNL     1       1.815   6.475  18.642  0.00  0.00    +0.000 A 
ATOM     11  C   UNL     1       2.527   7.565  18.103  0.00  0.00    +0.000 A 
ATOM     12  C   UNL     1       3.761   7.330  17.488  0.00  0.00    +0.000 A 
ATOM     13  C   UNL     1       4.249   6.019  17.382  0.00  0.00    +0.000 A 
ATOM     14  C   UNL     1       3.504   4.946  17.879  0.00  0.00    +0.000 A 
ATOM     15  N   UNL     1       3.979   3.642  17.747  0.00  0.00    +0.000 N 
ATOM     16  H   UNL     1       4.918   3.466  17.412  0.00  0.00    +0.000 HD
ENDBRANCH   1  11
BRANCH   3  17
ATOM     17  C   UNL     1       0.275  10.357  19.457  0.00  0.00    +0.000 A 
ATOM     18  C   UNL     1       0.620  11.205  20.513  0.00  0.00    +0.000 A 
ATOM     19  C   UNL     1      -0.106  12.361  20.779  0.00  0.00    +0.000 A 
ATOM     20  C   UNL     1      -1.152  12.741  19.946  0.00  0.00    +0.000 A 
ATOM     21  C   UNL     1      -1.464  11.960  18.833  0.00  0.00    +0.000 A 
ATOM     22  C   UNL     1      -0.767  10.764  18.603  0.00  0.00    +0.000 A 
ATOM     23 CL   UNL     1      -1.263   9.778  17.267  0.00  0.00    +0.000 Cl
ATOM     24  O   UNL     1      -1.846  13.904  20.134  0.00  0.00    +0.000 OA
ATOM     25  C   UNL     1      -2.575  13.899  21.366  0.00  0.00    +0.000 C 
ATOM     26  C   UNL     1      -1.716  14.230  22.581  0.00  0.00    +0.000 C 
ATOM     27  C   UNL     1      -0.694  13.141  22.863  0.00  0.00    +0.000 C 
ATOM     28  O   UNL     1       0.307  13.110  21.845  0.00  0.00    +0.000 OA
ENDBRANCH   3  17
TORSDOF 2
ENDMDL
MODEL 5
REMARK VINA RESULT:      -8.6      1.012      1.028
REMARK  Name = 
REMARK  2 active torsions:
REMARK  status: ('A' for Active; 'I' for Inactive)
REMARK    1  A    between atoms: C_7  and  C_8
REMARK    2  A    between atoms: N_10  and  C_11
REMARK                            x       y       z     vdW  Elec       q    Type
REMARK                         _______ _______ _______ _____ _____    ______ ____
ROOT
ATOM      1  C   UNL     1       1.133   9.286  19.126  0.00  0.00    +0.000 C 
ATOM      2  O   UNL     1       1.852   9.611  20.071  0.00  0.00    +0.000 OA
ATOM      3  N   UNL     1       1.456   8.295  18.206  0.00  0.00    +0.000 N 
ATOM      4  H   UNL     1       0.942   8.234  17.337  0.00  0.00    +0.000 HD
ENDROOT
BRANCH   1  11
ATOM      5  O   UNL     1      -5.578  12.443  16.932  0.00  0.00    +0.000 OA
ATOM      6  C   UNL     1      -4.542  11.811  17.114  0.00  0.00    +0.000 C 
ATOM      7  C   UNL     1      -4.152  10.627  16.256  0.00  0.00    +0.000 C 
ATOM      8  C   UNL     1      -2.645  10.517  16.110  0.00  0.00    +0.000 C 
ATOM      9  C   UNL     1      -1.981  10.600  17.456  0.00  0.00    +0.000 A 
ATOM     10  C   UNL     1      -0.774   9.945  17.712  0.00  0.00    +0.000 A 
ATOM     11  C   UNL     1      -0.120  10.073  18.952  0.00  0.00    +0.000 A 
ATOM     12  C   UNL     1      -0.665  10.922  19.921  0.00  0.00    +0.000 A 
ATOM     13  C   UNL     1      -1.867  11.597  19.661  0.00  0.00    +0.000 A 
ATOM     14  C   UNL     1      -2.526  11.419  18.442  0.00  0.00    +0.000 A 
ATOM     15  N   UNL     1      -3.735  12.070  18.196  0.00  0.00    +0.000 N 
ATOM     16  H   UNL     1      -4.080  12.774  18.835  0.00  0.00    +0.000 HD
ENDBRANCH   1  11
BRANCH   3  17
ATOM     17  C   UNL     1       2.621   7.475  18.293  0.00  0.00    +0.000 A 
ATOM     18  C   UNL     1       3.660   7.581  17.364  0.00  0.00    +0.000 A 
ATOM     19  C   UNL     1       4.745   6.711  17.389  0.00  0.00    +0.000 A 
ATOM     20  C   UNL     1       4.856   5.757  18.394  0.00  0.00    +0.000 A 
ATOM     21  C   UNL     1       3.879   5.684  19.386  0.00  0.00    +0.000 A 
ATOM     22  C   UNL     1       2.757   6.525  19.323  0.00  0.00    +0.000 A 
ATOM     23 CL   UNL     1       1.520   6.324  20.519  0.00  0.00    +0.000 Cl
ATOM     24  O   UNL     1       5.939   4.928  18.494  0.00  0.00    +0.000 OA
ATOM     25  C   UNL     1       6.037   4.039  17.375  0.00  0.00    +0.000 C 
ATOM     26  C   UNL     1       6.658   4.683  16.141  0.00  0.00    +0.000 C 
ATOM     27  C   UNL     1       5.762   5.762  15.556  0.00  0.00    +0.000 C 
ATOM     28  O   UNL     1       5.697   6.893  16.426  0.00  0.00    +0.000 OA
ENDBRANCH   3  17
TORSDOF 2
ENDMDL
MODEL 6
REMARK VINA RESULT:      -8.6      3.937      9.388
REMARK  Name = 
REMARK  2 active torsions:
REMARK  status: ('A' for Active; 'I' for Inactive)
REMARK    1  A    between atoms: C_7  and  C_8
REMARK    2  A    between atoms: N_10  and  C_11
REMARK                            x       y       z     vdW  Elec       q    Type
REMARK                         _______ _______ _______ _____ _____    ______ ____
ROOT
ATOM      1  C   UNL     1       1.299   8.844  21.016  0.00  0.00    +0.000 C 
ATOM      2  O   UNL     1       1.638   8.801  22.199  0.00  0.00    +0.000 OA
ATOM      3  N   UNL     1       0.525   9.856  20.464  0.00  0.00    +0.000 N 
ATOM      4  H   UNL     1       0.094   9.720  19.559  0.00  0.00    +0.000 HD
ENDROOT
BRANCH   1  11
ATOM      5  O   UNL     1       2.541   1.979  17.676  0.00  0.00    +0.000 OA
ATOM      6  C   UNL     1       2.219   2.959  18.340  0.00  0.00    +0.000 C 
ATOM      7  C   UNL     1       1.239   2.874  19.491  0.00  0.00    +0.000 C 
ATOM      8  C   UNL     1       1.568   3.882  20.578  0.00  0.00    +0.000 C 
ATOM      9  C   UNL     1       1.765   5.248  19.983  0.00  0.00    +0.000 A 
ATOM     10  C   UNL     1       1.465   6.405  20.706  0.00  0.00    +0.000 A 
ATOM     11  C   UNL     1       1.708   7.686  20.173  0.00  0.00    +0.000 A 
ATOM     12  C   UNL     1       2.316   7.793  18.918  0.00  0.00    +0.000 A 
ATOM     13  C   UNL     1       2.637   6.632  18.197  0.00  0.00    +0.000 A 
ATOM     14  C   UNL     1       2.343   5.372  18.722  0.00  0.00    +0.000 A 
ATOM     15  N   UNL     1       2.638   4.221  17.991  0.00  0.00    +0.000 N 
ATOM     16  H   UNL     1       3.182   4.276  17.139  0.00  0.00    +0.000 HD
ENDBRANCH   1  11
BRANCH   3  17
ATOM     17  C   UNL     1       0.097  11.015  21.180  0.00  0.00    +0.000 A 
ATOM     18  C   UNL     1      -0.908  10.946  22.149  0.00  0.00    +0.000 A 
ATOM     19  C   UNL     1      -1.394  12.092  22.770  0.00  0.00    +0.000 A 
ATOM     20  C   UNL     1      -0.833  13.333  22.492  0.00  0.00    +0.000 A 
ATOM     21  C   UNL     1       0.231  13.422  21.595  0.00  0.00    +0.000 A 
ATOM     22  C   UNL     1       0.678  12.272  20.927  0.00  0.00    +0.000 A 
ATOM     23 CL   UNL     1       1.932  12.453  19.745  0.00  0.00    +0.000 Cl
ATOM     24  O   UNL     1      -1.236  14.473  23.130  0.00  0.00    +0.000 OA
ATOM     25  C   UNL     1      -2.595  14.806  22.824  0.00  0.00    +0.000 C 
ATOM     26  C   UNL     1      -3.612  14.008  23.632  0.00  0.00    +0.000 C 
ATOM     27  C   UNL     1      -3.600  12.535  23.258  0.00  0.00    +0.000 C 
ATOM     28  O   UNL     1      -2.389  11.913  23.690  0.00  0.00    +0.000 OA
ENDBRANCH   3  17
TORSDOF 2
ENDMDL
MODEL 7
REMARK VINA RESULT:      -8.6      1.551      2.350
REMARK  Name = 
REMARK  2 active torsions:
REMARK  status: ('A' for Active; 'I' for Inactive)
REMARK    1  A    between atoms: C_7  and  C_8
REMARK    2  A    between atoms: N_10  and  C_11
REMARK                            x       y       z     vdW  Elec       q    Type
REMARK                         _______ _______ _______ _____ _____    ______ ____
ROOT
ATOM      1  C   UNL     1       1.637   8.925  18.437  0.00  0.00    +0.000 C 
ATOM      2  O   UNL     1       2.089   9.220  17.330  0.00  0.00    +0.000 OA
ATOM      3  N   UNL     1       2.025   7.805  19.163  0.00  0.00    +0.000 N 
ATOM      4  H   UNL     1       1.463   7.497  19.946  0.00  0.00    +0.000 HD
ENDROOT
BRANCH   1  11
ATOM      5  O   UNL     1      -3.211  13.285  22.596  0.00  0.00    +0.000 OA
ATOM      6  C   UNL     1      -2.338  12.567  22.120  0.00  0.00    +0.000 C 
ATOM      7  C   UNL     1      -1.179  12.046  22.943  0.00  0.00    +0.000 C 
ATOM      8  C   UNL     1      -0.728  10.677  22.465  0.00  0.00    +0.000 C 
ATOM      9  C   UNL     1      -0.527  10.682  20.975  0.00  0.00    +0.000 A 
ATOM     10  C   UNL     1       0.417   9.851  20.367  0.00  0.00    +0.000 A 
ATOM     11  C   UNL     1       0.563   9.811  18.967  0.00  0.00    +0.000 A 
ATOM     12  C   UNL     1      -0.298  10.576  18.173  0.00  0.00    +0.000 A 
ATOM     13  C   UNL     1      -1.261  11.397  18.780  0.00  0.00    +0.000 A 
ATOM     14  C   UNL     1      -1.357  11.461  20.172  0.00  0.00    +0.000 A 
ATOM     15  N   UNL     1      -2.296  12.299  20.772  0.00  0.00    +0.000 N 
ATOM     16  H   UNL     1      -3.000  12.767  20.216  0.00  0.00    +0.000 HD
ENDBRANCH   1  11
BRANCH   3  17
ATOM     17  C   UNL     1       3.055   6.905  18.753  0.00  0.00    +0.000 A 
ATOM     18  C   UNL     1       3.918   7.213  17.697  0.00  0.00    +0.000 A 
ATOM     19  C   UNL     1       4.850   6.292  17.234  0.00  0.00    +0.000 A 
ATOM     20  C   UNL     1       4.997   5.062  17.865  0.00  0.00    +0.000 A 
ATOM     21  C   UNL     1       4.210   4.760  18.976  0.00  0.00    +0.000 A 
ATOM     22  C   UNL     1       3.230   5.669  19.404  0.00  0.00    +0.000 A 
ATOM     23 CL   UNL     1       2.208   5.203  20.723  0.00  0.00    +0.000 Cl
ATOM     24  O   UNL     1       5.948   4.156  17.483  0.00  0.00    +0.000 OA
ATOM     25  C   UNL     1       5.715   3.664  16.158  0.00  0.00    +0.000 C 
ATOM     26  C   UNL     1       6.196   4.612  15.065  0.00  0.00    +0.000 C 
ATOM     27  C   UNL     1       5.378   5.892  15.029  0.00  0.00    +0.000 C 
ATOM     28  O   UNL     1       5.633   6.689  16.186  0.00  0.00    +0.000 OA
ENDBRANCH   3  17
TORSDOF 2
ENDMDL
MODEL 8
REMARK VINA RESULT:      -8.6      2.970      8.641
REMARK  Name = 
REMARK  2 active torsions:
REMARK  status: ('A' for Active; 'I' for Inactive)
REMARK    1  A    between atoms: C_7  and  C_8
REMARK    2  A    between atoms: N_10  and  C_11
REMARK                            x       y       z     vdW  Elec       q    Type
REMARK                         _______ _______ _______ _____ _____    ______ ____
ROOT
ATOM      1  C   UNL     1       2.149   8.244  18.232  0.00  0.00    +0.000 C 
ATOM      2  O   UNL     1       2.205   8.923  17.206  0.00  0.00    +0.000 OA
ATOM      3  N   UNL     1       1.595   8.683  19.428  0.00  0.00    +0.000 N 
ATOM      4  H   UNL     1       1.782   8.176  20.282  0.00  0.00    +0.000 HD
ENDROOT
BRANCH   1  11
ATOM      5  O   UNL     1       4.029   0.743  18.394  0.00  0.00    +0.000 OA
ATOM      6  C   UNL     1       3.537   1.867  18.427  0.00  0.00    +0.000 C 
ATOM      7  C   UNL     1       2.076   2.103  18.741  0.00  0.00    +0.000 C 
ATOM      8  C   UNL     1       1.868   3.420  19.470  0.00  0.00    +0.000 C 
ATOM      9  C   UNL     1       2.575   4.534  18.749  0.00  0.00    +0.000 A 
ATOM     10  C   UNL     1       2.093   5.844  18.789  0.00  0.00    +0.000 A 
ATOM     11  C   UNL     1       2.787   6.899  18.166  0.00  0.00    +0.000 A 
ATOM     12  C   UNL     1       4.013   6.632  17.547  0.00  0.00    +0.000 A 
ATOM     13  C   UNL     1       4.510   5.319  17.522  0.00  0.00    +0.000 A 
ATOM     14  C   UNL     1       3.782   4.278  18.103  0.00  0.00    +0.000 A 
ATOM     15  N   UNL     1       4.265   2.971  18.053  0.00  0.00    +0.000 N 
ATOM     16  H   UNL     1       5.200   2.779  17.715  0.00  0.00    +0.000 HD
ENDBRANCH   1  11
BRANCH   3  17
ATOM     17  C   UNL     1       0.946   9.945  19.591  0.00  0.00    +0.000 A 
ATOM     18  C   UNL     1       1.272  11.044  18.791  0.00  0.00    +0.000 A 
ATOM     19  C   UNL     1       0.714  12.296  19.021  0.00  0.00    +0.000 A 
ATOM     20  C   UNL     1      -0.246  12.466  20.012  0.00  0.00    +0.000 A 
ATOM     21  C   UNL     1      -0.657  11.369  20.769  0.00  0.00    +0.000 A 
ATOM     22  C   UNL     1      -0.048  10.120  20.572  0.00  0.00    +0.000 A 
ATOM     23 CL   UNL     1      -0.518   8.814  21.609  0.00  0.00    +0.000 Cl
ATOM     24  O   UNL     1      -0.869  13.665  20.224  0.00  0.00    +0.000 OA
ATOM     25  C   UNL     1       0.048  14.671  20.672  0.00  0.00    +0.000 C 
ATOM     26  C   UNL     1       0.854  15.303  19.543  0.00  0.00    +0.000 C 
ATOM     27  C   UNL     1       1.821  14.312  18.916  0.00  0.00    +0.000 C 
ATOM     28  O   UNL     1       1.114  13.305  18.190  0.00  0.00    +0.000 OA
ENDBRANCH   3  17
TORSDOF 2
ENDMDL
MODEL 9
REMARK VINA RESULT:      -8.5      3.109      8.881
REMARK  Name = 
REMARK  2 active torsions:
REMARK  status: ('A' for Active; 'I' for Inactive)
REMARK    1  A    between atoms: C_7  and  C_8
REMARK    2  A    between atoms: N_10  and  C_11
REMARK                            x       y       z     vdW  Elec       q    Type
REMARK                         _______ _______ _______ _____ _____    ______ ____
ROOT
ATOM      1  C   UNL     1       1.734   9.093  18.617  0.00  0.00    +0.000 C 
ATOM      2  O   UNL     1       2.081   9.403  17.477  0.00  0.00    +0.000 OA
ATOM      3  N   UNL     1       1.143   9.972  19.517  0.00  0.00    +0.000 N 
ATOM      4  H   UNL     1       1.092   9.725  20.496  0.00  0.00    +0.000 HD
ENDROOT
BRANCH   1  11
ATOM      5  O   UNL     1       4.260   1.839  19.513  0.00  0.00    +0.000 OA
ATOM      6  C   UNL     1       3.987   2.993  19.201  0.00  0.00    +0.000 C 
ATOM      7  C   UNL     1       4.642   3.693  18.029  0.00  0.00    +0.000 C 
ATOM      8  C   UNL     1       3.695   4.680  17.369  0.00  0.00    +0.000 C 
ATOM      9  C   UNL     1       3.068   5.574  18.402  0.00  0.00    +0.000 A 
ATOM     10  C   UNL     1       2.688   6.882  18.095  0.00  0.00    +0.000 A 
ATOM     11  C   UNL     1       2.044   7.700  19.043  0.00  0.00    +0.000 A 
ATOM     12  C   UNL     1       1.728   7.165  20.296  0.00  0.00    +0.000 A 
ATOM     13  C   UNL     1       2.091   5.844  20.602  0.00  0.00    +0.000 A 
ATOM     14  C   UNL     1       2.773   5.065  19.665  0.00  0.00    +0.000 A 
ATOM     15  N   UNL     1       3.156   3.762  19.981  0.00  0.00    +0.000 N 
ATOM     16  H   UNL     1       2.835   3.322  20.834  0.00  0.00    +0.000 HD
ENDBRANCH   1  11
BRANCH   3  17
ATOM     17  C   UNL     1       0.790  11.320  19.202  0.00  0.00    +0.000 A 
ATOM     18  C   UNL     1       1.694  12.371  19.373  0.00  0.00    +0.000 A 
ATOM     19  C   UNL     1       1.314  13.693  19.165  0.00  0.00    +0.000 A 
ATOM     20  C   UNL     1       0.037  13.992  18.705  0.00  0.00    +0.000 A 
ATOM     21  C   UNL     1      -0.860  12.958  18.442  0.00  0.00    +0.000 A 
ATOM     22  C   UNL     1      -0.491  11.630  18.710  0.00  0.00    +0.000 A 
ATOM     23 CL   UNL     1      -1.678  10.391  18.465  0.00  0.00    +0.000 Cl
ATOM     24  O   UNL     1      -0.354  15.272  18.424  0.00  0.00    +0.000 OA
ATOM     25  C   UNL     1      -0.375  16.094  19.596  0.00  0.00    +0.000 C 
ATOM     26  C   UNL     1       1.001  16.615  19.997  0.00  0.00    +0.000 C 
ATOM     27  C   UNL     1       1.914  15.495  20.465  0.00  0.00    +0.000 C 
ATOM     28  O   UNL     1       2.272  14.644  19.375  0.00  0.00    +0.000 OA
ENDBRANCH   3  17
TORSDOF 2
ENDMDL
