MODEL 1
REMARK VINA RESULT:      -9.1      0.000      0.000
REMARK  Name = 
REMARK  6 active torsions:
REMARK  status: ('A' for Active; 'I' for Inactive)
REMARK    1  A    between atoms: C_1  and  N_2
REMARK    2  A    between atoms: N_2  and  C_3
REMARK    3  A    between atoms: C_3  and  C_4
REMARK    4  A    between atoms: C_13  and  C_15
REMARK    5  A    between atoms: C_15  and  N_16
REMARK    6  A    between atoms: C_18  and  C_19
REMARK                            x       y       z     vdW  Elec       q    Type
REMARK                         _______ _______ _______ _____ _____    ______ ____
ROOT
ATOM      1  C   UNL     1       1.061   3.614  18.691  0.00  0.00    +0.000 C 
ATOM      2  N   UNL     1       2.446   3.745  19.125  0.00  0.00    +0.000 N 
ATOM      3  C   UNL     1       3.408   3.048  18.397  0.00  0.00    +0.000 C 
ATOM      4  O   UNL     1       3.079   2.344  17.435  0.00  0.00    +0.000 OA
ENDROOT
BRANCH   2   5
ATOM      5  C   UNL     1       2.717   4.654  20.232  0.00  0.00    +0.000 C 
BRANCH   5   6
ATOM      6  C   UNL     1       2.400   6.071  19.890  0.00  0.00    +0.000 A 
ATOM      7  C   UNL     1       2.660   6.760  18.721  0.00  0.00    +0.000 A 
ATOM      8  C   UNL     1       2.116   8.066  18.843  0.00  0.00    +0.000 A 
ATOM      9  C   UNL     1       2.033   9.172  17.976  0.00  0.00    +0.000 A 
ATOM     10  C   UNL     1       1.370  10.326  18.402  0.00  0.00    +0.000 A 
ATOM     11  C   UNL     1       0.807  10.391  19.675  0.00  0.00    +0.000 A 
ATOM     12  C   UNL     1       0.899   9.312  20.563  0.00  0.00    +0.000 A 
ATOM     13  C   UNL     1       1.557   8.158  20.117  0.00  0.00    +0.000 A 
ATOM     14  N   UNL     1       1.784   6.954  20.748  0.00  0.00    +0.000 N 
ATOM     15  H   UNL     1       1.494   6.727  21.691  0.00  0.00    +0.000 HD
ENDBRANCH   5   6
ENDBRANCH   2   5
BRANCH   3  16
ATOM     16  C   UNL     1       4.881   3.119  18.819  0.00  0.00    +0.000 C 
BRANCH  16  17
ATOM     17  N   UNL     1       5.556   4.161  18.054  0.00  0.00    +0.000 N 
ATOM     18  N   UNL     1       5.692   3.909  16.709  0.00  0.00    +0.000 NA
ATOM     19  C   UNL     1       6.400   4.729  15.997  0.00  0.00    +0.000 A 
ATOM     20  C   UNL     1       7.081   5.916  16.546  0.00  0.00    +0.000 A 
ATOM     21  C   UNL     1       6.876   6.180  17.838  0.00  0.00    +0.000 A 
ATOM     22  C   UNL     1       6.027   5.306  18.675  0.00  0.00    +0.000 A 
ATOM     23  O   UNL     1       5.820   5.613  19.844  0.00  0.00    +0.000 OA
BRANCH  19  24
ATOM     24  C   UNL     1       6.539   4.457  14.541  0.00  0.00    +0.000 A 
ATOM     25  C   UNL     1       7.546   5.124  13.827  0.00  0.00    +0.000 A 
ATOM     26  C   UNL     1       7.685   4.924  12.453  0.00  0.00    +0.000 A 
ATOM     27  C   UNL     1       6.813   4.066  11.785  0.00  0.00    +0.000 A 
ATOM     28  C   UNL     1       5.801   3.409  12.486  0.00  0.00    +0.000 A 
ATOM     29  C   UNL     1       5.659   3.605  13.863  0.00  0.00    +0.000 A 
ENDBRANCH  19  24
ENDBRANCH  16  17
ENDBRANCH   3  16
TORSDOF 5
ENDMDL
MODEL 2
REMARK VINA RESULT:      -9.1      1.813      7.842
REMARK  Name = 
REMARK  6 active torsions:
REMARK  status: ('A' for Active; 'I' for Inactive)
REMARK    1  A    between atoms: C_1  and  N_2
REMARK    2  A    between atoms: N_2  and  C_3
REMARK    3  A    between atoms: C_3  and  C_4
REMARK    4  A    between atoms: C_13  and  C_15
REMARK    5  A    between atoms: C_15  and  N_16
REMARK    6  A    between atoms: C_18  and  C_19
REMARK                            x       y       z     vdW  Elec       q    Type
REMARK                         _______ _______ _______ _____ _____    ______ ____
ROOT
ATOM      1  C   UNL     1       1.189   2.349  19.420  0.00  0.00    +0.000 C 
ATOM      2  N   UNL     1       2.227   3.326  19.726  0.00  0.00    +0.000 N 
ATOM      3  C   UNL     1       1.810   4.616  20.045  0.00  0.00    +0.000 C 
ATOM      4  O   UNL     1       0.606   4.903  20.050  0.00  0.00    +0.000 OA
ENDROOT
BRANCH   2   5
ATOM      5  C   UNL     1       3.605   2.851  19.749  0.00  0.00    +0.000 C 
BRANCH   5   6
ATOM      6  C   UNL     1       4.381   3.309  18.561  0.00  0.00    +0.000 A 
ATOM      7  C   UNL     1       4.013   3.302  17.229  0.00  0.00    +0.000 A 
ATOM      8  C   UNL     1       5.059   3.893  16.474  0.00  0.00    +0.000 A 
ATOM      9  C   UNL     1       5.226   4.195  15.109  0.00  0.00    +0.000 A 
ATOM     10  C   UNL     1       6.392   4.841  14.689  0.00  0.00    +0.000 A 
ATOM     11  C   UNL     1       7.388   5.172  15.605  0.00  0.00    +0.000 A 
ATOM     12  C   UNL     1       7.254   4.860  16.964  0.00  0.00    +0.000 A 
ATOM     13  C   UNL     1       6.075   4.222  17.371  0.00  0.00    +0.000 A 
ATOM     14  N   UNL     1       5.660   3.815  18.621  0.00  0.00    +0.000 N 
ATOM     15  H   UNL     1       6.194   3.920  19.474  0.00  0.00    +0.000 HD
ENDBRANCH   5   6
ENDBRANCH   2   5
BRANCH   3  16
ATOM     16  C   UNL     1       2.851   5.700  20.348  0.00  0.00    +0.000 C 
BRANCH  16  17
ATOM     17  N   UNL     1       2.410   6.969  19.780  0.00  0.00    +0.000 N 
ATOM     18  N   UNL     1       1.690   7.776  20.630  0.00  0.00    +0.000 NA
ATOM     19  C   UNL     1       1.153   8.853  20.150  0.00  0.00    +0.000 A 
ATOM     20  C   UNL     1       1.258   9.263  18.737  0.00  0.00    +0.000 A 
ATOM     21  C   UNL     1       2.020   8.504  17.948  0.00  0.00    +0.000 A 
ATOM     22  C   UNL     1       2.701   7.299  18.467  0.00  0.00    +0.000 A 
ATOM     23  O   UNL     1       3.436   6.658  17.723  0.00  0.00    +0.000 OA
BRANCH  19  24
ATOM     24  C   UNL     1       0.381   9.726  21.074  0.00  0.00    +0.000 A 
ATOM     25  C   UNL     1       0.034   9.225  22.338  0.00  0.00    +0.000 A 
ATOM     26  C   UNL     1      -0.721   9.999  23.220  0.00  0.00    +0.000 A 
ATOM     27  C   UNL     1      -1.142  11.272  22.839  0.00  0.00    +0.000 A 
ATOM     28  C   UNL     1      -0.812  11.772  21.579  0.00  0.00    +0.000 A 
ATOM     29  C   UNL     1      -0.054  11.000  20.694  0.00  0.00    +0.000 A 
ENDBRANCH  19  24
ENDBRANCH  16  17
ENDBRANCH   3  16
TORSDOF 5
ENDMDL
MODEL 3
REMARK VINA RESULT:      -8.6      1.422      7.456
REMARK  Name = 
REMARK  6 active torsions:
REMARK  status: ('A' for Active; 'I' for Inactive)
REMARK    1  A    between atoms: C_1  and  N_2
REMARK    2  A    between atoms: N_2  and  C_3
REMARK    3  A    between atoms: C_3  and  C_4
REMARK    4  A    between atoms: C_13  and  C_15
REMARK    5  A    between atoms: C_15  and  N_16
REMARK    6  A    between atoms: C_18  and  C_19
REMARK                            x       y       z     vdW  Elec       q    Type
REMARK                         _______ _______ _______ _____ _____    ______ ____
ROOT
ATOM      1  C   UNL     1       7.251   7.171  18.020  0.00  0.00    +0.000 C 
ATOM      2  N   UNL     1       6.187   6.188  17.858  0.00  0.00    +0.000 N 
ATOM      3  C   UNL     1       6.095   5.188  18.823  0.00  0.00    +0.000 C 
ATOM      4  O   UNL     1       6.899   5.146  19.763  0.00  0.00    +0.000 OA
ENDROOT
BRANCH   2   5
ATOM      5  C   UNL     1       5.263   6.380  16.747  0.00  0.00    +0.000 C 
BRANCH   5   6
ATOM      6  C   UNL     1       5.632   5.560  15.557  0.00  0.00    +0.000 A 
ATOM      7  C   UNL     1       4.956   4.494  14.995  0.00  0.00    +0.000 A 
ATOM      8  C   UNL     1       5.665   4.076  13.839  0.00  0.00    +0.000 A 
ATOM      9  C   UNL     1       5.436   3.092  12.858  0.00  0.00    +0.000 A 
ATOM     10  C   UNL     1       6.332   2.969  11.791  0.00  0.00    +0.000 A 
ATOM     11  C   UNL     1       7.448   3.799  11.704  0.00  0.00    +0.000 A 
ATOM     12  C   UNL     1       7.708   4.768  12.681  0.00  0.00    +0.000 A 
ATOM     13  C   UNL     1       6.795   4.886  13.737  0.00  0.00    +0.000 A 
ATOM     14  N   UNL     1       6.777   5.745  14.816  0.00  0.00    +0.000 N 
ATOM     15  H   UNL     1       7.477   6.449  15.010  0.00  0.00    +0.000 HD
ENDBRANCH   5   6
ENDBRANCH   2   5
BRANCH   3  16
ATOM     16  C   UNL     1       5.016   4.105  18.696  0.00  0.00    +0.000 C 
BRANCH  16  17
ATOM     17  N   UNL     1       3.817   4.529  19.409  0.00  0.00    +0.000 N 
ATOM     18  N   UNL     1       3.386   5.804  19.132  0.00  0.00    +0.000 NA
ATOM     19  C   UNL     1       2.408   6.291  19.830  0.00  0.00    +0.000 A 
ATOM     20  C   UNL     1       1.733   5.559  20.918  0.00  0.00    +0.000 A 
ATOM     21  C   UNL     1       2.119   4.298  21.122  0.00  0.00    +0.000 A 
ATOM     22  C   UNL     1       3.190   3.682  20.309  0.00  0.00    +0.000 A 
ATOM     23  O   UNL     1       3.478   2.504  20.492  0.00  0.00    +0.000 OA
BRANCH  19  24
ATOM     24  C   UNL     1       1.941   7.669  19.521  0.00  0.00    +0.000 A 
ATOM     25  C   UNL     1       2.235   8.210  18.261  0.00  0.00    +0.000 A 
ATOM     26  C   UNL     1       1.846   9.513  17.946  0.00  0.00    +0.000 A 
ATOM     27  C   UNL     1       1.172  10.283  18.892  0.00  0.00    +0.000 A 
ATOM     28  C   UNL     1       0.888   9.756  20.152  0.00  0.00    +0.000 A 
ATOM     29  C   UNL     1       1.274   8.451  20.471  0.00  0.00    +0.000 A 
ENDBRANCH  19  24
ENDBRANCH  16  17
ENDBRANCH   3  16
TORSDOF 5
ENDMDL
MODEL 4
REMARK VINA RESULT:      -8.6      0.524      1.058
REMARK  Name = 
REMARK  6 active torsions:
REMARK  status: ('A' for Active; 'I' for Inactive)
REMARK    1  A    between atoms: C_1  and  N_2
REMARK    2  A    between atoms: N_2  and  C_3
REMARK    3  A    between atoms: C_3  and  C_4
REMARK    4  A    between atoms: C_13  and  C_15
REMARK    5  A    between atoms: C_15  and  N_16
REMARK    6  A    between atoms: C_18  and  C_19
REMARK                            x       y       z     vdW  Elec       q    Type
REMARK                         _______ _______ _______ _____ _____    ______ ____
ROOT
ATOM      1  C   UNL     1       1.341   2.656  18.606  0.00  0.00    +0.000 C 
ATOM      2  N   UNL     1       2.625   3.108  19.127  0.00  0.00    +0.000 N 
ATOM      3  C   UNL     1       3.769   2.664  18.468  0.00  0.00    +0.000 C 
ATOM      4  O   UNL     1       3.679   1.908  17.493  0.00  0.00    +0.000 OA
ENDROOT
BRANCH   2   5
ATOM      5  C   UNL     1       2.601   4.047  20.242  0.00  0.00    +0.000 C 
BRANCH   5   6
ATOM      6  C   UNL     1       2.401   5.455  19.790  0.00  0.00    +0.000 A 
ATOM      7  C   UNL     1       2.622   6.005  18.542  0.00  0.00    +0.000 A 
ATOM      8  C   UNL     1       2.229   7.369  18.581  0.00  0.00    +0.000 A 
ATOM      9  C   UNL     1       2.181   8.396  17.619  0.00  0.00    +0.000 A 
ATOM     10  C   UNL     1       1.682   9.651  17.984  0.00  0.00    +0.000 A 
ATOM     11  C   UNL     1       1.250   9.889  19.287  0.00  0.00    +0.000 A 
ATOM     12  C   UNL     1       1.312   8.889  20.265  0.00  0.00    +0.000 A 
ATOM     13  C   UNL     1       1.803   7.635  19.881  0.00  0.00    +0.000 A 
ATOM     14  N   UNL     1       1.962   6.473  20.606  0.00  0.00    +0.000 N 
ATOM     15  H   UNL     1       1.739   6.364  21.587  0.00  0.00    +0.000 HD
ENDBRANCH   5   6
ENDBRANCH   2   5
BRANCH   3  16
ATOM     16  C   UNL     1       5.154   3.077  18.984  0.00  0.00    +0.000 C 
BRANCH  16  17
ATOM     17  N   UNL     1       5.659   4.186  18.181  0.00  0.00    +0.000 N 
ATOM     18  N   UNL     1       5.768   3.936  16.834  0.00  0.00    +0.000 NA
ATOM     19  C   UNL     1       6.336   4.828  16.085  0.00  0.00    +0.000 A 
ATOM     20  C   UNL     1       6.885   6.099  16.595  0.00  0.00    +0.000 A 
ATOM     21  C   UNL     1       6.704   6.352  17.893  0.00  0.00    +0.000 A 
ATOM     22  C   UNL     1       6.008   5.389  18.773  0.00  0.00    +0.000 A 
ATOM     23  O   UNL     1       5.814   5.682  19.948  0.00  0.00    +0.000 OA
BRANCH  19  24
ATOM     24  C   UNL     1       6.446   4.557  14.626  0.00  0.00    +0.000 A 
ATOM     25  C   UNL     1       5.478   3.741  14.021  0.00  0.00    +0.000 A 
ATOM     26  C   UNL     1       5.566   3.432  12.663  0.00  0.00    +0.000 A 
ATOM     27  C   UNL     1       6.627   3.928  11.907  0.00  0.00    +0.000 A 
ATOM     28  C   UNL     1       7.601   4.729  12.506  0.00  0.00    +0.000 A 
ATOM     29  C   UNL     1       7.515   5.042  13.865  0.00  0.00    +0.000 A 
ENDBRANCH  19  24
ENDBRANCH  16  17
ENDBRANCH   3  16
TORSDOF 5
ENDMDL
MODEL 5
REMARK VINA RESULT:      -8.5      1.793      7.849
REMARK  Name = 
REMARK  6 active torsions:
REMARK  status: ('A' for Active; 'I' for Inactive)
REMARK    1  A    between atoms: C_1  and  N_2
REMARK    2  A    between atoms: N_2  and  C_3
REMARK    3  A    between atoms: C_3  and  C_4
REMARK    4  A    between atoms: C_13  and  C_15
REMARK    5  A    between atoms: C_15  and  N_16
REMARK    6  A    between atoms: C_18  and  C_19
REMARK                            x       y       z     vdW  Elec       q    Type
REMARK                         _______ _______ _______ _____ _____    ______ ____
ROOT
ATOM      1  C   UNL     1       1.497   2.305  19.363  0.00  0.00    +0.000 C 
ATOM      2  N   UNL     1       2.465   3.346  19.686  0.00  0.00    +0.000 N 
ATOM      3  C   UNL     1       1.960   4.594  20.041  0.00  0.00    +0.000 C 
ATOM      4  O   UNL     1       0.740   4.795  20.062  0.00  0.00    +0.000 OA
ENDROOT
BRANCH   2   5
ATOM      5  C   UNL     1       3.874   2.970  19.688  0.00  0.00    +0.000 C 
BRANCH   5   6
ATOM      6  C   UNL     1       4.608   3.520  18.512  0.00  0.00    +0.000 A 
ATOM      7  C   UNL     1       5.813   4.196  18.479  0.00  0.00    +0.000 A 
ATOM      8  C   UNL     1       6.135   4.467  17.124  0.00  0.00    +0.000 A 
ATOM      9  C   UNL     1       7.235   5.071  16.486  0.00  0.00    +0.000 A 
ATOM     10  C   UNL     1       7.263   5.139  15.089  0.00  0.00    +0.000 A 
ATOM     11  C   UNL     1       6.210   4.627  14.334  0.00  0.00    +0.000 A 
ATOM     12  C   UNL     1       5.095   4.044  14.949  0.00  0.00    +0.000 A 
ATOM     13  C   UNL     1       5.087   3.974  16.348  0.00  0.00    +0.000 A 
ATOM     14  N   UNL     1       4.152   3.448  17.215  0.00  0.00    +0.000 N 
ATOM     15  H   UNL     1       3.278   3.021  16.938  0.00  0.00    +0.000 HD
ENDBRANCH   5   6
ENDBRANCH   2   5
BRANCH   3  16
ATOM     16  C   UNL     1       2.925   5.742  20.364  0.00  0.00    +0.000 C 
BRANCH  16  17
ATOM     17  N   UNL     1       2.424   6.978  19.773  0.00  0.00    +0.000 N 
ATOM     18  N   UNL     1       1.681   7.774  20.613  0.00  0.00    +0.000 NA
ATOM     19  C   UNL     1       1.093   8.816  20.115  0.00  0.00    +0.000 A 
ATOM     20  C   UNL     1       1.164   9.197  18.692  0.00  0.00    +0.000 A 
ATOM     21  C   UNL     1       1.948   8.452  17.911  0.00  0.00    +0.000 A 
ATOM     22  C   UNL     1       2.685   7.289  18.449  0.00  0.00    +0.000 A 
ATOM     23  O   UNL     1       3.437   6.662  17.710  0.00  0.00    +0.000 OA
BRANCH  19  24
ATOM     24  C   UNL     1       0.296   9.678  21.029  0.00  0.00    +0.000 A 
ATOM     25  C   UNL     1      -0.089  10.952  20.584  0.00  0.00    +0.000 A 
ATOM     26  C   UNL     1      -0.805  11.805  21.424  0.00  0.00    +0.000 A 
ATOM     27  C   UNL     1      -1.130  11.393  22.716  0.00  0.00    +0.000 A 
ATOM     28  C   UNL     1      -0.740  10.133  23.169  0.00  0.00    +0.000 A 
ATOM     29  C   UNL     1      -0.024   9.275  22.330  0.00  0.00    +0.000 A 
ENDBRANCH  19  24
ENDBRANCH  16  17
ENDBRANCH   3  16
TORSDOF 5
ENDMDL
MODEL 6
REMARK VINA RESULT:      -8.5      0.529      1.441
REMARK  Name = 
REMARK  6 active torsions:
REMARK  status: ('A' for Active; 'I' for Inactive)
REMARK    1  A    between atoms: C_1  and  N_2
REMARK    2  A    between atoms: N_2  and  C_3
REMARK    3  A    between atoms: C_3  and  C_4
REMARK    4  A    between atoms: C_13  and  C_15
REMARK    5  A    between atoms: C_15  and  N_16
REMARK    6  A    between atoms: C_18  and  C_19
REMARK                            x       y       z     vdW  Elec       q    Type
REMARK                         _______ _______ _______ _____ _____    ______ ____
ROOT
ATOM      1  C   UNL     1       1.215   3.855  18.541  0.00  0.00    +0.000 C 
ATOM      2  N   UNL     1       2.598   3.929  18.993  0.00  0.00    +0.000 N 
ATOM      3  C   UNL     1       3.539   3.188  18.281  0.00  0.00    +0.000 C 
ATOM      4  O   UNL     1       3.192   2.493  17.318  0.00  0.00    +0.000 OA
ENDROOT
BRANCH   2   5
ATOM      5  C   UNL     1       2.893   4.832  20.099  0.00  0.00    +0.000 C 
BRANCH   5   6
ATOM      6  C   UNL     1       2.386   6.212  19.852  0.00  0.00    +0.000 A 
ATOM      7  C   UNL     1       1.616   7.013  20.673  0.00  0.00    +0.000 A 
ATOM      8  C   UNL     1       1.436   8.266  20.032  0.00  0.00    +0.000 A 
ATOM      9  C   UNL     1       0.797   9.466  20.400  0.00  0.00    +0.000 A 
ATOM     10  C   UNL     1       0.848  10.561  19.532  0.00  0.00    +0.000 A 
ATOM     11  C   UNL     1       1.510  10.466  18.309  0.00  0.00    +0.000 A 
ATOM     12  C   UNL     1       2.131   9.275  17.913  0.00  0.00    +0.000 A 
ATOM     13  C   UNL     1       2.081   8.191  18.799  0.00  0.00    +0.000 A 
ATOM     14  N   UNL     1       2.608   6.921  18.693  0.00  0.00    +0.000 N 
ATOM     15  H   UNL     1       3.130   6.572  17.900  0.00  0.00    +0.000 HD
ENDBRANCH   5   6
ENDBRANCH   2   5
BRANCH   3  16
ATOM     16  C   UNL     1       5.008   3.197  18.721  0.00  0.00    +0.000 C 
BRANCH  16  17
ATOM     17  N   UNL     1       5.725   4.239  17.995  0.00  0.00    +0.000 N 
ATOM     18  N   UNL     1       5.840   4.040  16.639  0.00  0.00    +0.000 NA
ATOM     19  C   UNL     1       6.580   4.856  15.957  0.00  0.00    +0.000 A 
ATOM     20  C   UNL     1       7.320   5.985  16.550  0.00  0.00    +0.000 A 
ATOM     21  C   UNL     1       7.137   6.202  17.855  0.00  0.00    +0.000 A 
ATOM     22  C   UNL     1       6.254   5.333  18.661  0.00  0.00    +0.000 A 
ATOM     23  O   UNL     1       6.070   5.598  19.844  0.00  0.00    +0.000 OA
BRANCH  19  24
ATOM     24  C   UNL     1       6.696   4.641  14.489  0.00  0.00    +0.000 A 
ATOM     25  C   UNL     1       5.870   3.681  13.885  0.00  0.00    +0.000 A 
ATOM     26  C   UNL     1       5.974   3.423  12.517  0.00  0.00    +0.000 A 
ATOM     27  C   UNL     1       6.910   4.115  11.751  0.00  0.00    +0.000 A 
ATOM     28  C   UNL     1       7.743   5.062  12.347  0.00  0.00    +0.000 A 
ATOM     29  C   UNL     1       7.641   5.324  13.716  0.00  0.00    +0.000 A 
ENDBRANCH  19  24
ENDBRANCH  16  17
ENDBRANCH   3  16
TORSDOF 5
ENDMDL
MODEL 7
REMARK VINA RESULT:      -8.5      1.278      7.495
REMARK  Name = 
REMARK  6 active torsions:
REMARK  status: ('A' for Active; 'I' for Inactive)
REMARK    1  A    between atoms: C_1  and  N_2
REMARK    2  A    between atoms: N_2  and  C_3
REMARK    3  A    between atoms: C_3  and  C_4
REMARK    4  A    between atoms: C_13  and  C_15
REMARK    5  A    between atoms: C_15  and  N_16
REMARK    6  A    between atoms: C_18  and  C_19
REMARK                            x       y       z     vdW  Elec       q    Type
REMARK                         _______ _______ _______ _____ _____    ______ ____
ROOT
ATOM      1  C   UNL     1       7.778   5.819  18.982  0.00  0.00    +0.000 C 
ATOM      2  N   UNL     1       6.502   5.530  18.338  0.00  0.00    +0.000 N 
ATOM      3  C   UNL     1       5.704   4.550  18.923  0.00  0.00    +0.000 C 
ATOM      4  O   UNL     1       6.084   3.952  19.937  0.00  0.00    +0.000 OA
ENDROOT
BRANCH   2   5
ATOM      5  C   UNL     1       6.135   6.346  17.186  0.00  0.00    +0.000 C 
BRANCH   5   6
ATOM      6  C   UNL     1       6.219   5.585  15.906  0.00  0.00    +0.000 A 
ATOM      7  C   UNL     1       5.314   4.691  15.367  0.00  0.00    +0.000 A 
ATOM      8  C   UNL     1       5.801   4.270  14.103  0.00  0.00    +0.000 A 
ATOM      9  C   UNL     1       5.298   3.424  13.097  0.00  0.00    +0.000 A 
ATOM     10  C   UNL     1       6.028   3.255  11.916  0.00  0.00    +0.000 A 
ATOM     11  C   UNL     1       7.247   3.905  11.739  0.00  0.00    +0.000 A 
ATOM     12  C   UNL     1       7.779   4.733  12.736  0.00  0.00    +0.000 A 
ATOM     13  C   UNL     1       7.030   4.900  13.908  0.00  0.00    +0.000 A 
ATOM     14  N   UNL     1       7.283   5.653  15.035  0.00  0.00    +0.000 N 
ATOM     15  H   UNL     1       8.108   6.220  15.183  0.00  0.00    +0.000 HD
ENDBRANCH   5   6
ENDBRANCH   2   5
BRANCH   3  16
ATOM     16  C   UNL     1       4.363   4.177  18.279  0.00  0.00    +0.000 C 
BRANCH  16  17
ATOM     17  N   UNL     1       3.272   4.722  19.079  0.00  0.00    +0.000 N 
ATOM     18  N   UNL     1       2.991   6.051  18.864  0.00  0.00    +0.000 NA
ATOM     19  C   UNL     1       2.127   6.631  19.637  0.00  0.00    +0.000 A 
ATOM     20  C   UNL     1       1.431   5.952  20.746  0.00  0.00    +0.000 A 
ATOM     21  C   UNL     1       1.665   4.646  20.890  0.00  0.00    +0.000 A 
ATOM     22  C   UNL     1       2.597   3.930  19.993  0.00  0.00    +0.000 A 
ATOM     23  O   UNL     1       2.744   2.719  20.125  0.00  0.00    +0.000 OA
BRANCH  19  24
ATOM     24  C   UNL     1       1.821   8.067  19.397  0.00  0.00    +0.000 A 
ATOM     25  C   UNL     1       1.156   8.788  20.400  0.00  0.00    +0.000 A 
ATOM     26  C   UNL     1       0.818  10.127  20.199  0.00  0.00    +0.000 A 
ATOM     27  C   UNL     1       1.132  10.747  18.991  0.00  0.00    +0.000 A 
ATOM     28  C   UNL     1       1.782  10.032  17.984  0.00  0.00    +0.000 A 
ATOM     29  C   UNL     1       2.124   8.692  18.182  0.00  0.00    +0.000 A 
ENDBRANCH  19  24
ENDBRANCH  16  17
ENDBRANCH   3  16
TORSDOF 5
ENDMDL
MODEL 8
REMARK VINA RESULT:      -8.4      0.694      1.233
REMARK  Name = 
REMARK  6 active torsions:
REMARK  status: ('A' for Active; 'I' for Inactive)
REMARK    1  A    between atoms: C_1  and  N_2
REMARK    2  A    between atoms: N_2  and  C_3
REMARK    3  A    between atoms: C_3  and  C_4
REMARK    4  A    between atoms: C_13  and  C_15
REMARK    5  A    between atoms: C_15  and  N_16
REMARK    6  A    between atoms: C_18  and  C_19
REMARK                            x       y       z     vdW  Elec       q    Type
REMARK                         _______ _______ _______ _____ _____    ______ ____
ROOT
ATOM      1  C   UNL     1       1.318   2.634  18.847  0.00  0.00    +0.000 C 
ATOM      2  N   UNL     1       2.633   3.095  19.275  0.00  0.00    +0.000 N 
ATOM      3  C   UNL     1       3.729   2.667  18.531  0.00  0.00    +0.000 C 
ATOM      4  O   UNL     1       3.575   1.916  17.560  0.00  0.00    +0.000 OA
ENDROOT
BRANCH   2   5
ATOM      5  C   UNL     1       2.681   4.029  20.394  0.00  0.00    +0.000 C 
BRANCH   5   6
ATOM      6  C   UNL     1       2.339   5.421  19.985  0.00  0.00    +0.000 A 
ATOM      7  C   UNL     1       1.692   6.404  20.708  0.00  0.00    +0.000 A 
ATOM      8  C   UNL     1       1.650   7.583  19.920  0.00  0.00    +0.000 A 
ATOM      9  C   UNL     1       1.170   8.888  20.143  0.00  0.00    +0.000 A 
ATOM     10  C   UNL     1       1.331   9.856  19.146  0.00  0.00    +0.000 A 
ATOM     11  C   UNL     1       1.947   9.533  17.939  0.00  0.00    +0.000 A 
ATOM     12  C   UNL     1       2.409   8.235  17.686  0.00  0.00    +0.000 A 
ATOM     13  C   UNL     1       2.250   7.281  18.699  0.00  0.00    +0.000 A 
ATOM     14  N   UNL     1       2.616   5.952  18.745  0.00  0.00    +0.000 N 
ATOM     15  H   UNL     1       3.073   5.448  17.996  0.00  0.00    +0.000 HD
ENDBRANCH   5   6
ENDBRANCH   2   5
BRANCH   3  16
ATOM     16  C   UNL     1       5.144   3.092  18.946  0.00  0.00    +0.000 C 
BRANCH  16  17
ATOM     17  N   UNL     1       5.582   4.202  18.107  0.00  0.00    +0.000 N 
ATOM     18  N   UNL     1       5.739   3.907  16.773  0.00  0.00    +0.000 NA
ATOM     19  C   UNL     1       6.255   4.808  15.998  0.00  0.00    +0.000 A 
ATOM     20  C   UNL     1       6.697   6.136  16.465  0.00  0.00    +0.000 A 
ATOM     21  C   UNL     1       6.469   6.427  17.747  0.00  0.00    +0.000 A 
ATOM     22  C   UNL     1       5.828   5.451  18.654  0.00  0.00    +0.000 A 
ATOM     23  O   UNL     1       5.587   5.776  19.811  0.00  0.00    +0.000 OA
BRANCH  19  24
ATOM     24  C   UNL     1       6.416   4.487  14.555  0.00  0.00    +0.000 A 
ATOM     25  C   UNL     1       7.461   5.097  13.844  0.00  0.00    +0.000 A 
ATOM     26  C   UNL     1       7.624   4.851  12.481  0.00  0.00    +0.000 A 
ATOM     27  C   UNL     1       6.737   4.003  11.819  0.00  0.00    +0.000 A 
ATOM     28  C   UNL     1       5.688   3.402  12.516  0.00  0.00    +0.000 A 
ATOM     29  C   UNL     1       5.523   3.645  13.883  0.00  0.00    +0.000 A 
ENDBRANCH  19  24
ENDBRANCH  16  17
ENDBRANCH   3  16
TORSDOF 5
ENDMDL
MODEL 9
REMARK VINA RESULT:      -8.0      1.391      7.544
REMARK  Name = 
REMARK  6 active torsions:
REMARK  status: ('A' for Active; 'I' for Inactive)
REMARK    1  A    between atoms: C_1  and  N_2
REMARK    2  A    between atoms: N_2  and  C_3
REMARK    3  A    between atoms: C_3  and  C_4
REMARK    4  A    between atoms: C_13  and  C_15
REMARK    5  A    between atoms: C_15  and  N_16
REMARK    6  A    between atoms: C_18  and  C_19
REMARK                            x       y       z     vdW  Elec       q    Type
REMARK                         _______ _______ _______ _____ _____    ______ ____
ROOT
ATOM      1  C   UNL     1       7.514   6.709  17.520  0.00  0.00    +0.000 C 
ATOM      2  N   UNL     1       6.332   5.881  17.315  0.00  0.00    +0.000 N 
ATOM      3  C   UNL     1       6.083   4.886  18.257  0.00  0.00    +0.000 C 
ATOM      4  O   UNL     1       6.852   4.718  19.212  0.00  0.00    +0.000 OA
ENDROOT
BRANCH   2   5
ATOM      5  C   UNL     1       5.469   6.216  16.188  0.00  0.00    +0.000 C 
BRANCH   5   6
ATOM      6  C   UNL     1       5.748   5.371  14.992  0.00  0.00    +0.000 A 
ATOM      7  C   UNL     1       6.953   5.131  14.360  0.00  0.00    +0.000 A 
ATOM      8  C   UNL     1       6.728   4.213  13.302  0.00  0.00    +0.000 A 
ATOM      9  C   UNL     1       7.567   3.579  12.366  0.00  0.00    +0.000 A 
ATOM     10  C   UNL     1       7.016   2.665  11.462  0.00  0.00    +0.000 A 
ATOM     11  C   UNL     1       5.650   2.392  11.475  0.00  0.00    +0.000 A 
ATOM     12  C   UNL     1       4.793   3.030  12.382  0.00  0.00    +0.000 A 
ATOM     13  C   UNL     1       5.362   3.934  13.287  0.00  0.00    +0.000 A 
ATOM     14  N   UNL     1       4.784   4.684  14.290  0.00  0.00    +0.000 N 
ATOM     15  H   UNL     1       3.797   4.691  14.515  0.00  0.00    +0.000 HD
ENDBRANCH   5   6
ENDBRANCH   2   5
BRANCH   3  16
ATOM     16  C   UNL     1       4.873   3.960  18.084  0.00  0.00    +0.000 C 
BRANCH  16  17
ATOM     17  N   UNL     1       3.803   4.389  18.977  0.00  0.00    +0.000 N 
ATOM     18  N   UNL     1       3.341   5.668  18.773  0.00  0.00    +0.000 NA
ATOM     19  C   UNL     1       2.489   6.158  19.617  0.00  0.00    +0.000 A 
ATOM     20  C   UNL     1       1.988   5.428  20.796  0.00  0.00    +0.000 A 
ATOM     21  C   UNL     1       2.394   4.164  20.935  0.00  0.00    +0.000 A 
ATOM     22  C   UNL     1       3.319   3.544  19.963  0.00  0.00    +0.000 A 
ATOM     23  O   UNL     1       3.626   2.364  20.096  0.00  0.00    +0.000 OA
BRANCH  19  24
ATOM     24  C   UNL     1       1.987   7.540  19.388  0.00  0.00    +0.000 A 
ATOM     25  C   UNL     1       2.181   8.123  18.126  0.00  0.00    +0.000 A 
ATOM     26  C   UNL     1       1.758   9.430  17.883  0.00  0.00    +0.000 A 
ATOM     27  C   UNL     1       1.150  10.163  18.900  0.00  0.00    +0.000 A 
ATOM     28  C   UNL     1       0.966   9.594  20.161  0.00  0.00    +0.000 A 
ATOM     29  C   UNL     1       1.386   8.285  20.408  0.00  0.00    +0.000 A 
ENDBRANCH  19  24
ENDBRANCH  16  17
ENDBRANCH   3  16
TORSDOF 5
ENDMDL
