MODEL 1
REMARK VINA RESULT:      -8.5      0.000      0.000
REMARK  Name = 
REMARK  6 active torsions:
REMARK  status: ('A' for Active; 'I' for Inactive)
REMARK    1  A    between atoms: C_1  and  C_2
REMARK    2  A    between atoms: C_2  and  C_3
REMARK    3  A    between atoms: C_3  and  C_4
REMARK    4  A    between atoms: N_14  and  C_15
REMARK    5  A    between atoms: C_15  and  C_16
REMARK    6  A    between atoms: N_18  and  C_19
REMARK                            x       y       z     vdW  Elec       q    Type
REMARK                         _______ _______ _______ _____ _____    ______ ____
ROOT
ATOM      1  C   UNL     1       4.223   5.281  18.115  0.00  0.00    +0.000 C 
ATOM      2  N   UNL     1       4.516   5.381  16.698  0.00  0.00    +0.000 N 
ATOM      3  C   UNL     1       5.746   5.935  16.450  0.00  0.00    +0.000 C 
ATOM      4  O   UNL     1       6.126   6.269  15.342  0.00  0.00    +0.000 OA
ATOM      5  N   UNL     1       6.432   6.009  17.618  0.00  0.00    +0.000 N 
ATOM      6  C   UNL     1       5.658   5.561  18.650  0.00  0.00    +0.000 C 
ATOM      7  O   UNL     1       6.035   5.499  19.816  0.00  0.00    +0.000 OA
ATOM      8  H   UNL     1       3.843   5.305  15.947  0.00  0.00    +0.000 HD
ENDROOT
BRANCH   1   9
ATOM      9  C   UNL     1       3.255   6.391  18.559  0.00  0.00    +0.000 A 
ATOM     10  C   UNL     1       2.582   6.303  19.794  0.00  0.00    +0.000 A 
ATOM     11  C   UNL     1       1.768   7.345  20.246  0.00  0.00    +0.000 A 
ATOM     12  C   UNL     1       1.592   8.470  19.456  0.00  0.00    +0.000 A 
ATOM     13  F   UNL     1       0.830   9.478  19.898  0.00  0.00    +0.000 F 
ATOM     14  C   UNL     1       2.193   8.561  18.209  0.00  0.00    +0.000 A 
ATOM     15  C   UNL     1       3.012   7.524  17.758  0.00  0.00    +0.000 A 
ENDBRANCH   1   9
BRANCH   1  17
ATOM     16  C   UNL     1       2.834   3.215  17.426  0.00  0.00    +0.000 C 
ATOM     17  C   UNL     1       3.682   3.896  18.498  0.00  0.00    +0.000 C 
ENDBRANCH   1  17
BRANCH   5  18
ATOM     18  C   UNL     1       7.792   6.484  17.733  0.00  0.00    +0.000 C 
BRANCH  18  19
ATOM     19  C   UNL     1       7.852   7.995  17.948  0.00  0.00    +0.000 C 
ATOM     20  O   UNL     1       7.161   8.749  17.262  0.00  0.00    +0.000 OA
ATOM     21  N   UNL     1       8.869   8.425  18.794  0.00  0.00    +0.000 N 
ATOM     22  H   UNL     1       9.659   7.791  18.899  0.00  0.00    +0.000 HD
BRANCH  21  23
ATOM     23  C   UNL     1       9.106   9.792  19.051  0.00  0.00    +0.000 A 
ATOM     24  C   UNL     1       9.101  10.304  20.366  0.00  0.00    +0.000 A 
ATOM     25  C   UNL     1       9.262  11.672  20.606  0.00  0.00    +0.000 A 
ATOM     26  C   UNL     1       9.392  12.497  19.512  0.00  0.00    +0.000 A 
ATOM     27  C   UNL     1       9.421  11.998  18.230  0.00  0.00    +0.000 A 
ATOM     28  C   UNL     1       9.322  10.646  17.965  0.00  0.00    +0.000 A 
ATOM     29  O   UNL     1       9.518  12.983  17.296  0.00  0.00    +0.000 OA
ATOM     30  C   UNL     1       9.477  14.157  18.134  0.00  0.00    +0.000 C 
ATOM     31  O   UNL     1       9.483  13.853  19.545  0.00  0.00    +0.000 OA
ENDBRANCH  21  23
ENDBRANCH  18  19
ENDBRANCH   5  18
TORSDOF 5
ENDMDL
MODEL 2
REMARK VINA RESULT:      -8.5      0.672      1.369
REMARK  Name = 
REMARK  6 active torsions:
REMARK  status: ('A' for Active; 'I' for Inactive)
REMARK    1  A    between atoms: C_1  and  C_2
REMARK    2  A    between atoms: C_2  and  C_3
REMARK    3  A    between atoms: C_3  and  C_4
REMARK    4  A    between atoms: N_14  and  C_15
REMARK    5  A    between atoms: C_15  and  C_16
REMARK    6  A    between atoms: N_18  and  C_19
REMARK                            x       y       z     vdW  Elec       q    Type
REMARK                         _______ _______ _______ _____ _____    ______ ____
ROOT
ATOM      1  C   UNL     1       4.071   5.411  18.145  0.00  0.00    +0.000 C 
ATOM      2  N   UNL     1       4.369   5.530  16.731  0.00  0.00    +0.000 N 
ATOM      3  C   UNL     1       5.614   6.057  16.495  0.00  0.00    +0.000 C 
ATOM      4  O   UNL     1       6.003   6.402  15.394  0.00  0.00    +0.000 OA
ATOM      5  N   UNL     1       6.299   6.090  17.664  0.00  0.00    +0.000 N 
ATOM      6  C   UNL     1       5.512   5.643  18.687  0.00  0.00    +0.000 C 
ATOM      7  O   UNL     1       5.886   5.548  19.852  0.00  0.00    +0.000 OA
ATOM      8  H   UNL     1       3.695   5.487  15.979  0.00  0.00    +0.000 HD
ENDROOT
BRANCH   1   9
ATOM      9  C   UNL     1       3.132   6.537  18.611  0.00  0.00    +0.000 A 
ATOM     10  C   UNL     1       2.517   6.481  19.877  0.00  0.00    +0.000 A 
ATOM     11  C   UNL     1       1.732   7.538  20.344  0.00  0.00    +0.000 A 
ATOM     12  C   UNL     1       1.527   8.647  19.539  0.00  0.00    +0.000 A 
ATOM     13  F   UNL     1       0.793   9.670  19.994  0.00  0.00    +0.000 F 
ATOM     14  C   UNL     1       2.069   8.708  18.263  0.00  0.00    +0.000 A 
ATOM     15  C   UNL     1       2.859   7.655  17.797  0.00  0.00    +0.000 A 
ENDBRANCH   1   9
BRANCH   1  17
ATOM     16  C   UNL     1       2.809   3.303  17.348  0.00  0.00    +0.000 C 
ATOM     17  C   UNL     1       3.494   4.034  18.501  0.00  0.00    +0.000 C 
ENDBRANCH   1  17
BRANCH   5  18
ATOM     18  C   UNL     1       7.672   6.526  17.790  0.00  0.00    +0.000 C 
BRANCH  18  19
ATOM     19  C   UNL     1       7.776   8.044  17.925  0.00  0.00    +0.000 C 
ATOM     20  O   UNL     1       7.117   8.782  17.191  0.00  0.00    +0.000 OA
ATOM     21  N   UNL     1       8.798   8.488  18.759  0.00  0.00    +0.000 N 
ATOM     22  H   UNL     1       9.567   7.836  18.907  0.00  0.00    +0.000 HD
BRANCH  21  23
ATOM     23  C   UNL     1       9.075   9.858  18.946  0.00  0.00    +0.000 A 
ATOM     24  C   UNL     1       9.308  10.717  17.851  0.00  0.00    +0.000 A 
ATOM     25  C   UNL     1       9.655  12.057  18.049  0.00  0.00    +0.000 A 
ATOM     26  C   UNL     1       9.791  12.492  19.348  0.00  0.00    +0.000 A 
ATOM     27  C   UNL     1       9.540  11.664  20.417  0.00  0.00    +0.000 A 
ATOM     28  C   UNL     1       9.140  10.352  20.254  0.00  0.00    +0.000 A 
ATOM     29  O   UNL     1       9.769  12.279  21.610  0.00  0.00    +0.000 OA
ATOM     30  C   UNL     1      10.256  13.561  21.164  0.00  0.00    +0.000 C 
ATOM     31  O   UNL     1      10.192  13.733  19.733  0.00  0.00    +0.000 OA
ENDBRANCH  21  23
ENDBRANCH  18  19
ENDBRANCH   5  18
TORSDOF 5
ENDMDL
MODEL 3
REMARK VINA RESULT:      -8.1      5.916      9.396
REMARK  Name = 
REMARK  6 active torsions:
REMARK  status: ('A' for Active; 'I' for Inactive)
REMARK    1  A    between atoms: C_1  and  C_2
REMARK    2  A    between atoms: C_2  and  C_3
REMARK    3  A    between atoms: C_3  and  C_4
REMARK    4  A    between atoms: N_14  and  C_15
REMARK    5  A    between atoms: C_15  and  C_16
REMARK    6  A    between atoms: N_18  and  C_19
REMARK                            x       y       z     vdW  Elec       q    Type
REMARK                         _______ _______ _______ _____ _____    ______ ____
ROOT
ATOM      1  C   UNL     1      -0.613  12.254  20.478  0.00  0.00    +0.000 C 
ATOM      2  N   UNL     1      -1.117  12.069  21.826  0.00  0.00    +0.000 N 
ATOM      3  C   UNL     1      -0.578  10.970  22.446  0.00  0.00    +0.000 C 
ATOM      4  O   UNL     1      -0.980  10.529  23.508  0.00  0.00    +0.000 OA
ATOM      5  N   UNL     1       0.454  10.511  21.696  0.00  0.00    +0.000 N 
ATOM      6  C   UNL     1       0.579  11.256  20.558  0.00  0.00    +0.000 C 
ATOM      7  O   UNL     1       1.444  11.072  19.707  0.00  0.00    +0.000 OA
ATOM      8  H   UNL     1      -1.940  12.508  22.215  0.00  0.00    +0.000 HD
ENDROOT
BRANCH   1   9
ATOM      9  C   UNL     1      -1.641  11.785  19.434  0.00  0.00    +0.000 A 
ATOM     10  C   UNL     1      -1.271  10.879  18.420  0.00  0.00    +0.000 A 
ATOM     11  C   UNL     1      -2.215  10.380  17.520  0.00  0.00    +0.000 A 
ATOM     12  C   UNL     1      -3.531  10.806  17.602  0.00  0.00    +0.000 A 
ATOM     13  F   UNL     1      -4.442  10.312  16.754  0.00  0.00    +0.000 F 
ATOM     14  C   UNL     1      -3.916  11.743  18.550  0.00  0.00    +0.000 A 
ATOM     15  C   UNL     1      -2.975  12.238  19.455  0.00  0.00    +0.000 A 
ENDBRANCH   1   9
BRANCH   1  17
ATOM     16  C   UNL     1       0.052  14.050  18.745  0.00  0.00    +0.000 C 
ATOM     17  C   UNL     1      -0.185  13.704  20.214  0.00  0.00    +0.000 C 
ENDBRANCH   1  17
BRANCH   5  18
ATOM     18  C   UNL     1       1.299   9.400  22.070  0.00  0.00    +0.000 C 
BRANCH  18  19
ATOM     19  C   UNL     1       1.035   8.168  21.206  0.00  0.00    +0.000 C 
ATOM     20  O   UNL     1      -0.100   7.696  21.125  0.00  0.00    +0.000 OA
ATOM     21  N   UNL     1       2.177   7.535  20.726  0.00  0.00    +0.000 N 
ATOM     22  H   UNL     1       3.034   7.706  21.249  0.00  0.00    +0.000 HD
BRANCH  21  23
ATOM     23  C   UNL     1       2.116   6.348  19.966  0.00  0.00    +0.000 A 
ATOM     24  C   UNL     1       2.534   6.315  18.619  0.00  0.00    +0.000 A 
ATOM     25  C   UNL     1       2.400   5.154  17.853  0.00  0.00    +0.000 A 
ATOM     26  C   UNL     1       1.817   4.060  18.453  0.00  0.00    +0.000 A 
ATOM     27  C   UNL     1       1.431   4.082  19.773  0.00  0.00    +0.000 A 
ATOM     28  C   UNL     1       1.603   5.195  20.572  0.00  0.00    +0.000 A 
ATOM     29  O   UNL     1       0.844   2.915  20.157  0.00  0.00    +0.000 OA
ATOM     30  C   UNL     1       0.845   2.188  18.911  0.00  0.00    +0.000 C 
ATOM     31  O   UNL     1       1.537   2.876  17.847  0.00  0.00    +0.000 OA
ENDBRANCH  21  23
ENDBRANCH  18  19
ENDBRANCH   5  18
TORSDOF 5
ENDMDL
MODEL 4
REMARK VINA RESULT:      -8.1      4.431      6.655
REMARK  Name = 
REMARK  6 active torsions:
REMARK  status: ('A' for Active; 'I' for Inactive)
REMARK    1  A    between atoms: C_1  and  C_2
REMARK    2  A    between atoms: C_2  and  C_3
REMARK    3  A    between atoms: C_3  and  C_4
REMARK    4  A    between atoms: N_14  and  C_15
REMARK    5  A    between atoms: C_15  and  C_16
REMARK    6  A    between atoms: N_18  and  C_19
REMARK                            x       y       z     vdW  Elec       q    Type
REMARK                         _______ _______ _______ _____ _____    ______ ____
ROOT
ATOM      1  C   UNL     1       4.817   3.989  17.766  0.00  0.00    +0.000 C 
ATOM      2  N   UNL     1       5.316   3.000  18.703  0.00  0.00    +0.000 N 
ATOM      3  C   UNL     1       4.592   2.962  19.868  0.00  0.00    +0.000 C 
ATOM      4  O   UNL     1       4.932   2.333  20.853  0.00  0.00    +0.000 OA
ATOM      5  N   UNL     1       3.468   3.702  19.704  0.00  0.00    +0.000 N 
ATOM      6  C   UNL     1       3.456   4.277  18.465  0.00  0.00    +0.000 C 
ATOM      7  O   UNL     1       2.546   4.985  18.044  0.00  0.00    +0.000 OA
ATOM      8  H   UNL     1       6.221   2.551  18.663  0.00  0.00    +0.000 HD
ENDROOT
BRANCH   1   9
ATOM      9  C   UNL     1       5.702   5.248  17.769  0.00  0.00    +0.000 A 
ATOM     10  C   UNL     1       6.921   5.267  18.473  0.00  0.00    +0.000 A 
ATOM     11  C   UNL     1       7.772   6.373  18.412  0.00  0.00    +0.000 A 
ATOM     12  C   UNL     1       7.399   7.484  17.673  0.00  0.00    +0.000 A 
ATOM     13  F   UNL     1       8.224   8.536  17.596  0.00  0.00    +0.000 F 
ATOM     14  C   UNL     1       6.178   7.522  17.017  0.00  0.00    +0.000 A 
ATOM     15  C   UNL     1       5.329   6.415  17.071  0.00  0.00    +0.000 A 
ENDBRANCH   1   9
BRANCH   1  17
ATOM     16  C   UNL     1       5.894   3.613  15.449  0.00  0.00    +0.000 C 
ATOM     17  C   UNL     1       4.673   3.423  16.347  0.00  0.00    +0.000 C 
ENDBRANCH   1  17
BRANCH   5  18
ATOM     18  C   UNL     1       2.433   3.841  20.704  0.00  0.00    +0.000 C 
BRANCH  18  19
ATOM     19  C   UNL     1       1.647   5.140  20.533  0.00  0.00    +0.000 C 
ATOM     20  O   UNL     1       0.448   5.110  20.255  0.00  0.00    +0.000 OA
ATOM     21  N   UNL     1       2.425   6.293  20.504  0.00  0.00    +0.000 N 
ATOM     22  H   UNL     1       3.401   6.166  20.246  0.00  0.00    +0.000 HD
BRANCH  21  23
ATOM     23  C   UNL     1       1.867   7.571  20.290  0.00  0.00    +0.000 A 
ATOM     24  C   UNL     1       1.877   8.173  19.014  0.00  0.00    +0.000 A 
ATOM     25  C   UNL     1       1.389   9.470  18.827  0.00  0.00    +0.000 A 
ATOM     26  C   UNL     1       0.932  10.143  19.938  0.00  0.00    +0.000 A 
ATOM     27  C   UNL     1       0.899   9.549  21.178  0.00  0.00    +0.000 A 
ATOM     28  C   UNL     1       1.320   8.250  21.384  0.00  0.00    +0.000 A 
ATOM     29  O   UNL     1       0.448  10.398  22.143  0.00  0.00    +0.000 OA
ATOM     30  C   UNL     1       0.268  11.607  21.378  0.00  0.00    +0.000 C 
ATOM     31  O   UNL     1       0.493  11.429  19.963  0.00  0.00    +0.000 OA
ENDBRANCH  21  23
ENDBRANCH  18  19
ENDBRANCH   5  18
TORSDOF 5
ENDMDL
MODEL 5
REMARK VINA RESULT:      -8.1      5.792      9.267
REMARK  Name = 
REMARK  6 active torsions:
REMARK  status: ('A' for Active; 'I' for Inactive)
REMARK    1  A    between atoms: C_1  and  C_2
REMARK    2  A    between atoms: C_2  and  C_3
REMARK    3  A    between atoms: C_3  and  C_4
REMARK    4  A    between atoms: N_14  and  C_15
REMARK    5  A    between atoms: C_15  and  C_16
REMARK    6  A    between atoms: N_18  and  C_19
REMARK                            x       y       z     vdW  Elec       q    Type
REMARK                         _______ _______ _______ _____ _____    ______ ____
ROOT
ATOM      1  C   UNL     1      -0.280  12.119  19.668  0.00  0.00    +0.000 C 
ATOM      2  N   UNL     1      -0.616  12.470  21.035  0.00  0.00    +0.000 N 
ATOM      3  C   UNL     1      -0.244  11.503  21.935  0.00  0.00    +0.000 C 
ATOM      4  O   UNL     1      -0.576  11.508  23.107  0.00  0.00    +0.000 OA
ATOM      5  N   UNL     1       0.549  10.603  21.303  0.00  0.00    +0.000 N 
ATOM      6  C   UNL     1       0.668  10.925  19.981  0.00  0.00    +0.000 C 
ATOM      7  O   UNL     1       1.345  10.291  19.177  0.00  0.00    +0.000 OA
ATOM      8  H   UNL     1      -1.262  13.193  21.319  0.00  0.00    +0.000 HD
ENDROOT
BRANCH   1   9
ATOM      9  C   UNL     1      -1.522  11.634  18.900  0.00  0.00    +0.000 A 
ATOM     10  C   UNL     1      -2.807  12.092  19.252  0.00  0.00    +0.000 A 
ATOM     11  C   UNL     1      -3.931  11.727  18.508  0.00  0.00    +0.000 A 
ATOM     12  C   UNL     1      -3.788  10.874  17.425  0.00  0.00    +0.000 A 
ATOM     13  F   UNL     1      -4.862  10.540  16.698  0.00  0.00    +0.000 F 
ATOM     14  C   UNL     1      -2.546  10.357  17.088  0.00  0.00    +0.000 A 
ATOM     15  C   UNL     1      -1.420  10.727  17.827  0.00  0.00    +0.000 A 
ENDBRANCH   1   9
BRANCH   1  17
ATOM     16  C   UNL     1       1.698  13.777  19.569  0.00  0.00    +0.000 C 
ATOM     17  C   UNL     1       0.407  13.274  18.926  0.00  0.00    +0.000 C 
ENDBRANCH   1  17
BRANCH   5  18
ATOM     18  C   UNL     1       1.181   9.478  21.953  0.00  0.00    +0.000 C 
BRANCH  18  19
ATOM     19  C   UNL     1       0.967   8.179  21.178  0.00  0.00    +0.000 C 
ATOM     20  O   UNL     1      -0.129   7.618  21.192  0.00  0.00    +0.000 OA
ATOM     21  N   UNL     1       2.128   7.607  20.665  0.00  0.00    +0.000 N 
ATOM     22  H   UNL     1       2.996   7.875  21.124  0.00  0.00    +0.000 HD
BRANCH  21  23
ATOM     23  C   UNL     1       2.119   6.376  19.977  0.00  0.00    +0.000 A 
ATOM     24  C   UNL     1       2.307   6.313  18.580  0.00  0.00    +0.000 A 
ATOM     25  C   UNL     1       2.223   5.095  17.898  0.00  0.00    +0.000 A 
ATOM     26  C   UNL     1       1.918   3.973  18.635  0.00  0.00    +0.000 A 
ATOM     27  C   UNL     1       1.758   4.029  20.000  0.00  0.00    +0.000 A 
ATOM     28  C   UNL     1       1.892   5.206  20.710  0.00  0.00    +0.000 A 
ATOM     29  O   UNL     1       1.424   2.819  20.529  0.00  0.00    +0.000 OA
ATOM     30  C   UNL     1       1.327   2.018  19.333  0.00  0.00    +0.000 C 
ATOM     31  O   UNL     1       1.721   2.724  18.137  0.00  0.00    +0.000 OA
ENDBRANCH  21  23
ENDBRANCH  18  19
ENDBRANCH   5  18
TORSDOF 5
ENDMDL
MODEL 6
REMARK VINA RESULT:      -8.0      4.322      6.679
REMARK  Name = 
REMARK  6 active torsions:
REMARK  status: ('A' for Active; 'I' for Inactive)
REMARK    1  A    between atoms: C_1  and  C_2
REMARK    2  A    between atoms: C_2  and  C_3
REMARK    3  A    between atoms: C_3  and  C_4
REMARK    4  A    between atoms: N_14  and  C_15
REMARK    5  A    between atoms: C_15  and  C_16
REMARK    6  A    between atoms: N_18  and  C_19
REMARK                            x       y       z     vdW  Elec       q    Type
REMARK                         _______ _______ _______ _____ _____    ______ ____
ROOT
ATOM      1  C   UNL     1       4.866   4.268  17.721  0.00  0.00    +0.000 C 
ATOM      2  N   UNL     1       5.321   3.126  18.491  0.00  0.00    +0.000 N 
ATOM      3  C   UNL     1       4.629   2.972  19.667  0.00  0.00    +0.000 C 
ATOM      4  O   UNL     1       4.952   2.189  20.542  0.00  0.00    +0.000 OA
ATOM      5  N   UNL     1       3.555   3.800  19.650  0.00  0.00    +0.000 N 
ATOM      6  C   UNL     1       3.549   4.543  18.504  0.00  0.00    +0.000 C 
ATOM      7  O   UNL     1       2.679   5.361  18.219  0.00  0.00    +0.000 OA
ATOM      8  H   UNL     1       6.190   2.629  18.356  0.00  0.00    +0.000 HD
ENDROOT
BRANCH   1   9
ATOM      9  C   UNL     1       5.836   5.454  17.864  0.00  0.00    +0.000 A 
ATOM     10  C   UNL     1       6.954   5.367  18.717  0.00  0.00    +0.000 A 
ATOM     11  C   UNL     1       7.887   6.403  18.789  0.00  0.00    +0.000 A 
ATOM     12  C   UNL     1       7.697   7.551  18.036  0.00  0.00    +0.000 A 
ATOM     13  F   UNL     1       8.602   8.535  18.088  0.00  0.00    +0.000 F 
ATOM     14  C   UNL     1       6.576   7.694  17.232  0.00  0.00    +0.000 A 
ATOM     15  C   UNL     1       5.644   6.655  17.153  0.00  0.00    +0.000 A 
ENDBRANCH   1   9
BRANCH   1  17
ATOM     16  C   UNL     1       5.914   3.619  15.451  0.00  0.00    +0.000 C 
ATOM     17  C   UNL     1       4.643   3.918  16.243  0.00  0.00    +0.000 C 
ENDBRANCH   1  17
BRANCH   5  18
ATOM     18  C   UNL     1       2.561   3.863  20.697  0.00  0.00    +0.000 C 
BRANCH  18  19
ATOM     19  C   UNL     1       1.679   5.104  20.570  0.00  0.00    +0.000 C 
ATOM     20  O   UNL     1       0.546   5.017  20.096  0.00  0.00    +0.000 OA
ATOM     21  N   UNL     1       2.327   6.310  20.821  0.00  0.00    +0.000 N 
ATOM     22  H   UNL     1       3.340   6.302  20.713  0.00  0.00    +0.000 HD
BRANCH  21  23
ATOM     23  C   UNL     1       1.678   7.555  20.686  0.00  0.00    +0.000 A 
ATOM     24  C   UNL     1       0.881   8.084  21.723  0.00  0.00    +0.000 A 
ATOM     25  C   UNL     1       0.182   9.282  21.553  0.00  0.00    +0.000 A 
ATOM     26  C   UNL     1       0.276   9.904  20.328  0.00  0.00    +0.000 A 
ATOM     27  C   UNL     1       1.072   9.403  19.324  0.00  0.00    +0.000 A 
ATOM     28  C   UNL     1       1.820   8.253  19.482  0.00  0.00    +0.000 A 
ATOM     29  O   UNL     1       0.994  10.146  18.186  0.00  0.00    +0.000 OA
ATOM     30  C   UNL     1       0.008  11.127  18.570  0.00  0.00    +0.000 C 
ATOM     31  O   UNL     1      -0.388  11.030  19.955  0.00  0.00    +0.000 OA
ENDBRANCH  21  23
ENDBRANCH  18  19
ENDBRANCH   5  18
TORSDOF 5
ENDMDL
MODEL 7
REMARK VINA RESULT:      -7.9      5.861      9.208
REMARK  Name = 
REMARK  6 active torsions:
REMARK  status: ('A' for Active; 'I' for Inactive)
REMARK    1  A    between atoms: C_1  and  C_2
REMARK    2  A    between atoms: C_2  and  C_3
REMARK    3  A    between atoms: C_3  and  C_4
REMARK    4  A    between atoms: N_14  and  C_15
REMARK    5  A    between atoms: C_15  and  C_16
REMARK    6  A    between atoms: N_18  and  C_19
REMARK                            x       y       z     vdW  Elec       q    Type
REMARK                         _______ _______ _______ _____ _____    ______ ____
ROOT
ATOM      1  C   UNL     1      -0.692  12.145  20.362  0.00  0.00    +0.000 C 
ATOM      2  N   UNL     1      -1.107  11.954  21.738  0.00  0.00    +0.000 N 
ATOM      3  C   UNL     1      -0.482  10.888  22.336  0.00  0.00    +0.000 C 
ATOM      4  O   UNL     1      -0.800  10.443  23.424  0.00  0.00    +0.000 OA
ATOM      5  N   UNL     1       0.525  10.469  21.531  0.00  0.00    +0.000 N 
ATOM      6  C   UNL     1       0.549  11.205  20.381  0.00  0.00    +0.000 C 
ATOM      7  O   UNL     1       1.371  11.051  19.483  0.00  0.00    +0.000 OA
ATOM      8  H   UNL     1      -1.926  12.358  22.171  0.00  0.00    +0.000 HD
ENDROOT
BRANCH   1   9
ATOM      9  C   UNL     1      -1.755  11.616  19.384  0.00  0.00    +0.000 A 
ATOM     10  C   UNL     1      -3.057  12.153  19.381  0.00  0.00    +0.000 A 
ATOM     11  C   UNL     1      -4.004  11.741  18.441  0.00  0.00    +0.000 A 
ATOM     12  C   UNL     1      -3.672  10.764  17.516  0.00  0.00    +0.000 A 
ATOM     13  F   UNL     1      -4.572  10.384  16.601  0.00  0.00    +0.000 F 
ATOM     14  C   UNL     1      -2.418  10.171  17.530  0.00  0.00    +0.000 A 
ATOM     15  C   UNL     1      -1.467  10.587  18.465  0.00  0.00    +0.000 A 
ENDBRANCH   1   9
BRANCH   1  17
ATOM     16  C   UNL     1      -0.024  13.908  18.596  0.00  0.00    +0.000 C 
ATOM     17  C   UNL     1      -0.349  13.611  20.058  0.00  0.00    +0.000 C 
ENDBRANCH   1  17
BRANCH   5  18
ATOM     18  C   UNL     1       1.443   9.404  21.866  0.00  0.00    +0.000 C 
BRANCH  18  19
ATOM     19  C   UNL     1       1.067   8.092  21.178  0.00  0.00    +0.000 C 
ATOM     20  O   UNL     1      -0.100   7.700  21.182  0.00  0.00    +0.000 OA
ATOM     21  N   UNL     1       2.147   7.318  20.765  0.00  0.00    +0.000 N 
ATOM     22  H   UNL     1       3.028   7.492  21.244  0.00  0.00    +0.000 HD
BRANCH  21  23
ATOM     23  C   UNL     1       1.980   6.050  20.171  0.00  0.00    +0.000 A 
ATOM     24  C   UNL     1       1.318   5.003  20.847  0.00  0.00    +0.000 A 
ATOM     25  C   UNL     1       1.222   3.729  20.280  0.00  0.00    +0.000 A 
ATOM     26  C   UNL     1       1.825   3.530  19.059  0.00  0.00    +0.000 A 
ATOM     27  C   UNL     1       2.450   4.555  18.387  0.00  0.00    +0.000 A 
ATOM     28  C   UNL     1       2.511   5.838  18.894  0.00  0.00    +0.000 A 
ATOM     29  O   UNL     1       3.012   4.138  17.219  0.00  0.00    +0.000 OA
ATOM     30  C   UNL     1       2.726   2.724  17.271  0.00  0.00    +0.000 C 
ATOM     31  O   UNL     1       1.901   2.347  18.393  0.00  0.00    +0.000 OA
ENDBRANCH  21  23
ENDBRANCH  18  19
ENDBRANCH   5  18
TORSDOF 5
ENDMDL
MODEL 8
REMARK VINA RESULT:      -7.9      5.480      8.603
REMARK  Name = 
REMARK  6 active torsions:
REMARK  status: ('A' for Active; 'I' for Inactive)
REMARK    1  A    between atoms: C_1  and  C_2
REMARK    2  A    between atoms: C_2  and  C_3
REMARK    3  A    between atoms: C_3  and  C_4
REMARK    4  A    between atoms: N_14  and  C_15
REMARK    5  A    between atoms: C_15  and  C_16
REMARK    6  A    between atoms: N_18  and  C_19
REMARK                            x       y       z     vdW  Elec       q    Type
REMARK                         _______ _______ _______ _____ _____    ______ ____
ROOT
ATOM      1  C   UNL     1      -0.917  10.818  18.813  0.00  0.00    +0.000 C 
ATOM      2  N   UNL     1       0.064  10.498  17.794  0.00  0.00    +0.000 N 
ATOM      3  C   UNL     1       1.184   9.894  18.310  0.00  0.00    +0.000 C 
ATOM      4  O   UNL     1       2.199   9.694  17.667  0.00  0.00    +0.000 OA
ATOM      5  N   UNL     1       0.940   9.556  19.600  0.00  0.00    +0.000 N 
ATOM      6  C   UNL     1      -0.307   9.973  19.970  0.00  0.00    +0.000 C 
ATOM      7  O   UNL     1      -0.795   9.781  21.079  0.00  0.00    +0.000 OA
ATOM      8  H   UNL     1       0.087  10.873  16.856  0.00  0.00    +0.000 HD
ENDROOT
BRANCH   1   9
ATOM      9  C   UNL     1      -0.883  12.315  19.163  0.00  0.00    +0.000 A 
ATOM     10  C   UNL     1      -0.028  13.195  18.470  0.00  0.00    +0.000 A 
ATOM     11  C   UNL     1      -0.051  14.568  18.720  0.00  0.00    +0.000 A 
ATOM     12  C   UNL     1      -0.904  15.075  19.688  0.00  0.00    +0.000 A 
ATOM     13  F   UNL     1      -0.943  16.394  19.913  0.00  0.00    +0.000 F 
ATOM     14  C   UNL     1      -1.715  14.230  20.431  0.00  0.00    +0.000 A 
ATOM     15  C   UNL     1      -1.699  12.856  20.177  0.00  0.00    +0.000 A 
ENDBRANCH   1   9
BRANCH   1  17
ATOM     16  C   UNL     1      -2.484   9.940  16.957  0.00  0.00    +0.000 C 
ATOM     17  C   UNL     1      -2.333  10.381  18.411  0.00  0.00    +0.000 C 
ENDBRANCH   1  17
BRANCH   5  18
ATOM     18  C   UNL     1       1.872   8.844  20.444  0.00  0.00    +0.000 C 
BRANCH  18  19
ATOM     19  C   UNL     1       1.858   7.342  20.166  0.00  0.00    +0.000 C 
ATOM     20  O   UNL     1       1.249   6.576  20.914  0.00  0.00    +0.000 OA
ATOM     21  N   UNL     1       2.735   6.924  19.170  0.00  0.00    +0.000 N 
ATOM     22  H   UNL     1       3.520   7.544  18.979  0.00  0.00    +0.000 HD
BRANCH  21  23
ATOM     23  C   UNL     1       2.895   5.564  18.831  0.00  0.00    +0.000 A 
ATOM     24  C   UNL     1       2.045   4.935  17.896  0.00  0.00    +0.000 A 
ATOM     25  C   UNL     1       2.164   3.569  17.622  0.00  0.00    +0.000 A 
ATOM     26  C   UNL     1       3.115   2.862  18.322  0.00  0.00    +0.000 A 
ATOM     27  C   UNL     1       3.961   3.477  19.215  0.00  0.00    +0.000 A 
ATOM     28  C   UNL     1       3.907   4.834  19.465  0.00  0.00    +0.000 A 
ATOM     29  O   UNL     1       4.798   2.593  19.825  0.00  0.00    +0.000 OA
ATOM     30  C   UNL     1       4.335   1.349  19.261  0.00  0.00    +0.000 C 
ATOM     31  O   UNL     1       3.325   1.521  18.245  0.00  0.00    +0.000 OA
ENDBRANCH  21  23
ENDBRANCH  18  19
ENDBRANCH   5  18
TORSDOF 5
ENDMDL
MODEL 9
REMARK VINA RESULT:      -7.9      5.580      8.945
REMARK  Name = 
REMARK  6 active torsions:
REMARK  status: ('A' for Active; 'I' for Inactive)
REMARK    1  A    between atoms: C_1  and  C_2
REMARK    2  A    between atoms: C_2  and  C_3
REMARK    3  A    between atoms: C_3  and  C_4
REMARK    4  A    between atoms: N_14  and  C_15
REMARK    5  A    between atoms: C_15  and  C_16
REMARK    6  A    between atoms: N_18  and  C_19
REMARK                            x       y       z     vdW  Elec       q    Type
REMARK                         _______ _______ _______ _____ _____    ______ ____
ROOT
ATOM      1  C   UNL     1       2.560   6.311  18.536  0.00  0.00    +0.000 C 
ATOM      2  N   UNL     1       2.127   6.319  19.921  0.00  0.00    +0.000 N 
ATOM      3  C   UNL     1       1.857   7.583  20.382  0.00  0.00    +0.000 C 
ATOM      4  O   UNL     1       1.644   7.844  21.552  0.00  0.00    +0.000 OA
ATOM      5  N   UNL     1       1.846   8.437  19.329  0.00  0.00    +0.000 N 
ATOM      6  C   UNL     1       2.157   7.771  18.177  0.00  0.00    +0.000 C 
ATOM      7  O   UNL     1       2.201   8.296  17.069  0.00  0.00    +0.000 OA
ATOM      8  H   UNL     1       2.235   5.561  20.579  0.00  0.00    +0.000 HD
ENDROOT
BRANCH   1   9
ATOM      9  C   UNL     1       4.085   6.131  18.435  0.00  0.00    +0.000 A 
ATOM     10  C   UNL     1       4.810   6.738  17.391  0.00  0.00    +0.000 A 
ATOM     11  C   UNL     1       6.203   6.654  17.338  0.00  0.00    +0.000 A 
ATOM     12  C   UNL     1       6.884   5.935  18.308  0.00  0.00    +0.000 A 
ATOM     13  F   UNL     1       8.221   5.872  18.270  0.00  0.00    +0.000 F 
ATOM     14  C   UNL     1       6.196   5.276  19.315  0.00  0.00    +0.000 A 
ATOM     15  C   UNL     1       4.803   5.365  19.374  0.00  0.00    +0.000 A 
ENDBRANCH   1   9
BRANCH   1  17
ATOM     16  C   UNL     1       1.480   3.966  18.461  0.00  0.00    +0.000 C 
ATOM     17  C   UNL     1       1.827   5.247  17.706  0.00  0.00    +0.000 C 
ENDBRANCH   1  17
BRANCH   5  18
ATOM     18  C   UNL     1       1.533   9.845  19.426  0.00  0.00    +0.000 C 
BRANCH  18  19
ATOM     19  C   UNL     1       0.034  10.105  19.289  0.00  0.00    +0.000 C 
ATOM     20  O   UNL     1      -0.729   9.852  20.221  0.00  0.00    +0.000 OA
ATOM     21  N   UNL     1      -0.387  10.428  18.002  0.00  0.00    +0.000 N 
ATOM     22  H   UNL     1       0.222  10.126  17.245  0.00  0.00    +0.000 HD
BRANCH  21  23
ATOM     23  C   UNL     1      -1.746  10.637  17.687  0.00  0.00    +0.000 A 
ATOM     24  C   UNL     1      -2.297  10.182  16.470  0.00  0.00    +0.000 A 
ATOM     25  C   UNL     1      -3.625  10.459  16.134  0.00  0.00    +0.000 A 
ATOM     26  C   UNL     1      -4.359  11.217  17.018  0.00  0.00    +0.000 A 
ATOM     27  C   UNL     1      -3.832  11.642  18.215  0.00  0.00    +0.000 A 
ATOM     28  C   UNL     1      -2.542  11.336  18.601  0.00  0.00    +0.000 A 
ATOM     29  O   UNL     1      -4.709  12.408  18.921  0.00  0.00    +0.000 OA
ATOM     30  C   UNL     1      -5.817  12.470  17.999  0.00  0.00    +0.000 C 
ATOM     31  O   UNL     1      -5.635  11.647  16.827  0.00  0.00    +0.000 OA
ENDBRANCH  21  23
ENDBRANCH  18  19
ENDBRANCH   5  18
TORSDOF 5
ENDMDL
