MODEL 1
REMARK VINA RESULT:      -7.5      0.000      0.000
REMARK  Name = 
REMARK  4 active torsions:
REMARK  status: ('A' for Active; 'I' for Inactive)
REMARK    1  A    between atoms: C_1  and  N_2
REMARK    2  A    between atoms: N_2  and  C_22
REMARK    3  A    between atoms: C_3  and  C_5
REMARK    4  A    between atoms: N_7  and  C_8
REMARK                            x       y       z     vdW  Elec       q    Type
REMARK                         _______ _______ _______ _____ _____    ______ ____
ROOT
ATOM      1  C   UNL     1      -0.000  12.272  19.864  0.00  0.00    +0.000 A 
ATOM      2  N   UNL     1       0.764  11.266  19.562  0.00  0.00    +0.000 NA
ATOM      3  N   UNL     1       0.661  10.074  20.250  0.00  0.00    +0.000 N 
ATOM      4  C   UNL     1      -0.100   9.924  21.410  0.00  0.00    +0.000 A 
ATOM      5  O   UNL     1      -0.199   8.912  22.099  0.00  0.00    +0.000 OA
ATOM      6  C   UNL     1      -0.855  11.112  21.852  0.00  0.00    +0.000 A 
ATOM      7  C   UNL     1      -1.524  11.070  23.089  0.00  0.00    +0.000 A 
ATOM      8  C   UNL     1      -2.249  12.171  23.536  0.00  0.00    +0.000 A 
ATOM      9  C   UNL     1      -2.350  13.292  22.721  0.00  0.00    +0.000 A 
ATOM     10  C   UNL     1      -1.696  13.328  21.481  0.00  0.00    +0.000 A 
ATOM     11  C   UNL     1      -0.899  12.253  21.056  0.00  0.00    +0.000 A 
ENDROOT
BRANCH   3  12
ATOM     12  C   UNL     1       1.396   8.994  19.652  0.00  0.00    +0.000 A 
ATOM     13  C   UNL     1       1.708   7.821  20.355  0.00  0.00    +0.000 A 
ATOM     14  C   UNL     1       2.423   6.779  19.754  0.00  0.00    +0.000 A 
ATOM     15  C   UNL     1       2.843   6.891  18.434  0.00  0.00    +0.000 A 
ATOM     16  C   UNL     1       2.534   8.037  17.709  0.00  0.00    +0.000 A 
ATOM     17  C   UNL     1       1.810   9.074  18.309  0.00  0.00    +0.000 A 
ENDBRANCH   3  12
BRANCH   1  20
ATOM     18  C   UNL     1       1.651  14.665  20.706  0.00  0.00    +0.000 C 
ATOM     19  N   UNL     1       0.945  14.638  19.417  0.00  0.00    +0.000 N 
ATOM     20  C   UNL     1       0.131  13.546  19.009  0.00  0.00    +0.000 C 
ATOM     21  O   UNL     1      -0.513  13.513  17.960  0.00  0.00    +0.000 OA
BRANCH  19  22
ATOM     22  C   UNL     1       1.022  15.860  18.618  0.00  0.00    +0.000 A 
ATOM     23  C   UNL     1      -0.081  16.709  18.425  0.00  0.00    +0.000 A 
ATOM     24  C   UNL     1      -0.008  17.863  17.631  0.00  0.00    +0.000 A 
ATOM     25  C   UNL     1       1.182  18.214  17.013  0.00  0.00    +0.000 A 
ATOM     26  C   UNL     1       2.301  17.415  17.202  0.00  0.00    +0.000 A 
ATOM     27  C   UNL     1       2.222  16.261  17.997  0.00  0.00    +0.000 A 
ENDBRANCH  19  22
ENDBRANCH   1  20
TORSDOF 3
ENDMDL
MODEL 2
REMARK VINA RESULT:      -7.4      2.765      7.258
REMARK  Name = 
REMARK  4 active torsions:
REMARK  status: ('A' for Active; 'I' for Inactive)
REMARK    1  A    between atoms: C_1  and  N_2
REMARK    2  A    between atoms: N_2  and  C_22
REMARK    3  A    between atoms: C_3  and  C_5
REMARK    4  A    between atoms: N_7  and  C_8
REMARK                            x       y       z     vdW  Elec       q    Type
REMARK                         _______ _______ _______ _____ _____    ______ ____
ROOT
ATOM      1  C   UNL     1       1.855  14.800  19.890  0.00  0.00    +0.000 A 
ATOM      2  N   UNL     1       3.076  14.742  19.452  0.00  0.00    +0.000 NA
ATOM      3  N   UNL     1       3.572  15.724  18.618  0.00  0.00    +0.000 N 
ATOM      4  C   UNL     1       2.772  16.712  18.041  0.00  0.00    +0.000 A 
ATOM      5  O   UNL     1       3.133  17.584  17.257  0.00  0.00    +0.000 OA
ATOM      6  C   UNL     1       1.344  16.694  18.414  0.00  0.00    +0.000 A 
ATOM      7  C   UNL     1       0.460  17.569  17.757  0.00  0.00    +0.000 A 
ATOM      8  C   UNL     1      -0.892  17.582  18.084  0.00  0.00    +0.000 A 
ATOM      9  C   UNL     1      -1.349  16.759  19.106  0.00  0.00    +0.000 A 
ATOM     10  C   UNL     1      -0.465  15.898  19.772  0.00  0.00    +0.000 A 
ATOM     11  C   UNL     1       0.885  15.821  19.396  0.00  0.00    +0.000 A 
ENDROOT
BRANCH   3  12
ATOM     12  C   UNL     1       4.991  15.649  18.413  0.00  0.00    +0.000 A 
ATOM     13  C   UNL     1       5.602  14.547  17.796  0.00  0.00    +0.000 A 
ATOM     14  C   UNL     1       6.987  14.493  17.604  0.00  0.00    +0.000 A 
ATOM     15  C   UNL     1       7.791  15.544  18.028  0.00  0.00    +0.000 A 
ATOM     16  C   UNL     1       7.211  16.655  18.629  0.00  0.00    +0.000 A 
ATOM     17  C   UNL     1       5.825  16.711  18.811  0.00  0.00    +0.000 A 
ENDBRANCH   3  12
BRANCH   1  20
ATOM     18  C   UNL     1       0.520  12.239  18.985  0.00  0.00    +0.000 C 
ATOM     19  N   UNL     1       0.805  12.492  20.404  0.00  0.00    +0.000 N 
ATOM     20  C   UNL     1       1.397  13.700  20.866  0.00  0.00    +0.000 C 
ATOM     21  O   UNL     1       1.603  13.964  22.051  0.00  0.00    +0.000 OA
BRANCH  19  22
ATOM     22  C   UNL     1       0.332  11.477  21.344  0.00  0.00    +0.000 A 
ATOM     23  C   UNL     1      -0.745  11.700  22.219  0.00  0.00    +0.000 A 
ATOM     24  C   UNL     1      -1.173  10.733  23.141  0.00  0.00    +0.000 A 
ATOM     25  C   UNL     1      -0.544   9.500  23.206  0.00  0.00    +0.000 A 
ATOM     26  C   UNL     1       0.507   9.233  22.340  0.00  0.00    +0.000 A 
ATOM     27  C   UNL     1       0.932  10.205  21.420  0.00  0.00    +0.000 A 
ENDBRANCH  19  22
ENDBRANCH   1  20
TORSDOF 3
ENDMDL
MODEL 3
REMARK VINA RESULT:      -7.4      0.085      1.306
REMARK  Name = 
REMARK  4 active torsions:
REMARK  status: ('A' for Active; 'I' for Inactive)
REMARK    1  A    between atoms: C_1  and  N_2
REMARK    2  A    between atoms: N_2  and  C_22
REMARK    3  A    between atoms: C_3  and  C_5
REMARK    4  A    between atoms: N_7  and  C_8
REMARK                            x       y       z     vdW  Elec       q    Type
REMARK                         _______ _______ _______ _____ _____    ______ ____
ROOT
ATOM      1  C   UNL     1      -0.004  12.216  19.839  0.00  0.00    +0.000 A 
ATOM      2  N   UNL     1       0.766  11.220  19.523  0.00  0.00    +0.000 NA
ATOM      3  N   UNL     1       0.681  10.022  20.203  0.00  0.00    +0.000 N 
ATOM      4  C   UNL     1      -0.068   9.856  21.368  0.00  0.00    +0.000 A 
ATOM      5  O   UNL     1      -0.152   8.839  22.051  0.00  0.00    +0.000 OA
ATOM      6  C   UNL     1      -0.831  11.034  21.826  0.00  0.00    +0.000 A 
ATOM      7  C   UNL     1      -1.488  10.977  23.068  0.00  0.00    +0.000 A 
ATOM      8  C   UNL     1      -2.219  12.067  23.529  0.00  0.00    +0.000 A 
ATOM      9  C   UNL     1      -2.338  13.193  22.724  0.00  0.00    +0.000 A 
ATOM     10  C   UNL     1      -1.695  13.244  21.478  0.00  0.00    +0.000 A 
ATOM     11  C   UNL     1      -0.892  12.180  21.038  0.00  0.00    +0.000 A 
ENDROOT
BRANCH   3  12
ATOM     12  C   UNL     1       1.420   8.954  19.590  0.00  0.00    +0.000 A 
ATOM     13  C   UNL     1       1.878   9.022  18.266  0.00  0.00    +0.000 A 
ATOM     14  C   UNL     1       2.598   7.971  17.687  0.00  0.00    +0.000 A 
ATOM     15  C   UNL     1       2.875   6.826  18.424  0.00  0.00    +0.000 A 
ATOM     16  C   UNL     1       2.447   6.737  19.744  0.00  0.00    +0.000 A 
ATOM     17  C   UNL     1       1.735   7.794  20.324  0.00  0.00    +0.000 A 
ENDBRANCH   3  12
BRANCH   1  20
ATOM     18  C   UNL     1       1.652  14.609  20.671  0.00  0.00    +0.000 C 
ATOM     19  N   UNL     1       0.924  14.589  19.395  0.00  0.00    +0.000 N 
ATOM     20  C   UNL     1       0.107  13.498  18.992  0.00  0.00    +0.000 C 
ATOM     21  O   UNL     1      -0.555  13.471  17.954  0.00  0.00    +0.000 OA
BRANCH  19  22
ATOM     22  C   UNL     1       0.983  15.819  18.605  0.00  0.00    +0.000 A 
ATOM     23  C   UNL     1       2.162  16.262  17.983  0.00  0.00    +0.000 A 
ATOM     24  C   UNL     1       2.220  17.459  17.253  0.00  0.00    +0.000 A 
ATOM     25  C   UNL     1       1.088  18.246  17.109  0.00  0.00    +0.000 A 
ATOM     26  C   UNL     1      -0.102  17.828  17.686  0.00  0.00    +0.000 A 
ATOM     27  C   UNL     1      -0.153  16.630  18.417  0.00  0.00    +0.000 A 
ENDBRANCH  19  22
ENDBRANCH   1  20
TORSDOF 3
ENDMDL
MODEL 4
REMARK VINA RESULT:      -7.4      2.989      7.503
REMARK  Name = 
REMARK  4 active torsions:
REMARK  status: ('A' for Active; 'I' for Inactive)
REMARK    1  A    between atoms: C_1  and  N_2
REMARK    2  A    between atoms: N_2  and  C_22
REMARK    3  A    between atoms: C_3  and  C_5
REMARK    4  A    between atoms: N_7  and  C_8
REMARK                            x       y       z     vdW  Elec       q    Type
REMARK                         _______ _______ _______ _____ _____    ______ ____
ROOT
ATOM      1  C   UNL     1       1.185  10.440  18.477  0.00  0.00    +0.000 A 
ATOM      2  N   UNL     1       2.008  11.434  18.623  0.00  0.00    +0.000 NA
ATOM      3  N   UNL     1       1.536  12.712  18.844  0.00  0.00    +0.000 N 
ATOM      4  C   UNL     1       0.189  13.059  18.733  0.00  0.00    +0.000 A 
ATOM      5  O   UNL     1      -0.295  14.179  18.868  0.00  0.00    +0.000 OA
ATOM      6  C   UNL     1      -0.743  11.960  18.414  0.00  0.00    +0.000 A 
ATOM      7  C   UNL     1      -2.089  12.267  18.147  0.00  0.00    +0.000 A 
ATOM      8  C   UNL     1      -2.996  11.257  17.845  0.00  0.00    +0.000 A 
ATOM      9  C   UNL     1      -2.569   9.935  17.866  0.00  0.00    +0.000 A 
ATOM     10  C   UNL     1      -1.231   9.627  18.148  0.00  0.00    +0.000 A 
ATOM     11  C   UNL     1      -0.291  10.644  18.377  0.00  0.00    +0.000 A 
ENDROOT
BRANCH   3  12
ATOM     12  C   UNL     1       2.557  13.650  19.218  0.00  0.00    +0.000 A 
ATOM     13  C   UNL     1       2.901  13.889  20.557  0.00  0.00    +0.000 A 
ATOM     14  C   UNL     1       3.900  14.806  20.902  0.00  0.00    +0.000 A 
ATOM     15  C   UNL     1       4.576  15.506  19.910  0.00  0.00    +0.000 A 
ATOM     16  C   UNL     1       4.266  15.279  18.574  0.00  0.00    +0.000 A 
ATOM     17  C   UNL     1       3.273  14.353  18.231  0.00  0.00    +0.000 A 
ENDBRANCH   3  12
BRANCH   1  20
ATOM     18  C   UNL     1       1.413   8.437  20.735  0.00  0.00    +0.000 C 
ATOM     19  N   UNL     1       1.848   8.105  19.371  0.00  0.00    +0.000 N 
ATOM     20  C   UNL     1       1.790   9.036  18.297  0.00  0.00    +0.000 C 
ATOM     21  O   UNL     1       2.192   8.806  17.156  0.00  0.00    +0.000 OA
BRANCH  19  22
ATOM     22  C   UNL     1       2.468   6.792  19.197  0.00  0.00    +0.000 A 
ATOM     23  C   UNL     1       3.405   6.525  18.184  0.00  0.00    +0.000 A 
ATOM     24  C   UNL     1       3.972   5.256  18.003  0.00  0.00    +0.000 A 
ATOM     25  C   UNL     1       3.629   4.209  18.845  0.00  0.00    +0.000 A 
ATOM     26  C   UNL     1       2.727   4.440  19.874  0.00  0.00    +0.000 A 
ATOM     27  C   UNL     1       2.162   5.713  20.050  0.00  0.00    +0.000 A 
ENDBRANCH  19  22
ENDBRANCH   1  20
TORSDOF 3
ENDMDL
MODEL 5
REMARK VINA RESULT:      -7.3      2.970      7.531
REMARK  Name = 
REMARK  4 active torsions:
REMARK  status: ('A' for Active; 'I' for Inactive)
REMARK    1  A    between atoms: C_1  and  N_2
REMARK    2  A    between atoms: N_2  and  C_22
REMARK    3  A    between atoms: C_3  and  C_5
REMARK    4  A    between atoms: N_7  and  C_8
REMARK                            x       y       z     vdW  Elec       q    Type
REMARK                         _______ _______ _______ _____ _____    ______ ____
ROOT
ATOM      1  C   UNL     1       1.183  10.421  18.535  0.00  0.00    +0.000 A 
ATOM      2  N   UNL     1       2.012  11.413  18.659  0.00  0.00    +0.000 NA
ATOM      3  N   UNL     1       1.546  12.701  18.835  0.00  0.00    +0.000 N 
ATOM      4  C   UNL     1       0.203  13.053  18.699  0.00  0.00    +0.000 A 
ATOM      5  O   UNL     1      -0.276  14.180  18.794  0.00  0.00    +0.000 OA
ATOM      6  C   UNL     1      -0.734  11.950  18.405  0.00  0.00    +0.000 A 
ATOM      7  C   UNL     1      -2.075  12.258  18.114  0.00  0.00    +0.000 A 
ATOM      8  C   UNL     1      -2.986  11.244  17.835  0.00  0.00    +0.000 A 
ATOM      9  C   UNL     1      -2.568   9.920  17.901  0.00  0.00    +0.000 A 
ATOM     10  C   UNL     1      -1.234   9.613  18.207  0.00  0.00    +0.000 A 
ATOM     11  C   UNL     1      -0.290  10.631  18.413  0.00  0.00    +0.000 A 
ENDROOT
BRANCH   3  12
ATOM     12  C   UNL     1       2.569  13.644  19.190  0.00  0.00    +0.000 A 
ATOM     13  C   UNL     1       3.264  14.393  18.229  0.00  0.00    +0.000 A 
ATOM     14  C   UNL     1       4.257  15.309  18.595  0.00  0.00    +0.000 A 
ATOM     15  C   UNL     1       4.576  15.493  19.935  0.00  0.00    +0.000 A 
ATOM     16  C   UNL     1       3.894  14.774  20.910  0.00  0.00    +0.000 A 
ATOM     17  C   UNL     1       2.894  13.866  20.542  0.00  0.00    +0.000 A 
ENDBRANCH   3  12
BRANCH   1  20
ATOM     18  C   UNL     1       1.357   8.481  20.852  0.00  0.00    +0.000 C 
ATOM     19  N   UNL     1       1.814   8.108  19.506  0.00  0.00    +0.000 N 
ATOM     20  C   UNL     1       1.781   9.008  18.405  0.00  0.00    +0.000 C 
ATOM     21  O   UNL     1       2.201   8.743  17.278  0.00  0.00    +0.000 OA
BRANCH  19  22
ATOM     22  C   UNL     1       2.427   6.786  19.380  0.00  0.00    +0.000 A 
ATOM     23  C   UNL     1       2.097   5.715  20.229  0.00  0.00    +0.000 A 
ATOM     24  C   UNL     1       2.712   4.459  20.124  0.00  0.00    +0.000 A 
ATOM     25  C   UNL     1       3.672   4.229  19.150  0.00  0.00    +0.000 A 
ATOM     26  C   UNL     1       4.005   5.254  18.276  0.00  0.00    +0.000 A 
ATOM     27  C   UNL     1       3.387   6.509  18.387  0.00  0.00    +0.000 A 
ENDBRANCH  19  22
ENDBRANCH   1  20
TORSDOF 3
ENDMDL
MODEL 6
REMARK VINA RESULT:      -7.3      4.487      9.552
REMARK  Name = 
REMARK  4 active torsions:
REMARK  status: ('A' for Active; 'I' for Inactive)
REMARK    1  A    between atoms: C_1  and  N_2
REMARK    2  A    between atoms: N_2  and  C_22
REMARK    3  A    between atoms: C_3  and  C_5
REMARK    4  A    between atoms: N_7  and  C_8
REMARK                            x       y       z     vdW  Elec       q    Type
REMARK                         _______ _______ _______ _____ _____    ______ ____
ROOT
ATOM      1  C   UNL     1       3.401   5.224  18.122  0.00  0.00    +0.000 A 
ATOM      2  N   UNL     1       2.838   6.393  18.077  0.00  0.00    +0.000 NA
ATOM      3  N   UNL     1       2.230   6.924  19.197  0.00  0.00    +0.000 N 
ATOM      4  C   UNL     1       2.004   6.192  20.364  0.00  0.00    +0.000 A 
ATOM      5  O   UNL     1       1.430   6.582  21.376  0.00  0.00    +0.000 OA
ATOM      6  C   UNL     1       2.507   4.805  20.370  0.00  0.00    +0.000 A 
ATOM      7  C   UNL     1       2.186   3.972  21.457  0.00  0.00    +0.000 A 
ATOM      8  C   UNL     1       2.645   2.659  21.499  0.00  0.00    +0.000 A 
ATOM      9  C   UNL     1       3.471   2.198  20.480  0.00  0.00    +0.000 A 
ATOM     10  C   UNL     1       3.804   3.033  19.405  0.00  0.00    +0.000 A 
ATOM     11  C   UNL     1       3.283   4.334  19.315  0.00  0.00    +0.000 A 
ENDROOT
BRANCH   3  12
ATOM     12  C   UNL     1       1.866   8.306  19.058  0.00  0.00    +0.000 A 
ATOM     13  C   UNL     1       1.129   8.989  20.037  0.00  0.00    +0.000 A 
ATOM     14  C   UNL     1       0.785  10.337  19.884  0.00  0.00    +0.000 A 
ATOM     15  C   UNL     1       1.172  11.030  18.744  0.00  0.00    +0.000 A 
ATOM     16  C   UNL     1       1.916  10.383  17.764  0.00  0.00    +0.000 A 
ATOM     17  C   UNL     1       2.267   9.037  17.924  0.00  0.00    +0.000 A 
ENDBRANCH   3  12
BRANCH   1  20
ATOM     18  C   UNL     1       5.705   6.705  16.834  0.00  0.00    +0.000 C 
ATOM     19  N   UNL     1       5.217   5.429  16.291  0.00  0.00    +0.000 N 
ATOM     20  C   UNL     1       4.113   4.728  16.850  0.00  0.00    +0.000 C 
ATOM     21  O   UNL     1       3.648   3.684  16.390  0.00  0.00    +0.000 OA
BRANCH  19  22
ATOM     22  C   UNL     1       5.853   4.973  15.056  0.00  0.00    +0.000 A 
ATOM     23  C   UNL     1       7.139   5.387  14.669  0.00  0.00    +0.000 A 
ATOM     24  C   UNL     1       7.731   4.971  13.468  0.00  0.00    +0.000 A 
ATOM     25  C   UNL     1       7.056   4.109  12.617  0.00  0.00    +0.000 A 
ATOM     26  C   UNL     1       5.794   3.657  12.977  0.00  0.00    +0.000 A 
ATOM     27  C   UNL     1       5.207   4.078  14.181  0.00  0.00    +0.000 A 
ENDBRANCH  19  22
ENDBRANCH   1  20
TORSDOF 3
ENDMDL
MODEL 7
REMARK VINA RESULT:      -7.2      1.515      7.004
REMARK  Name = 
REMARK  4 active torsions:
REMARK  status: ('A' for Active; 'I' for Inactive)
REMARK    1  A    between atoms: C_1  and  N_2
REMARK    2  A    between atoms: N_2  and  C_22
REMARK    3  A    between atoms: C_3  and  C_5
REMARK    4  A    between atoms: N_7  and  C_8
REMARK                            x       y       z     vdW  Elec       q    Type
REMARK                         _______ _______ _______ _____ _____    ______ ____
ROOT
ATOM      1  C   UNL     1      -0.127  13.130  20.462  0.00  0.00    +0.000 A 
ATOM      2  N   UNL     1       0.078  14.081  19.601  0.00  0.00    +0.000 NA
ATOM      3  N   UNL     1      -0.583  15.287  19.714  0.00  0.00    +0.000 N 
ATOM      4  C   UNL     1      -1.633  15.502  20.608  0.00  0.00    +0.000 A 
ATOM      5  O   UNL     1      -2.297  16.527  20.731  0.00  0.00    +0.000 OA
ATOM      6  C   UNL     1      -1.980  14.370  21.491  0.00  0.00    +0.000 A 
ATOM      7  C   UNL     1      -3.118  14.473  22.310  0.00  0.00    +0.000 A 
ATOM      8  C   UNL     1      -3.473  13.427  23.157  0.00  0.00    +0.000 A 
ATOM      9  C   UNL     1      -2.659  12.303  23.223  0.00  0.00    +0.000 A 
ATOM     10  C   UNL     1      -1.515  12.208  22.418  0.00  0.00    +0.000 A 
ATOM     11  C   UNL     1      -1.191  13.223  21.504  0.00  0.00    +0.000 A 
ENDROOT
BRANCH   3  12
ATOM     12  C   UNL     1      -0.080  16.308  18.840  0.00  0.00    +0.000 A 
ATOM     13  C   UNL     1      -0.926  17.197  18.161  0.00  0.00    +0.000 A 
ATOM     14  C   UNL     1      -0.416  18.188  17.314  0.00  0.00    +0.000 A 
ATOM     15  C   UNL     1       0.956  18.309  17.129  0.00  0.00    +0.000 A 
ATOM     16  C   UNL     1       1.819  17.451  17.801  0.00  0.00    +0.000 A 
ATOM     17  C   UNL     1       1.307  16.467  18.655  0.00  0.00    +0.000 A 
ENDBRANCH   3  12
BRANCH   1  20
ATOM     18  C   UNL     1      -1.022  10.800  18.749  0.00  0.00    +0.000 C 
ATOM     19  N   UNL     1       0.264  10.777  19.462  0.00  0.00    +0.000 N 
ATOM     20  C   UNL     1       0.696  11.838  20.304  0.00  0.00    +0.000 C 
ATOM     21  O   UNL     1       1.742  11.828  20.953  0.00  0.00    +0.000 OA
BRANCH  19  22
ATOM     22  C   UNL     1       1.032   9.536  19.359  0.00  0.00    +0.000 A 
ATOM     23  C   UNL     1       1.693   9.152  18.180  0.00  0.00    +0.000 A 
ATOM     24  C   UNL     1       2.401   7.946  18.077  0.00  0.00    +0.000 A 
ATOM     25  C   UNL     1       2.483   7.087  19.162  0.00  0.00    +0.000 A 
ATOM     26  C   UNL     1       1.865   7.444  20.352  0.00  0.00    +0.000 A 
ATOM     27  C   UNL     1       1.156   8.653  20.449  0.00  0.00    +0.000 A 
ENDBRANCH  19  22
ENDBRANCH   1  20
TORSDOF 3
ENDMDL
MODEL 8
REMARK VINA RESULT:      -7.2      1.667      6.977
REMARK  Name = 
REMARK  4 active torsions:
REMARK  status: ('A' for Active; 'I' for Inactive)
REMARK    1  A    between atoms: C_1  and  N_2
REMARK    2  A    between atoms: N_2  and  C_22
REMARK    3  A    between atoms: C_3  and  C_5
REMARK    4  A    between atoms: N_7  and  C_8
REMARK                            x       y       z     vdW  Elec       q    Type
REMARK                         _______ _______ _______ _____ _____    ______ ____
ROOT
ATOM      1  C   UNL     1      -0.258  13.137  20.813  0.00  0.00    +0.000 A 
ATOM      2  N   UNL     1      -0.044  14.170  20.055  0.00  0.00    +0.000 NA
ATOM      3  N   UNL     1      -0.716  15.355  20.275  0.00  0.00    +0.000 N 
ATOM      4  C   UNL     1      -1.783  15.474  21.167  0.00  0.00    +0.000 A 
ATOM      5  O   UNL     1      -2.456  16.479  21.378  0.00  0.00    +0.000 OA
ATOM      6  C   UNL     1      -2.138  14.259  21.925  0.00  0.00    +0.000 A 
ATOM      7  C   UNL     1      -3.291  14.273  22.730  0.00  0.00    +0.000 A 
ATOM      8  C   UNL     1      -3.654  13.147  23.461  0.00  0.00    +0.000 A 
ATOM      9  C   UNL     1      -2.833  12.026  23.431  0.00  0.00    +0.000 A 
ATOM     10  C   UNL     1      -1.675  12.017  22.641  0.00  0.00    +0.000 A 
ATOM     11  C   UNL     1      -1.341  13.120  21.840  0.00  0.00    +0.000 A 
ENDROOT
BRANCH   3  12
ATOM     12  C   UNL     1      -0.204  16.461  19.517  0.00  0.00    +0.000 A 
ATOM     13  C   UNL     1       0.865  17.250  19.969  0.00  0.00    +0.000 A 
ATOM     14  C   UNL     1       1.351  18.323  19.214  0.00  0.00    +0.000 A 
ATOM     15  C   UNL     1       0.775  18.631  17.988  0.00  0.00    +0.000 A 
ATOM     16  C   UNL     1      -0.276  17.857  17.507  0.00  0.00    +0.000 A 
ATOM     17  C   UNL     1      -0.754  16.778  18.260  0.00  0.00    +0.000 A 
ENDBRANCH   3  12
BRANCH   1  20
ATOM     18  C   UNL     1      -1.160  10.929  18.949  0.00  0.00    +0.000 C 
ATOM     19  N   UNL     1       0.140  10.870  19.633  0.00  0.00    +0.000 N 
ATOM     20  C   UNL     1       0.577  11.871  20.543  0.00  0.00    +0.000 C 
ATOM     21  O   UNL     1       1.636  11.827  21.169  0.00  0.00    +0.000 OA
BRANCH  19  22
ATOM     22  C   UNL     1       0.920   9.651  19.422  0.00  0.00    +0.000 A 
ATOM     23  C   UNL     1       1.107   8.688  20.428  0.00  0.00    +0.000 A 
ATOM     24  C   UNL     1       1.883   7.537  20.229  0.00  0.00    +0.000 A 
ATOM     25  C   UNL     1       2.489   7.304  19.004  0.00  0.00    +0.000 A 
ATOM     26  C   UNL     1       2.306   8.219  17.977  0.00  0.00    +0.000 A 
ATOM     27  C   UNL     1       1.529   9.370  18.182  0.00  0.00    +0.000 A 
ENDBRANCH  19  22
ENDBRANCH   1  20
TORSDOF 3
ENDMDL
MODEL 9
REMARK VINA RESULT:      -7.2      2.220      7.239
REMARK  Name = 
REMARK  4 active torsions:
REMARK  status: ('A' for Active; 'I' for Inactive)
REMARK    1  A    between atoms: C_1  and  N_2
REMARK    2  A    between atoms: N_2  and  C_22
REMARK    3  A    between atoms: C_3  and  C_5
REMARK    4  A    between atoms: N_7  and  C_8
REMARK                            x       y       z     vdW  Elec       q    Type
REMARK                         _______ _______ _______ _____ _____    ______ ____
ROOT
ATOM      1  C   UNL     1      -0.668  12.844  20.646  0.00  0.00    +0.000 A 
ATOM      2  N   UNL     1      -1.611  12.696  21.526  0.00  0.00    +0.000 NA
ATOM      3  N   UNL     1      -2.528  13.703  21.750  0.00  0.00    +0.000 N 
ATOM      4  C   UNL     1      -2.401  14.986  21.215  0.00  0.00    +0.000 A 
ATOM      5  O   UNL     1      -3.148  15.941  21.409  0.00  0.00    +0.000 OA
ATOM      6  C   UNL     1      -1.241  15.211  20.331  0.00  0.00    +0.000 A 
ATOM      7  C   UNL     1      -0.976  16.516  19.877  0.00  0.00    +0.000 A 
ATOM      8  C   UNL     1       0.106  16.765  19.040  0.00  0.00    +0.000 A 
ATOM      9  C   UNL     1       0.891  15.701  18.612  0.00  0.00    +0.000 A 
ATOM     10  C   UNL     1       0.617  14.397  19.052  0.00  0.00    +0.000 A 
ATOM     11  C   UNL     1      -0.425  14.147  19.958  0.00  0.00    +0.000 A 
ENDROOT
BRANCH   3  12
ATOM     12  C   UNL     1      -3.637  13.305  22.570  0.00  0.00    +0.000 A 
ATOM     13  C   UNL     1      -4.959  13.318  22.100  0.00  0.00    +0.000 A 
ATOM     14  C   UNL     1      -6.027  12.924  22.915  0.00  0.00    +0.000 A 
ATOM     15  C   UNL     1      -5.793  12.510  24.220  0.00  0.00    +0.000 A 
ATOM     16  C   UNL     1      -4.491  12.472  24.707  0.00  0.00    +0.000 A 
ATOM     17  C   UNL     1      -3.424  12.857  23.888  0.00  0.00    +0.000 A 
ENDBRANCH   3  12
BRANCH   1  20
ATOM     18  C   UNL     1      -1.131  10.772  18.489  0.00  0.00    +0.000 C 
ATOM     19  N   UNL     1       0.050  10.716  19.363  0.00  0.00    +0.000 N 
ATOM     20  C   UNL     1       0.277  11.652  20.409  0.00  0.00    +0.000 C 
ATOM     21  O   UNL     1       1.229  11.605  21.189  0.00  0.00    +0.000 OA
BRANCH  19  22
ATOM     22  C   UNL     1       0.929   9.562  19.179  0.00  0.00    +0.000 A 
ATOM     23  C   UNL     1       1.153   8.613  20.191  0.00  0.00    +0.000 A 
ATOM     24  C   UNL     1       2.023   7.526  20.019  0.00  0.00    +0.000 A 
ATOM     25  C   UNL     1       2.689   7.345  18.817  0.00  0.00    +0.000 A 
ATOM     26  C   UNL     1       2.473   8.247  17.785  0.00  0.00    +0.000 A 
ATOM     27  C   UNL     1       1.602   9.334  17.963  0.00  0.00    +0.000 A 
ENDBRANCH  19  22
ENDBRANCH   1  20
TORSDOF 3
ENDMDL
