MODEL 1
REMARK VINA RESULT:      -9.1      0.000      0.000
REMARK  Name = 
REMARK  6 active torsions:
REMARK  status: ('A' for Active; 'I' for Inactive)
REMARK    1  A    between atoms: C_1  and  C_2
REMARK    2  A    between atoms: C_2  and  N_3
REMARK    3  A    between atoms: C_2  and  C_18
REMARK    4  A    between atoms: C_4  and  C_6
REMARK    5  A    between atoms: C_6  and  N_7
REMARK    6  A    between atoms: C_21  and  C_22
REMARK                            x       y       z     vdW  Elec       q    Type
REMARK                         _______ _______ _______ _____ _____    ______ ____
ROOT
ATOM      1  N   UNL     1       1.367   4.282  19.086  0.00  0.00    +0.000 N 
ATOM      2  C   UNL     1       1.624   3.056  18.531  0.00  0.00    +0.000 C 
ATOM      3  O   UNL     1       0.758   2.490  17.873  0.00  0.00    +0.000 OA
ATOM      4  H   UNL     1       0.426   4.630  18.945  0.00  0.00    +0.000 HD
ENDROOT
BRANCH   1   6
ATOM      5  C   UNL     1       2.251   4.600  21.368  0.00  0.00    +0.000 C 
ATOM      6  C   UNL     1       2.285   5.037  19.898  0.00  0.00    +0.000 C 
BRANCH   6   7
ATOM      7  C   UNL     1       2.147   6.525  19.708  0.00  0.00    +0.000 A 
ATOM      8  C   UNL     1       1.593   7.314  20.732  0.00  0.00    +0.000 A 
ATOM      9  C   UNL     1       1.207   8.631  20.468  0.00  0.00    +0.000 A 
ATOM     10  C   UNL     1       1.383   9.199  19.189  0.00  0.00    +0.000 A 
ATOM     11  C   UNL     1       2.042   8.433  18.225  0.00  0.00    +0.000 A 
ATOM     12  C   UNL     1       2.426   7.120  18.477  0.00  0.00    +0.000 A 
BRANCH  10  13
ATOM     13  C   UNL     1       0.833  10.525  18.846  0.00  0.00    +0.000 A 
ATOM     14  C   UNL     1       1.640  11.672  18.793  0.00  0.00    +0.000 A 
ATOM     15  C   UNL     1       1.094  12.930  18.546  0.00  0.00    +0.000 A 
ATOM     16  C   UNL     1      -0.272  13.071  18.323  0.00  0.00    +0.000 A 
ATOM     17  C   UNL     1      -1.095  11.951  18.337  0.00  0.00    +0.000 A 
ATOM     18  C   UNL     1      -0.549  10.695  18.602  0.00  0.00    +0.000 A 
ENDBRANCH  10  13
ENDBRANCH   6   7
ENDBRANCH   1   6
BRANCH   2  19
ATOM     19  C   UNL     1       3.046   2.463  18.656  0.00  0.00    +0.000 C 
BRANCH  19  20
ATOM     20  N   UNL     1       4.018   3.420  18.154  0.00  0.00    +0.000 N 
ATOM     21  C   UNL     1       3.898   3.858  16.855  0.00  0.00    +0.000 A 
ATOM     22  N   UNL     1       4.666   4.730  16.299  0.00  0.00    +0.000 NA
ATOM     23  C   UNL     1       5.683   5.296  17.080  0.00  0.00    +0.000 A 
ATOM     24  C   UNL     1       6.456   6.320  16.537  0.00  0.00    +0.000 A 
ATOM     25  C   UNL     1       7.466   6.927  17.290  0.00  0.00    +0.000 A 
ATOM     26  C   UNL     1       7.717   6.506  18.595  0.00  0.00    +0.000 A 
ATOM     27  C   UNL     1       6.955   5.478  19.150  0.00  0.00    +0.000 A 
ATOM     28  C   UNL     1       5.942   4.884  18.388  0.00  0.00    +0.000 A 
ATOM     29  C   UNL     1       5.090   3.819  18.945  0.00  0.00    +0.000 A 
ATOM     30  O   UNL     1       5.350   3.350  20.050  0.00  0.00    +0.000 OA
ENDBRANCH  19  20
ENDBRANCH   2  19
TORSDOF 5
ENDMDL
MODEL 2
REMARK VINA RESULT:      -8.8      0.745      1.207
REMARK  Name = 
REMARK  6 active torsions:
REMARK  status: ('A' for Active; 'I' for Inactive)
REMARK    1  A    between atoms: C_1  and  C_2
REMARK    2  A    between atoms: C_2  and  N_3
REMARK    3  A    between atoms: C_2  and  C_18
REMARK    4  A    between atoms: C_4  and  C_6
REMARK    5  A    between atoms: C_6  and  N_7
REMARK    6  A    between atoms: C_21  and  C_22
REMARK                            x       y       z     vdW  Elec       q    Type
REMARK                         _______ _______ _______ _____ _____    ______ ____
ROOT
ATOM      1  N   UNL     1       1.828   4.528  18.651  0.00  0.00    +0.000 N 
ATOM      2  C   UNL     1       2.381   3.462  17.994  0.00  0.00    +0.000 C 
ATOM      3  O   UNL     1       1.739   2.879  17.126  0.00  0.00    +0.000 OA
ATOM      4  H   UNL     1       0.871   4.742  18.395  0.00  0.00    +0.000 HD
ENDROOT
BRANCH   1   6
ATOM      5  C   UNL     1       2.136   4.718  21.092  0.00  0.00    +0.000 C 
ATOM      6  C   UNL     1       2.464   5.279  19.702  0.00  0.00    +0.000 C 
BRANCH   6   7
ATOM      7  C   UNL     1       2.236   6.763  19.581  0.00  0.00    +0.000 A 
ATOM      8  C   UNL     1       1.666   7.474  20.653  0.00  0.00    +0.000 A 
ATOM      9  C   UNL     1       1.199   8.777  20.457  0.00  0.00    +0.000 A 
ATOM     10  C   UNL     1       1.307   9.408  19.201  0.00  0.00    +0.000 A 
ATOM     11  C   UNL     1       1.981   8.723  18.188  0.00  0.00    +0.000 A 
ATOM     12  C   UNL     1       2.447   7.426  18.372  0.00  0.00    +0.000 A 
BRANCH  10  13
ATOM     13  C   UNL     1       0.673  10.713  18.930  0.00  0.00    +0.000 A 
ATOM     14  C   UNL     1      -0.674  10.818  18.548  0.00  0.00    +0.000 A 
ATOM     15  C   UNL     1      -1.238  12.049  18.218  0.00  0.00    +0.000 A 
ATOM     16  C   UNL     1      -0.476  13.211  18.284  0.00  0.00    +0.000 A 
ATOM     17  C   UNL     1       0.852  13.146  18.690  0.00  0.00    +0.000 A 
ATOM     18  C   UNL     1       1.419  11.911  19.002  0.00  0.00    +0.000 A 
ENDBRANCH  10  13
ENDBRANCH   6   7
ENDBRANCH   1   6
BRANCH   2  19
ATOM     19  C   UNL     1       3.852   3.086  18.285  0.00  0.00    +0.000 C 
BRANCH  19  20
ATOM     20  N   UNL     1       4.720   4.189  17.907  0.00  0.00    +0.000 N 
ATOM     21  C   UNL     1       4.462   4.855  16.732  0.00  0.00    +0.000 A 
ATOM     22  N   UNL     1       5.126   5.870  16.301  0.00  0.00    +0.000 NA
ATOM     23  C   UNL     1       6.175   6.350  17.098  0.00  0.00    +0.000 A 
ATOM     24  C   UNL     1       6.838   7.512  16.708  0.00  0.00    +0.000 A 
ATOM     25  C   UNL     1       7.874   8.037  17.486  0.00  0.00    +0.000 A 
ATOM     26  C   UNL     1       8.263   7.395  18.661  0.00  0.00    +0.000 A 
ATOM     27  C   UNL     1       7.613   6.228  19.061  0.00  0.00    +0.000 A 
ATOM     28  C   UNL     1       6.571   5.717  18.276  0.00  0.00    +0.000 A 
ATOM     29  C   UNL     1       5.834   4.507  18.677  0.00  0.00    +0.000 A 
ATOM     30  O   UNL     1       6.216   3.857  19.647  0.00  0.00    +0.000 OA
ENDBRANCH  19  20
ENDBRANCH   2  19
TORSDOF 5
ENDMDL
MODEL 3
REMARK VINA RESULT:      -8.6      2.710      4.068
REMARK  Name = 
REMARK  6 active torsions:
REMARK  status: ('A' for Active; 'I' for Inactive)
REMARK    1  A    between atoms: C_1  and  C_2
REMARK    2  A    between atoms: C_2  and  N_3
REMARK    3  A    between atoms: C_2  and  C_18
REMARK    4  A    between atoms: C_4  and  C_6
REMARK    5  A    between atoms: C_6  and  N_7
REMARK    6  A    between atoms: C_21  and  C_22
REMARK                            x       y       z     vdW  Elec       q    Type
REMARK                         _______ _______ _______ _____ _____    ______ ____
ROOT
ATOM      1  N   UNL     1       4.989   6.383  19.098  0.00  0.00    +0.000 N 
ATOM      2  C   UNL     1       5.851   5.320  19.135  0.00  0.00    +0.000 C 
ATOM      3  O   UNL     1       6.793   5.325  19.921  0.00  0.00    +0.000 OA
ATOM      4  H   UNL     1       5.224   7.150  19.717  0.00  0.00    +0.000 HD
ENDROOT
BRANCH   1   6
ATOM      5  C   UNL     1       4.268   7.099  16.849  0.00  0.00    +0.000 C 
ATOM      6  C   UNL     1       3.864   6.512  18.208  0.00  0.00    +0.000 C 
BRANCH   6   7
ATOM      7  C   UNL     1       2.692   7.211  18.844  0.00  0.00    +0.000 A 
ATOM      8  C   UNL     1       2.162   8.371  18.251  0.00  0.00    +0.000 A 
ATOM      9  C   UNL     1       1.270   9.176  18.964  0.00  0.00    +0.000 A 
ATOM     10  C   UNL     1       0.869   8.836  20.273  0.00  0.00    +0.000 A 
ATOM     11  C   UNL     1       1.319   7.620  20.792  0.00  0.00    +0.000 A 
ATOM     12  C   UNL     1       2.209   6.814  20.092  0.00  0.00    +0.000 A 
BRANCH  10  13
ATOM     13  C   UNL     1       0.063   9.754  21.102  0.00  0.00    +0.000 A 
ATOM     14  C   UNL     1      -0.443  10.960  20.594  0.00  0.00    +0.000 A 
ATOM     15  C   UNL     1      -1.134  11.855  21.409  0.00  0.00    +0.000 A 
ATOM     16  C   UNL     1      -1.356  11.555  22.750  0.00  0.00    +0.000 A 
ATOM     17  C   UNL     1      -0.895  10.354  23.277  0.00  0.00    +0.000 A 
ATOM     18  C   UNL     1      -0.188   9.469  22.463  0.00  0.00    +0.000 A 
ENDBRANCH  10  13
ENDBRANCH   6   7
ENDBRANCH   1   6
BRANCH   2  19
ATOM     19  C   UNL     1       5.552   4.083  18.258  0.00  0.00    +0.000 C 
BRANCH  19  20
ATOM     20  N   UNL     1       6.010   4.328  16.900  0.00  0.00    +0.000 N 
ATOM     21  C   UNL     1       7.140   5.090  16.716  0.00  0.00    +0.000 A 
ATOM     22  N   UNL     1       7.673   5.350  15.573  0.00  0.00    +0.000 NA
ATOM     23  C   UNL     1       7.075   4.796  14.433  0.00  0.00    +0.000 A 
ATOM     24  C   UNL     1       7.695   4.970  13.197  0.00  0.00    +0.000 A 
ATOM     25  C   UNL     1       7.144   4.415  12.038  0.00  0.00    +0.000 A 
ATOM     26  C   UNL     1       5.958   3.684  12.106  0.00  0.00    +0.000 A 
ATOM     27  C   UNL     1       5.324   3.505  13.335  0.00  0.00    +0.000 A 
ATOM     28  C   UNL     1       5.890   4.061  14.489  0.00  0.00    +0.000 A 
ATOM     29  C   UNL     1       5.274   3.869  15.813  0.00  0.00    +0.000 A 
ATOM     30  O   UNL     1       4.177   3.323  15.897  0.00  0.00    +0.000 OA
ENDBRANCH  19  20
ENDBRANCH   2  19
TORSDOF 5
ENDMDL
MODEL 4
REMARK VINA RESULT:      -8.6      3.601      6.616
REMARK  Name = 
REMARK  6 active torsions:
REMARK  status: ('A' for Active; 'I' for Inactive)
REMARK    1  A    between atoms: C_1  and  C_2
REMARK    2  A    between atoms: C_2  and  N_3
REMARK    3  A    between atoms: C_2  and  C_18
REMARK    4  A    between atoms: C_4  and  C_6
REMARK    5  A    between atoms: C_6  and  N_7
REMARK    6  A    between atoms: C_21  and  C_22
REMARK                            x       y       z     vdW  Elec       q    Type
REMARK                         _______ _______ _______ _____ _____    ______ ____
ROOT
ATOM      1  N   UNL     1       5.614   6.051  15.901  0.00  0.00    +0.000 N 
ATOM      2  C   UNL     1       5.583   4.742  15.502  0.00  0.00    +0.000 C 
ATOM      3  O   UNL     1       5.535   4.468  14.307  0.00  0.00    +0.000 OA
ATOM      4  H   UNL     1       5.548   6.731  15.153  0.00  0.00    +0.000 HD
ENDROOT
BRANCH   1   6
ATOM      5  C   UNL     1       4.285   7.047  17.727  0.00  0.00    +0.000 C 
ATOM      6  C   UNL     1       5.645   6.504  17.268  0.00  0.00    +0.000 C 
BRANCH   6   7
ATOM      7  C   UNL     1       6.793   7.438  17.548  0.00  0.00    +0.000 A 
ATOM      8  C   UNL     1       7.829   7.034  18.410  0.00  0.00    +0.000 A 
ATOM      9  C   UNL     1       8.743   7.976  18.892  0.00  0.00    +0.000 A 
ATOM     10  C   UNL     1       8.660   9.331  18.513  0.00  0.00    +0.000 A 
ATOM     11  C   UNL     1       7.695   9.681  17.567  0.00  0.00    +0.000 A 
ATOM     12  C   UNL     1       6.779   8.753  17.084  0.00  0.00    +0.000 A 
BRANCH  10  13
ATOM     13  C   UNL     1       9.508  10.366  19.139  0.00  0.00    +0.000 A 
ATOM     14  C   UNL     1       9.328  10.764  20.472  0.00  0.00    +0.000 A 
ATOM     15  C   UNL     1      10.081  11.798  21.026  0.00  0.00    +0.000 A 
ATOM     16  C   UNL     1      11.051  12.445  20.266  0.00  0.00    +0.000 A 
ATOM     17  C   UNL     1      11.276  12.053  18.952  0.00  0.00    +0.000 A 
ATOM     18  C   UNL     1      10.508  11.030  18.395  0.00  0.00    +0.000 A 
ENDBRANCH  10  13
ENDBRANCH   6   7
ENDBRANCH   1   6
BRANCH   2  19
ATOM     19  C   UNL     1       5.722   3.631  16.569  0.00  0.00    +0.000 C 
BRANCH  19  20
ATOM     20  N   UNL     1       4.501   3.555  17.354  0.00  0.00    +0.000 N 
ATOM     21  C   UNL     1       3.294   3.573  16.693  0.00  0.00    +0.000 A 
ATOM     22  N   UNL     1       2.143   3.473  17.262  0.00  0.00    +0.000 NA
ATOM     23  C   UNL     1       2.116   3.309  18.654  0.00  0.00    +0.000 A 
ATOM     24  C   UNL     1       0.890   3.089  19.281  0.00  0.00    +0.000 A 
ATOM     25  C   UNL     1       0.820   2.898  20.664  0.00  0.00    +0.000 A 
ATOM     26  C   UNL     1       1.981   2.936  21.436  0.00  0.00    +0.000 A 
ATOM     27  C   UNL     1       3.213   3.160  20.824  0.00  0.00    +0.000 A 
ATOM     28  C   UNL     1       3.270   3.342  19.436  0.00  0.00    +0.000 A 
ATOM     29  C   UNL     1       4.553   3.548  18.743  0.00  0.00    +0.000 A 
ATOM     30  O   UNL     1       5.581   3.692  19.400  0.00  0.00    +0.000 OA
ENDBRANCH  19  20
ENDBRANCH   2  19
TORSDOF 5
ENDMDL
MODEL 5
REMARK VINA RESULT:      -8.6      4.935     10.268
REMARK  Name = 
REMARK  6 active torsions:
REMARK  status: ('A' for Active; 'I' for Inactive)
REMARK    1  A    between atoms: C_1  and  C_2
REMARK    2  A    between atoms: C_2  and  N_3
REMARK    3  A    between atoms: C_2  and  C_18
REMARK    4  A    between atoms: C_4  and  C_6
REMARK    5  A    between atoms: C_6  and  N_7
REMARK    6  A    between atoms: C_21  and  C_22
REMARK                            x       y       z     vdW  Elec       q    Type
REMARK                         _______ _______ _______ _____ _____    ______ ____
ROOT
ATOM      1  N   UNL     1       0.121  11.633  19.368  0.00  0.00    +0.000 N 
ATOM      2  C   UNL     1      -0.841  12.081  18.504  0.00  0.00    +0.000 C 
ATOM      3  O   UNL     1      -0.717  13.175  17.965  0.00  0.00    +0.000 OA
ATOM      4  H   UNL     1       0.880  12.283  19.543  0.00  0.00    +0.000 HD
ENDROOT
BRANCH   1   6
ATOM      5  C   UNL     1       0.110  10.587  21.604  0.00  0.00    +0.000 C 
ATOM      6  C   UNL     1       0.083  10.383  20.083  0.00  0.00    +0.000 C 
BRANCH   6   7
ATOM      7  C   UNL     1       1.105   9.394  19.589  0.00  0.00    +0.000 A 
ATOM      8  C   UNL     1       1.583   9.481  18.269  0.00  0.00    +0.000 A 
ATOM      9  C   UNL     1       2.310   8.422  17.718  0.00  0.00    +0.000 A 
ATOM     10  C   UNL     1       2.595   7.265  18.471  0.00  0.00    +0.000 A 
ATOM     11  C   UNL     1       2.210   7.255  19.813  0.00  0.00    +0.000 A 
ATOM     12  C   UNL     1       1.484   8.302  20.370  0.00  0.00    +0.000 A 
BRANCH  10  13
ATOM     13  C   UNL     1       3.212   6.072  17.859  0.00  0.00    +0.000 A 
ATOM     14  C   UNL     1       2.573   4.823  17.860  0.00  0.00    +0.000 A 
ATOM     15  C   UNL     1       3.201   3.688  17.350  0.00  0.00    +0.000 A 
ATOM     16  C   UNL     1       4.477   3.777  16.804  0.00  0.00    +0.000 A 
ATOM     17  C   UNL     1       5.126   5.006  16.758  0.00  0.00    +0.000 A 
ATOM     18  C   UNL     1       4.502   6.137  17.285  0.00  0.00    +0.000 A 
ENDBRANCH  10  13
ENDBRANCH   6   7
ENDBRANCH   1   6
BRANCH   2  19
ATOM     19  C   UNL     1      -2.015  11.142  18.142  0.00  0.00    +0.000 C 
BRANCH  19  20
ATOM     20  N   UNL     1      -3.265  11.730  18.595  0.00  0.00    +0.000 N 
ATOM     21  C   UNL     1      -3.310  12.287  19.852  0.00  0.00    +0.000 A 
ATOM     22  N   UNL     1      -4.339  12.873  20.359  0.00  0.00    +0.000 NA
ATOM     23  C   UNL     1      -5.490  12.973  19.566  0.00  0.00    +0.000 A 
ATOM     24  C   UNL     1      -6.579  13.697  20.050  0.00  0.00    +0.000 A 
ATOM     25  C   UNL     1      -7.738  13.841  19.282  0.00  0.00    +0.000 A 
ATOM     26  C   UNL     1      -7.821  13.250  18.021  0.00  0.00    +0.000 A 
ATOM     27  C   UNL     1      -6.742  12.519  17.526  0.00  0.00    +0.000 A 
ATOM     28  C   UNL     1      -5.584  12.388  18.303  0.00  0.00    +0.000 A 
ATOM     29  C   UNL     1      -4.408  11.654  17.807  0.00  0.00    +0.000 A 
ATOM     30  O   UNL     1      -4.483  11.033  16.749  0.00  0.00    +0.000 OA
ENDBRANCH  19  20
ENDBRANCH   2  19
TORSDOF 5
ENDMDL
MODEL 6
REMARK VINA RESULT:      -8.5      2.075      4.629
REMARK  Name = 
REMARK  6 active torsions:
REMARK  status: ('A' for Active; 'I' for Inactive)
REMARK    1  A    between atoms: C_1  and  C_2
REMARK    2  A    between atoms: C_2  and  N_3
REMARK    3  A    between atoms: C_2  and  C_18
REMARK    4  A    between atoms: C_4  and  C_6
REMARK    5  A    between atoms: C_6  and  N_7
REMARK    6  A    between atoms: C_21  and  C_22
REMARK                            x       y       z     vdW  Elec       q    Type
REMARK                         _______ _______ _______ _____ _____    ______ ____
ROOT
ATOM      1  N   UNL     1       5.829   7.087  17.644  0.00  0.00    +0.000 N 
ATOM      2  C   UNL     1       6.890   6.226  17.733  0.00  0.00    +0.000 C 
ATOM      3  O   UNL     1       7.937   6.599  18.252  0.00  0.00    +0.000 OA
ATOM      4  H   UNL     1       6.005   8.024  17.988  0.00  0.00    +0.000 HD
ENDROOT
BRANCH   1   6
ATOM      5  C   UNL     1       4.505   7.209  15.565  0.00  0.00    +0.000 C 
ATOM      6  C   UNL     1       4.559   6.784  17.038  0.00  0.00    +0.000 C 
BRANCH   6   7
ATOM      7  C   UNL     1       3.390   7.275  17.850  0.00  0.00    +0.000 A 
ATOM      8  C   UNL     1       2.748   8.476  17.499  0.00  0.00    +0.000 A 
ATOM      9  C   UNL     1       1.857   9.079  18.391  0.00  0.00    +0.000 A 
ATOM     10  C   UNL     1       1.568   8.493  19.640  0.00  0.00    +0.000 A 
ATOM     11  C   UNL     1       2.130   7.243  19.914  0.00  0.00    +0.000 A 
ATOM     12  C   UNL     1       3.019   6.637  19.035  0.00  0.00    +0.000 A 
BRANCH  10  13
ATOM     13  C   UNL     1       0.764   9.194  20.660  0.00  0.00    +0.000 A 
ATOM     14  C   UNL     1      -0.048  10.292  20.338  0.00  0.00    +0.000 A 
ATOM     15  C   UNL     1      -0.740  10.994  21.324  0.00  0.00    +0.000 A 
ATOM     16  C   UNL     1      -0.655  10.602  22.656  0.00  0.00    +0.000 A 
ATOM     17  C   UNL     1       0.116   9.499  23.005  0.00  0.00    +0.000 A 
ATOM     18  C   UNL     1       0.821   8.809  22.019  0.00  0.00    +0.000 A 
ENDBRANCH  10  13
ENDBRANCH   6   7
ENDBRANCH   1   6
BRANCH   2  19
ATOM     19  C   UNL     1       6.704   4.761  17.275  0.00  0.00    +0.000 C 
BRANCH  19  20
ATOM     20  N   UNL     1       5.622   4.150  18.028  0.00  0.00    +0.000 N 
ATOM     21  C   UNL     1       5.763   4.018  19.390  0.00  0.00    +0.000 A 
ATOM     22  N   UNL     1       4.868   3.531  20.178  0.00  0.00    +0.000 NA
ATOM     23  C   UNL     1       3.651   3.128  19.613  0.00  0.00    +0.000 A 
ATOM     24  C   UNL     1       2.626   2.701  20.456  0.00  0.00    +0.000 A 
ATOM     25  C   UNL     1       1.388   2.313  19.936  0.00  0.00    +0.000 A 
ATOM     26  C   UNL     1       1.168   2.340  18.559  0.00  0.00    +0.000 A 
ATOM     27  C   UNL     1       2.184   2.760  17.702  0.00  0.00    +0.000 A 
ATOM     28  C   UNL     1       3.417   3.154  18.237  0.00  0.00    +0.000 A 
ATOM     29  C   UNL     1       4.508   3.636  17.373  0.00  0.00    +0.000 A 
ATOM     30  O   UNL     1       4.387   3.574  16.152  0.00  0.00    +0.000 OA
ENDBRANCH  19  20
ENDBRANCH   2  19
TORSDOF 5
ENDMDL
MODEL 7
REMARK VINA RESULT:      -8.5      4.342      9.441
REMARK  Name = 
REMARK  6 active torsions:
REMARK  status: ('A' for Active; 'I' for Inactive)
REMARK    1  A    between atoms: C_1  and  C_2
REMARK    2  A    between atoms: C_2  and  N_3
REMARK    3  A    between atoms: C_2  and  C_18
REMARK    4  A    between atoms: C_4  and  C_6
REMARK    5  A    between atoms: C_6  and  N_7
REMARK    6  A    between atoms: C_21  and  C_22
REMARK                            x       y       z     vdW  Elec       q    Type
REMARK                         _______ _______ _______ _____ _____    ______ ____
ROOT
ATOM      1  N   UNL     1       0.813  10.766  21.135  0.00  0.00    +0.000 N 
ATOM      2  C   UNL     1       0.661  12.047  20.675  0.00  0.00    +0.000 C 
ATOM      3  O   UNL     1       1.102  12.987  21.328  0.00  0.00    +0.000 OA
ATOM      4  H   UNL     1       1.259  10.684  22.041  0.00  0.00    +0.000 HD
ENDROOT
BRANCH   1   6
ATOM      5  C   UNL     1      -0.560   8.733  21.406  0.00  0.00    +0.000 C 
ATOM      6  C   UNL     1       0.320   9.582  20.480  0.00  0.00    +0.000 C 
BRANCH   6   7
ATOM      7  C   UNL     1       1.408   8.798  19.795  0.00  0.00    +0.000 A 
ATOM      8  C   UNL     1       1.854   9.185  18.518  0.00  0.00    +0.000 A 
ATOM      9  C   UNL     1       2.652   8.320  17.764  0.00  0.00    +0.000 A 
ATOM     10  C   UNL     1       3.040   7.062  18.269  0.00  0.00    +0.000 A 
ATOM     11  C   UNL     1       2.680   6.752  19.582  0.00  0.00    +0.000 A 
ATOM     12  C   UNL     1       1.885   7.604  20.339  0.00  0.00    +0.000 A 
BRANCH  10  13
ATOM     13  C   UNL     1       3.737   6.069  17.428  0.00  0.00    +0.000 A 
ATOM     14  C   UNL     1       3.485   4.693  17.541  0.00  0.00    +0.000 A 
ATOM     15  C   UNL     1       4.208   3.761  16.798  0.00  0.00    +0.000 A 
ATOM     16  C   UNL     1       5.187   4.184  15.904  0.00  0.00    +0.000 A 
ATOM     17  C   UNL     1       5.440   5.541  15.744  0.00  0.00    +0.000 A 
ATOM     18  C   UNL     1       4.727   6.470  16.503  0.00  0.00    +0.000 A 
ENDBRANCH  10  13
ENDBRANCH   6   7
ENDBRANCH   1   6
BRANCH   2  19
ATOM     19  C   UNL     1       0.030  12.271  19.281  0.00  0.00    +0.000 C 
BRANCH  19  20
ATOM     20  N   UNL     1      -1.419  12.270  19.398  0.00  0.00    +0.000 N 
ATOM     21  C   UNL     1      -1.995  12.973  20.432  0.00  0.00    +0.000 A 
ATOM     22  N   UNL     1      -3.263  13.087  20.627  0.00  0.00    +0.000 NA
ATOM     23  C   UNL     1      -4.122  12.472  19.706  0.00  0.00    +0.000 A 
ATOM     24  C   UNL     1      -5.496  12.671  19.832  0.00  0.00    +0.000 A 
ATOM     25  C   UNL     1      -6.387  12.095  18.922  0.00  0.00    +0.000 A 
ATOM     26  C   UNL     1      -5.909  11.303  17.879  0.00  0.00    +0.000 A 
ATOM     27  C   UNL     1      -4.537  11.090  17.743  0.00  0.00    +0.000 A 
ATOM     28  C   UNL     1      -3.655  11.679  18.657  0.00  0.00    +0.000 A 
ATOM     29  C   UNL     1      -2.197  11.509  18.533  0.00  0.00    +0.000 A 
ATOM     30  O   UNL     1      -1.747  10.735  17.692  0.00  0.00    +0.000 OA
ENDBRANCH  19  20
ENDBRANCH   2  19
TORSDOF 5
ENDMDL
MODEL 8
REMARK VINA RESULT:      -8.3      4.563      9.629
REMARK  Name = 
REMARK  6 active torsions:
REMARK  status: ('A' for Active; 'I' for Inactive)
REMARK    1  A    between atoms: C_1  and  C_2
REMARK    2  A    between atoms: C_2  and  N_3
REMARK    3  A    between atoms: C_2  and  C_18
REMARK    4  A    between atoms: C_4  and  C_6
REMARK    5  A    between atoms: C_6  and  N_7
REMARK    6  A    between atoms: C_21  and  C_22
REMARK                            x       y       z     vdW  Elec       q    Type
REMARK                         _______ _______ _______ _____ _____    ______ ____
ROOT
ATOM      1  N   UNL     1       0.627  11.445  20.670  0.00  0.00    +0.000 N 
ATOM      2  C   UNL     1       0.343  12.566  19.937  0.00  0.00    +0.000 C 
ATOM      3  O   UNL     1       0.827  13.646  20.261  0.00  0.00    +0.000 OA
ATOM      4  H   UNL     1       1.206  11.600  21.487  0.00  0.00    +0.000 HD
ENDROOT
BRANCH   1   6
ATOM      5  C   UNL     1      -0.638   9.554  21.627  0.00  0.00    +0.000 C 
ATOM      6  C   UNL     1       0.105  10.128  20.413  0.00  0.00    +0.000 C 
BRANCH   6   7
ATOM      7  C   UNL     1       1.135   9.192  19.838  0.00  0.00    +0.000 A 
ATOM      8  C   UNL     1       1.558   9.348  18.506  0.00  0.00    +0.000 A 
ATOM      9  C   UNL     1       2.293   8.336  17.883  0.00  0.00    +0.000 A 
ATOM     10  C   UNL     1       2.641   7.157  18.575  0.00  0.00    +0.000 A 
ATOM     11  C   UNL     1       2.309   7.079  19.929  0.00  0.00    +0.000 A 
ATOM     12  C   UNL     1       1.576   8.080  20.557  0.00  0.00    +0.000 A 
BRANCH  10  13
ATOM     13  C   UNL     1       3.268   6.010  17.889  0.00  0.00    +0.000 A 
ATOM     14  C   UNL     1       4.472   6.139  17.179  0.00  0.00    +0.000 A 
ATOM     15  C   UNL     1       5.011   5.067  16.469  0.00  0.00    +0.000 A 
ATOM     16  C   UNL     1       4.372   3.831  16.471  0.00  0.00    +0.000 A 
ATOM     17  C   UNL     1       3.195   3.662  17.190  0.00  0.00    +0.000 A 
ATOM     18  C   UNL     1       2.648   4.741  17.884  0.00  0.00    +0.000 A 
ENDBRANCH  10  13
ENDBRANCH   6   7
ENDBRANCH   1   6
BRANCH   2  19
ATOM     19  C   UNL     1      -0.498  12.423  18.648  0.00  0.00    +0.000 C 
BRANCH  19  20
ATOM     20  N   UNL     1      -1.907  12.336  18.994  0.00  0.00    +0.000 N 
ATOM     21  C   UNL     1      -2.349  12.994  20.118  0.00  0.00    +0.000 A 
ATOM     22  N   UNL     1      -3.574  13.031  20.515  0.00  0.00    +0.000 NA
ATOM     23  C   UNL     1      -4.533  12.373  19.732  0.00  0.00    +0.000 A 
ATOM     24  C   UNL     1      -5.878  12.490  20.079  0.00  0.00    +0.000 A 
ATOM     25  C   UNL     1      -6.869  11.869  19.312  0.00  0.00    +0.000 A 
ATOM     26  C   UNL     1      -6.519  11.116  18.192  0.00  0.00    +0.000 A 
ATOM     27  C   UNL     1      -5.177  10.986  17.836  0.00  0.00    +0.000 A 
ATOM     28  C   UNL     1      -4.195  11.619  18.608  0.00  0.00    +0.000 A 
ATOM     29  C   UNL     1      -2.769  11.537  18.250  0.00  0.00    +0.000 A 
ATOM     30  O   UNL     1      -2.415  10.798  17.335  0.00  0.00    +0.000 OA
ENDBRANCH  19  20
ENDBRANCH   2  19
TORSDOF 5
ENDMDL
MODEL 9
REMARK VINA RESULT:      -8.3      5.700     10.525
REMARK  Name = 
REMARK  6 active torsions:
REMARK  status: ('A' for Active; 'I' for Inactive)
REMARK    1  A    between atoms: C_1  and  C_2
REMARK    2  A    between atoms: C_2  and  N_3
REMARK    3  A    between atoms: C_2  and  C_18
REMARK    4  A    between atoms: C_4  and  C_6
REMARK    5  A    between atoms: C_6  and  N_7
REMARK    6  A    between atoms: C_21  and  C_22
REMARK                            x       y       z     vdW  Elec       q    Type
REMARK                         _______ _______ _______ _____ _____    ______ ____
ROOT
ATOM      1  N   UNL     1      -0.343  10.159  21.403  0.00  0.00    +0.000 N 
ATOM      2  C   UNL     1      -0.599  11.136  22.327  0.00  0.00    +0.000 C 
ATOM      3  O   UNL     1      -0.930  10.827  23.467  0.00  0.00    +0.000 OA
ATOM      4  H   UNL     1      -0.494   9.210  21.726  0.00  0.00    +0.000 HD
ENDROOT
BRANCH   1   6
ATOM      5  C   UNL     1      -1.196  10.491  19.111  0.00  0.00    +0.000 C 
ATOM      6  C   UNL     1       0.028  10.388  20.031  0.00  0.00    +0.000 C 
BRANCH   6   7
ATOM      7  C   UNL     1       1.073   9.421  19.538  0.00  0.00    +0.000 A 
ATOM      8  C   UNL     1       1.532   9.501  18.211  0.00  0.00    +0.000 A 
ATOM      9  C   UNL     1       2.282   8.455  17.667  0.00  0.00    +0.000 A 
ATOM     10  C   UNL     1       2.611   7.319  18.434  0.00  0.00    +0.000 A 
ATOM     11  C   UNL     1       2.242   7.318  19.781  0.00  0.00    +0.000 A 
ATOM     12  C   UNL     1       1.493   8.352  20.331  0.00  0.00    +0.000 A 
BRANCH  10  13
ATOM     13  C   UNL     1       3.255   6.135  17.832  0.00  0.00    +0.000 A 
ATOM     14  C   UNL     1       2.612   4.889  17.776  0.00  0.00    +0.000 A 
ATOM     15  C   UNL     1       3.261   3.761  17.278  0.00  0.00    +0.000 A 
ATOM     16  C   UNL     1       4.565   3.855  16.801  0.00  0.00    +0.000 A 
ATOM     17  C   UNL     1       5.220   5.081  16.813  0.00  0.00    +0.000 A 
ATOM     18  C   UNL     1       4.573   6.204  17.328  0.00  0.00    +0.000 A 
ENDBRANCH  10  13
ENDBRANCH   6   7
ENDBRANCH   1   6
BRANCH   2  19
ATOM     19  C   UNL     1      -0.355  12.613  21.941  0.00  0.00    +0.000 C 
BRANCH  19  20
ATOM     20  N   UNL     1      -1.552  13.391  22.216  0.00  0.00    +0.000 N 
ATOM     21  C   UNL     1      -2.634  13.250  21.378  0.00  0.00    +0.000 A 
ATOM     22  N   UNL     1      -3.764  13.848  21.530  0.00  0.00    +0.000 NA
ATOM     23  C   UNL     1      -3.914  14.687  22.643  0.00  0.00    +0.000 A 
ATOM     24  C   UNL     1      -5.160  15.259  22.890  0.00  0.00    +0.000 A 
ATOM     25  C   UNL     1      -5.359  16.083  24.002  0.00  0.00    +0.000 A 
ATOM     26  C   UNL     1      -4.305  16.350  24.874  0.00  0.00    +0.000 A 
ATOM     27  C   UNL     1      -3.050  15.789  24.637  0.00  0.00    +0.000 A 
ATOM     28  C   UNL     1      -2.867  14.959  23.524  0.00  0.00    +0.000 A 
ATOM     29  C   UNL     1      -1.569  14.317  23.253  0.00  0.00    +0.000 A 
ATOM     30  O   UNL     1      -0.592  14.612  23.938  0.00  0.00    +0.000 OA
ENDBRANCH  19  20
ENDBRANCH   2  19
TORSDOF 5
ENDMDL
