MODEL 1
REMARK VINA RESULT:      -8.8      0.000      0.000
REMARK  Name = 
REMARK  5 active torsions:
REMARK  status: ('A' for Active; 'I' for Inactive)
REMARK    1  A    between atoms: C_2  and  C_10
REMARK    2  A    between atoms: N_3  and  C_4
REMARK    3  A    between atoms: C_4  and  C_5
REMARK    4  A    between atoms: C_12  and  S_13
REMARK    5  A    between atoms: S_13  and  N_16
REMARK                            x       y       z     vdW  Elec       q    Type
REMARK                         _______ _______ _______ _____ _____    ______ ____
ROOT
ATOM      1  C   UNL     1       6.346   4.806  16.850  0.00  0.00    +0.000 A 
ATOM      2  C   UNL     1       5.231   3.951  16.753  0.00  0.00    +0.000 A 
ATOM      3  C   UNL     1       4.549   3.548  17.905  0.00  0.00    +0.000 A 
ATOM      4  C   UNL     1       4.957   4.000  19.159  0.00  0.00    +0.000 A 
ATOM      5  C   UNL     1       6.054   4.853  19.262  0.00  0.00    +0.000 A 
ATOM      6  C   UNL     1       6.747   5.263  18.117  0.00  0.00    +0.000 A 
ATOM      7 CL   UNL     1       8.086   6.315  18.390  0.00  0.00    +0.000 Cl
ENDROOT
BRANCH   1   9
ATOM      8  O   UNL     1       7.747   6.125  15.511  0.00  0.00    +0.000 OA
ATOM      9  C   UNL     1       7.023   5.138  15.567  0.00  0.00    +0.000 C 
ATOM     10  N   UNL     1       6.820   4.295  14.503  0.00  0.00    +0.000 N 
ATOM     11  H   UNL     1       6.151   3.535  14.573  0.00  0.00    +0.000 HD
BRANCH  10  12
ATOM     12  C   UNL     1       7.392   4.517  13.186  0.00  0.00    +0.000 C 
BRANCH  12  13
ATOM     13  C   UNL     1       6.497   3.971  12.070  0.00  0.00    +0.000 C 
ATOM     14  C   UNL     1       5.036   3.799  12.454  0.00  0.00    +0.000 C 
ATOM     15  C   UNL     1       4.592   2.710  11.511  0.00  0.00    +0.000 C 
ATOM     16  C   UNL     1       5.819   1.828  11.432  0.00  0.00    +0.000 C 
ATOM     17  O   UNL     1       6.961   2.672  11.641  0.00  0.00    +0.000 OA
ENDBRANCH  12  13
ENDBRANCH  10  12
ENDBRANCH   1   9
BRANCH   3  18
ATOM     18  S   UNL     1       3.041   2.602  17.762  0.00  0.00    +0.000 S 
ATOM     19  O   UNL     1       2.572   2.790  16.403  0.00  0.00    +0.000 OA
ATOM     20  O   UNL     1       3.344   1.264  18.226  0.00  0.00    +0.000 OA
BRANCH  18  21
ATOM     21  N   UNL     1       1.986   3.349  18.879  0.00  0.00    +0.000 N 
ATOM     22  C   UNL     1       1.454   2.498  19.974  0.00  0.00    +0.000 C 
ATOM     23  C   UNL     1       2.005   2.927  21.321  0.00  0.00    +0.000 C 
ATOM     24  C   UNL     1       1.640   4.373  21.604  0.00  0.00    +0.000 C 
ATOM     25  C   UNL     1       1.891   5.278  20.427  0.00  0.00    +0.000 A 
ATOM     26  C   UNL     1       1.884   6.667  20.650  0.00  0.00    +0.000 A 
ATOM     27  C   UNL     1       2.038   7.557  19.594  0.00  0.00    +0.000 A 
ATOM     28  C   UNL     1       2.175   7.070  18.302  0.00  0.00    +0.000 A 
ATOM     29  C   UNL     1       2.162   5.693  18.067  0.00  0.00    +0.000 A 
ATOM     30  C   UNL     1       2.051   4.776  19.120  0.00  0.00    +0.000 A 
ENDBRANCH  18  21
ENDBRANCH   3  18
TORSDOF 5
ENDMDL
MODEL 2
REMARK VINA RESULT:      -8.4      5.186      7.392
REMARK  Name = 
REMARK  5 active torsions:
REMARK  status: ('A' for Active; 'I' for Inactive)
REMARK    1  A    between atoms: C_2  and  C_10
REMARK    2  A    between atoms: N_3  and  C_4
REMARK    3  A    between atoms: C_4  and  C_5
REMARK    4  A    between atoms: C_12  and  S_13
REMARK    5  A    between atoms: S_13  and  N_16
REMARK                            x       y       z     vdW  Elec       q    Type
REMARK                         _______ _______ _______ _____ _____    ______ ____
ROOT
ATOM      1  C   UNL     1       2.316   7.119  19.142  0.00  0.00    +0.000 A 
ATOM      2  C   UNL     1       1.899   8.443  18.900  0.00  0.00    +0.000 A 
ATOM      3  C   UNL     1       1.155   9.134  19.861  0.00  0.00    +0.000 A 
ATOM      4  C   UNL     1       0.831   8.525  21.073  0.00  0.00    +0.000 A 
ATOM      5  C   UNL     1       1.247   7.218  21.321  0.00  0.00    +0.000 A 
ATOM      6  C   UNL     1       1.991   6.514  20.367  0.00  0.00    +0.000 A 
ATOM      7 CL   UNL     1       2.437   4.907  20.805  0.00  0.00    +0.000 Cl
ENDROOT
BRANCH   1   9
ATOM      8  O   UNL     1       2.687   5.373  17.622  0.00  0.00    +0.000 OA
ATOM      9  C   UNL     1       3.065   6.462  18.036  0.00  0.00    +0.000 C 
ATOM     10  N   UNL     1       4.143   7.132  17.512  0.00  0.00    +0.000 N 
ATOM     11  H   UNL     1       4.466   7.994  17.939  0.00  0.00    +0.000 HD
BRANCH  10  12
ATOM     12  C   UNL     1       4.982   6.594  16.454  0.00  0.00    +0.000 C 
BRANCH  12  13
ATOM     13  C   UNL     1       6.422   6.366  16.921  0.00  0.00    +0.000 C 
ATOM     14  C   UNL     1       6.552   5.814  18.332  0.00  0.00    +0.000 C 
ATOM     15  C   UNL     1       7.919   6.306  18.734  0.00  0.00    +0.000 C 
ATOM     16  C   UNL     1       7.981   7.668  18.076  0.00  0.00    +0.000 C 
ATOM     17  O   UNL     1       7.161   7.607  16.899  0.00  0.00    +0.000 OA
ENDBRANCH  12  13
ENDBRANCH  10  12
ENDBRANCH   1   9
BRANCH   3  18
ATOM     18  S   UNL     1       0.775  10.862  19.619  0.00  0.00    +0.000 S 
ATOM     19  O   UNL     1       1.441  11.577  20.689  0.00  0.00    +0.000 OA
ATOM     20  O   UNL     1       1.112  11.172  18.244  0.00  0.00    +0.000 OA
BRANCH  18  21
ATOM     21  N   UNL     1      -0.922  10.934  19.802  0.00  0.00    +0.000 N 
ATOM     22  C   UNL     1      -1.440  11.632  21.006  0.00  0.00    +0.000 C 
ATOM     23  C   UNL     1      -2.159  12.914  20.632  0.00  0.00    +0.000 C 
ATOM     24  C   UNL     1      -3.322  12.615  19.702  0.00  0.00    +0.000 C 
ATOM     25  C   UNL     1      -2.948  11.673  18.588  0.00  0.00    +0.000 A 
ATOM     26  C   UNL     1      -3.833  11.555  17.501  0.00  0.00    +0.000 A 
ATOM     27  C   UNL     1      -3.582  10.651  16.475  0.00  0.00    +0.000 A 
ATOM     28  C   UNL     1      -2.459   9.838  16.539  0.00  0.00    +0.000 A 
ATOM     29  C   UNL     1      -1.586   9.932  17.625  0.00  0.00    +0.000 A 
ATOM     30  C   UNL     1      -1.795  10.865  18.648  0.00  0.00    +0.000 A 
ENDBRANCH  18  21
ENDBRANCH   3  18
TORSDOF 5
ENDMDL
MODEL 3
REMARK VINA RESULT:      -8.0      5.415      7.573
REMARK  Name = 
REMARK  5 active torsions:
REMARK  status: ('A' for Active; 'I' for Inactive)
REMARK    1  A    between atoms: C_2  and  C_10
REMARK    2  A    between atoms: N_3  and  C_4
REMARK    3  A    between atoms: C_4  and  C_5
REMARK    4  A    between atoms: C_12  and  S_13
REMARK    5  A    between atoms: S_13  and  N_16
REMARK                            x       y       z     vdW  Elec       q    Type
REMARK                         _______ _______ _______ _____ _____    ______ ____
ROOT
ATOM      1  C   UNL     1       2.188   7.496  19.364  0.00  0.00    +0.000 A 
ATOM      2  C   UNL     1       1.774   8.829  19.172  0.00  0.00    +0.000 A 
ATOM      3  C   UNL     1       0.941   9.450  20.108  0.00  0.00    +0.000 A 
ATOM      4  C   UNL     1       0.524   8.760  21.246  0.00  0.00    +0.000 A 
ATOM      5  C   UNL     1       0.937   7.445  21.446  0.00  0.00    +0.000 A 
ATOM      6  C   UNL     1       1.770   6.810  20.516  0.00  0.00    +0.000 A 
ATOM      7 CL   UNL     1       2.201   5.183  20.887  0.00  0.00    +0.000 Cl
ENDROOT
BRANCH   1   9
ATOM      8  O   UNL     1       3.674   7.673  17.559  0.00  0.00    +0.000 OA
ATOM      9  C   UNL     1       3.039   6.920  18.286  0.00  0.00    +0.000 C 
ATOM     10  N   UNL     1       3.088   5.552  18.178  0.00  0.00    +0.000 N 
ATOM     11  H   UNL     1       2.484   4.971  18.751  0.00  0.00    +0.000 HD
BRANCH  10  12
ATOM     12  C   UNL     1       3.850   4.859  17.153  0.00  0.00    +0.000 C 
BRANCH  12  13
ATOM     13  C   UNL     1       4.191   3.423  17.562  0.00  0.00    +0.000 C 
ATOM     14  C   UNL     1       2.999   2.482  17.633  0.00  0.00    +0.000 C 
ATOM     15  C   UNL     1       3.472   1.454  18.628  0.00  0.00    +0.000 C 
ATOM     16  C   UNL     1       4.272   2.291  19.604  0.00  0.00    +0.000 C 
ATOM     17  O   UNL     1       4.803   3.404  18.870  0.00  0.00    +0.000 OA
ENDBRANCH  12  13
ENDBRANCH  10  12
ENDBRANCH   1   9
BRANCH   3  18
ATOM     18  S   UNL     1       0.557  11.186  19.945  0.00  0.00    +0.000 S 
ATOM     19  O   UNL     1       1.209  11.851  21.055  0.00  0.00    +0.000 OA
ATOM     20  O   UNL     1       0.908  11.563  18.590  0.00  0.00    +0.000 OA
BRANCH  18  21
ATOM     21  N   UNL     1      -1.141  11.244  20.111  0.00  0.00    +0.000 N 
ATOM     22  C   UNL     1      -1.679  12.010  21.265  0.00  0.00    +0.000 C 
ATOM     23  C   UNL     1      -2.414  13.255  20.803  0.00  0.00    +0.000 C 
ATOM     24  C   UNL     1      -3.565  12.879  19.888  0.00  0.00    +0.000 C 
ATOM     25  C   UNL     1      -3.169  11.872  18.840  0.00  0.00    +0.000 A 
ATOM     26  C   UNL     1      -4.045  11.671  17.757  0.00  0.00    +0.000 A 
ATOM     27  C   UNL     1      -3.773  10.706  16.793  0.00  0.00    +0.000 A 
ATOM     28  C   UNL     1      -2.638   9.915  16.916  0.00  0.00    +0.000 A 
ATOM     29  C   UNL     1      -1.774  10.093  18.000  0.00  0.00    +0.000 A 
ATOM     30  C   UNL     1      -2.006  11.087  18.959  0.00  0.00    +0.000 A 
ENDBRANCH  18  21
ENDBRANCH   3  18
TORSDOF 5
ENDMDL
MODEL 4
REMARK VINA RESULT:      -7.9      3.481      7.486
REMARK  Name = 
REMARK  5 active torsions:
REMARK  status: ('A' for Active; 'I' for Inactive)
REMARK    1  A    between atoms: C_2  and  C_10
REMARK    2  A    between atoms: N_3  and  C_4
REMARK    3  A    between atoms: C_4  and  C_5
REMARK    4  A    between atoms: C_12  and  S_13
REMARK    5  A    between atoms: S_13  and  N_16
REMARK                            x       y       z     vdW  Elec       q    Type
REMARK                         _______ _______ _______ _____ _____    ______ ____
ROOT
ATOM      1  C   UNL     1       2.440   7.067  18.825  0.00  0.00    +0.000 A 
ATOM      2  C   UNL     1       2.975   5.981  18.105  0.00  0.00    +0.000 A 
ATOM      3  C   UNL     1       3.101   4.727  18.710  0.00  0.00    +0.000 A 
ATOM      4  C   UNL     1       2.683   4.537  20.027  0.00  0.00    +0.000 A 
ATOM      5  C   UNL     1       2.146   5.605  20.742  0.00  0.00    +0.000 A 
ATOM      6  C   UNL     1       2.016   6.866  20.149  0.00  0.00    +0.000 A 
ATOM      7 CL   UNL     1       1.338   8.096  21.149  0.00  0.00    +0.000 Cl
ENDROOT
BRANCH   1   9
ATOM      8  O   UNL     1       2.866   8.440  16.972  0.00  0.00    +0.000 OA
ATOM      9  C   UNL     1       2.391   8.366  18.099  0.00  0.00    +0.000 C 
ATOM     10  N   UNL     1       1.785   9.425  18.729  0.00  0.00    +0.000 N 
ATOM     11  H   UNL     1       1.477   9.339  19.692  0.00  0.00    +0.000 HD
BRANCH  10  12
ATOM     12  C   UNL     1       1.697  10.755  18.151  0.00  0.00    +0.000 C 
BRANCH  12  13
ATOM     13  C   UNL     1       0.794  11.681  18.971  0.00  0.00    +0.000 C 
ATOM     14  C   UNL     1       1.071  11.676  20.466  0.00  0.00    +0.000 C 
ATOM     15  C   UNL     1      -0.267  12.079  21.032  0.00  0.00    +0.000 C 
ATOM     16  C   UNL     1      -1.237  11.395  20.091  0.00  0.00    +0.000 C 
ATOM     17  O   UNL     1      -0.592  11.304  18.812  0.00  0.00    +0.000 OA
ENDBRANCH  12  13
ENDBRANCH  10  12
ENDBRANCH   1   9
BRANCH   3  18
ATOM     18  S   UNL     1       3.622   3.320  17.743  0.00  0.00    +0.000 S 
ATOM     19  O   UNL     1       3.909   2.262  18.690  0.00  0.00    +0.000 OA
ATOM     20  O   UNL     1       2.602   3.108  16.735  0.00  0.00    +0.000 OA
BRANCH  18  21
ATOM     21  N   UNL     1       5.051   3.859  16.978  0.00  0.00    +0.000 N 
ATOM     22  C   UNL     1       5.058   3.868  15.493  0.00  0.00    +0.000 C 
ATOM     23  C   UNL     1       5.103   5.284  14.951  0.00  0.00    +0.000 C 
ATOM     24  C   UNL     1       6.346   6.000  15.449  0.00  0.00    +0.000 C 
ATOM     25  C   UNL     1       6.574   5.809  16.926  0.00  0.00    +0.000 A 
ATOM     26  C   UNL     1       7.503   6.653  17.563  0.00  0.00    +0.000 A 
ATOM     27  C   UNL     1       7.812   6.482  18.908  0.00  0.00    +0.000 A 
ATOM     28  C   UNL     1       7.217   5.451  19.622  0.00  0.00    +0.000 A 
ATOM     29  C   UNL     1       6.310   4.595  18.993  0.00  0.00    +0.000 A 
ATOM     30  C   UNL     1       5.951   4.774  17.651  0.00  0.00    +0.000 A 
ENDBRANCH  18  21
ENDBRANCH   3  18
TORSDOF 5
ENDMDL
MODEL 5
REMARK VINA RESULT:      -7.8      3.533      7.321
REMARK  Name = 
REMARK  5 active torsions:
REMARK  status: ('A' for Active; 'I' for Inactive)
REMARK    1  A    between atoms: C_2  and  C_10
REMARK    2  A    between atoms: N_3  and  C_4
REMARK    3  A    between atoms: C_4  and  C_5
REMARK    4  A    between atoms: C_12  and  S_13
REMARK    5  A    between atoms: S_13  and  N_16
REMARK                            x       y       z     vdW  Elec       q    Type
REMARK                         _______ _______ _______ _____ _____    ______ ____
ROOT
ATOM      1  C   UNL     1       2.352   6.986  18.866  0.00  0.00    +0.000 A 
ATOM      2  C   UNL     1       2.882   5.914  18.122  0.00  0.00    +0.000 A 
ATOM      3  C   UNL     1       3.120   4.680  18.735  0.00  0.00    +0.000 A 
ATOM      4  C   UNL     1       2.820   4.495  20.084  0.00  0.00    +0.000 A 
ATOM      5  C   UNL     1       2.288   5.549  20.824  0.00  0.00    +0.000 A 
ATOM      6  C   UNL     1       2.047   6.790  20.223  0.00  0.00    +0.000 A 
ATOM      7 CL   UNL     1       1.390   8.005  21.256  0.00  0.00    +0.000 Cl
ENDROOT
BRANCH   1   9
ATOM      8  O   UNL     1       2.890   8.497  17.156  0.00  0.00    +0.000 OA
ATOM      9  C   UNL     1       2.178   8.266  18.126  0.00  0.00    +0.000 C 
ATOM     10  N   UNL     1       1.199   9.124  18.560  0.00  0.00    +0.000 N 
ATOM     11  H   UNL     1       0.687   8.927  19.414  0.00  0.00    +0.000 HD
BRANCH  10  12
ATOM     12  C   UNL     1       0.943  10.419  17.952  0.00  0.00    +0.000 C 
BRANCH  12  13
ATOM     13  C   UNL     1       1.555  11.566  18.762  0.00  0.00    +0.000 C 
ATOM     14  C   UNL     1       0.593  12.698  19.087  0.00  0.00    +0.000 C 
ATOM     15  C   UNL     1       1.530  13.867  19.248  0.00  0.00    +0.000 C 
ATOM     16  C   UNL     1       2.583  13.586  18.197  0.00  0.00    +0.000 C 
ATOM     17  O   UNL     1       2.656  12.162  18.041  0.00  0.00    +0.000 OA
ENDBRANCH  12  13
ENDBRANCH  10  12
ENDBRANCH   1   9
BRANCH   3  18
ATOM     18  S   UNL     1       3.632   3.281  17.750  0.00  0.00    +0.000 S 
ATOM     19  O   UNL     1       3.927   2.214  18.686  0.00  0.00    +0.000 OA
ATOM     20  O   UNL     1       2.605   3.079  16.749  0.00  0.00    +0.000 OA
BRANCH  18  21
ATOM     21  N   UNL     1       5.056   3.827  16.980  0.00  0.00    +0.000 N 
ATOM     22  C   UNL     1       5.061   3.823  15.495  0.00  0.00    +0.000 C 
ATOM     23  C   UNL     1       5.094   5.235  14.941  0.00  0.00    +0.000 C 
ATOM     24  C   UNL     1       6.331   5.966  15.432  0.00  0.00    +0.000 C 
ATOM     25  C   UNL     1       6.562   5.789  16.910  0.00  0.00    +0.000 A 
ATOM     26  C   UNL     1       7.484   6.646  17.539  0.00  0.00    +0.000 A 
ATOM     27  C   UNL     1       7.796   6.489  18.885  0.00  0.00    +0.000 A 
ATOM     28  C   UNL     1       7.210   5.459  19.608  0.00  0.00    +0.000 A 
ATOM     29  C   UNL     1       6.310   4.590  18.987  0.00  0.00    +0.000 A 
ATOM     30  C   UNL     1       5.949   4.755  17.644  0.00  0.00    +0.000 A 
ENDBRANCH  18  21
ENDBRANCH   3  18
TORSDOF 5
ENDMDL
MODEL 6
REMARK VINA RESULT:      -7.7      9.247     13.215
REMARK  Name = 
REMARK  5 active torsions:
REMARK  status: ('A' for Active; 'I' for Inactive)
REMARK    1  A    between atoms: C_2  and  C_10
REMARK    2  A    between atoms: N_3  and  C_4
REMARK    3  A    between atoms: C_4  and  C_5
REMARK    4  A    between atoms: C_12  and  S_13
REMARK    5  A    between atoms: S_13  and  N_16
REMARK                            x       y       z     vdW  Elec       q    Type
REMARK                         _______ _______ _______ _____ _____    ______ ____
ROOT
ATOM      1  C   UNL     1      -4.612  12.105  19.366  0.00  0.00    +0.000 A 
ATOM      2  C   UNL     1      -3.238  12.413  19.405  0.00  0.00    +0.000 A 
ATOM      3  C   UNL     1      -2.330  11.683  18.632  0.00  0.00    +0.000 A 
ATOM      4  C   UNL     1      -2.778  10.655  17.803  0.00  0.00    +0.000 A 
ATOM      5  C   UNL     1      -4.137  10.351  17.754  0.00  0.00    +0.000 A 
ATOM      6  C   UNL     1      -5.056  11.072  18.525  0.00  0.00    +0.000 A 
ATOM      7 CL   UNL     1      -6.704  10.588  18.369  0.00  0.00    +0.000 Cl
ENDROOT
BRANCH   1   9
ATOM      8  O   UNL     1      -5.748  14.071  19.951  0.00  0.00    +0.000 OA
ATOM      9  C   UNL     1      -5.484  12.915  20.260  0.00  0.00    +0.000 C 
ATOM     10  N   UNL     1      -5.975  12.310  21.391  0.00  0.00    +0.000 N 
ATOM     11  H   UNL     1      -5.665  11.378  21.647  0.00  0.00    +0.000 HD
BRANCH  10  12
ATOM     12  C   UNL     1      -6.808  12.993  22.365  0.00  0.00    +0.000 C 
BRANCH  12  13
ATOM     13  C   UNL     1      -6.037  13.335  23.643  0.00  0.00    +0.000 C 
ATOM     14  C   UNL     1      -4.830  14.235  23.434  0.00  0.00    +0.000 C 
ATOM     15  C   UNL     1      -3.959  13.866  24.608  0.00  0.00    +0.000 C 
ATOM     16  C   UNL     1      -4.213  12.379  24.746  0.00  0.00    +0.000 C 
ATOM     17  O   UNL     1      -5.545  12.132  24.273  0.00  0.00    +0.000 OA
ENDBRANCH  12  13
ENDBRANCH  10  12
ENDBRANCH   1   9
BRANCH   3  18
ATOM     18  S   UNL     1      -0.618  12.185  18.559  0.00  0.00    +0.000 S 
ATOM     19  O   UNL     1       0.087  11.120  17.875  0.00  0.00    +0.000 OA
ATOM     20  O   UNL     1      -0.601  13.520  17.995  0.00  0.00    +0.000 OA
BRANCH  18  21
ATOM     21  N   UNL     1      -0.150  12.272  20.199  0.00  0.00    +0.000 N 
ATOM     22  C   UNL     1      -0.116  13.621  20.819  0.00  0.00    +0.000 C 
ATOM     23  C   UNL     1      -1.193  13.767  21.877  0.00  0.00    +0.000 C 
ATOM     24  C   UNL     1      -1.009  12.725  22.965  0.00  0.00    +0.000 C 
ATOM     25  C   UNL     1      -0.754  11.347  22.413  0.00  0.00    +0.000 A 
ATOM     26  C   UNL     1      -0.867  10.255  23.293  0.00  0.00    +0.000 A 
ATOM     27  C   UNL     1      -0.575   8.964  22.864  0.00  0.00    +0.000 A 
ATOM     28  C   UNL     1      -0.143   8.757  21.561  0.00  0.00    +0.000 A 
ATOM     29  C   UNL     1      -0.007   9.838  20.687  0.00  0.00    +0.000 A 
ATOM     30  C   UNL     1      -0.336  11.140  21.084  0.00  0.00    +0.000 A 
ENDBRANCH  18  21
ENDBRANCH   3  18
TORSDOF 5
ENDMDL
MODEL 7
REMARK VINA RESULT:      -7.4      5.537      8.280
REMARK  Name = 
REMARK  5 active torsions:
REMARK  status: ('A' for Active; 'I' for Inactive)
REMARK    1  A    between atoms: C_2  and  C_10
REMARK    2  A    between atoms: N_3  and  C_4
REMARK    3  A    between atoms: C_4  and  C_5
REMARK    4  A    between atoms: C_12  and  S_13
REMARK    5  A    between atoms: S_13  and  N_16
REMARK                            x       y       z     vdW  Elec       q    Type
REMARK                         _______ _______ _______ _____ _____    ______ ____
ROOT
ATOM      1  C   UNL     1       1.735   7.942  19.646  0.00  0.00    +0.000 A 
ATOM      2  C   UNL     1       1.258   9.201  20.061  0.00  0.00    +0.000 A 
ATOM      3  C   UNL     1       1.403  10.318  19.234  0.00  0.00    +0.000 A 
ATOM      4  C   UNL     1       2.008  10.195  17.984  0.00  0.00    +0.000 A 
ATOM      5  C   UNL     1       2.475   8.951  17.564  0.00  0.00    +0.000 A 
ATOM      6  C   UNL     1       2.338   7.824  18.382  0.00  0.00    +0.000 A 
ATOM      7 CL   UNL     1       2.962   6.352  17.738  0.00  0.00    +0.000 Cl
ENDROOT
BRANCH   1   9
ATOM      8  O   UNL     1       0.814   6.980  21.575  0.00  0.00    +0.000 OA
ATOM      9  C   UNL     1       1.567   6.830  20.620  0.00  0.00    +0.000 C 
ATOM     10  N   UNL     1       2.255   5.666  20.383  0.00  0.00    +0.000 N 
ATOM     11  H   UNL     1       2.928   5.615  19.624  0.00  0.00    +0.000 HD
BRANCH  10  12
ATOM     12  C   UNL     1       2.209   4.515  21.269  0.00  0.00    +0.000 C 
BRANCH  12  13
ATOM     13  C   UNL     1       2.158   3.194  20.495  0.00  0.00    +0.000 C 
ATOM     14  C   UNL     1       3.482   2.765  19.883  0.00  0.00    +0.000 C 
ATOM     15  C   UNL     1       3.028   1.913  18.726  0.00  0.00    +0.000 C 
ATOM     16  C   UNL     1       1.784   2.636  18.257  0.00  0.00    +0.000 C 
ATOM     17  O   UNL     1       1.216   3.286  19.404  0.00  0.00    +0.000 OA
ENDBRANCH  12  13
ENDBRANCH  10  12
ENDBRANCH   1   9
BRANCH   3  18
ATOM     18  S   UNL     1       0.649  11.870  19.694  0.00  0.00    +0.000 S 
ATOM     19  O   UNL     1       1.251  12.255  20.955  0.00  0.00    +0.000 OA
ATOM     20  O   UNL     1       0.780  12.750  18.550  0.00  0.00    +0.000 OA
BRANCH  18  21
ATOM     21  N   UNL     1      -1.000  11.475  19.901  0.00  0.00    +0.000 N 
ATOM     22  C   UNL     1      -1.671  12.001  21.117  0.00  0.00    +0.000 C 
ATOM     23  C   UNL     1      -2.719  13.039  20.761  0.00  0.00    +0.000 C 
ATOM     24  C   UNL     1      -3.770  12.436  19.846  0.00  0.00    +0.000 C 
ATOM     25  C   UNL     1      -3.169  11.635  18.721  0.00  0.00    +0.000 A 
ATOM     26  C   UNL     1      -4.005  11.282  17.645  0.00  0.00    +0.000 A 
ATOM     27  C   UNL     1      -3.532  10.483  16.610  0.00  0.00    +0.000 A 
ATOM     28  C   UNL     1      -2.229  10.008  16.653  0.00  0.00    +0.000 A 
ATOM     29  C   UNL     1      -1.398  10.335  17.727  0.00  0.00    +0.000 A 
ATOM     30  C   UNL     1      -1.839  11.173  18.759  0.00  0.00    +0.000 A 
ENDBRANCH  18  21
ENDBRANCH   3  18
TORSDOF 5
ENDMDL
MODEL 8
REMARK VINA RESULT:      -7.4      4.685      7.601
REMARK  Name = 
REMARK  5 active torsions:
REMARK  status: ('A' for Active; 'I' for Inactive)
REMARK    1  A    between atoms: C_2  and  C_10
REMARK    2  A    between atoms: N_3  and  C_4
REMARK    3  A    between atoms: C_4  and  C_5
REMARK    4  A    between atoms: C_12  and  S_13
REMARK    5  A    between atoms: S_13  and  N_16
REMARK                            x       y       z     vdW  Elec       q    Type
REMARK                         _______ _______ _______ _____ _____    ______ ____
ROOT
ATOM      1  C   UNL     1       2.583   7.136  18.924  0.00  0.00    +0.000 A 
ATOM      2  C   UNL     1       1.842   7.580  20.036  0.00  0.00    +0.000 A 
ATOM      3  C   UNL     1       1.363   8.892  20.086  0.00  0.00    +0.000 A 
ATOM      4  C   UNL     1       1.601   9.769  19.028  0.00  0.00    +0.000 A 
ATOM      5  C   UNL     1       2.327   9.333  17.921  0.00  0.00    +0.000 A 
ATOM      6  C   UNL     1       2.814   8.023  17.859  0.00  0.00    +0.000 A 
ATOM      7 CL   UNL     1       3.696   7.620  16.434  0.00  0.00    +0.000 Cl
ENDROOT
BRANCH   1   9
ATOM      8  O   UNL     1       4.042   5.476  19.707  0.00  0.00    +0.000 OA
ATOM      9  C   UNL     1       3.080   5.734  18.993  0.00  0.00    +0.000 C 
ATOM     10  N   UNL     1       2.412   4.784  18.261  0.00  0.00    +0.000 N 
ATOM     11  H   UNL     1       1.671   5.058  17.623  0.00  0.00    +0.000 HD
BRANCH  10  12
ATOM     12  C   UNL     1       2.809   3.388  18.211  0.00  0.00    +0.000 C 
BRANCH  12  13
ATOM     13  C   UNL     1       2.268   2.592  19.402  0.00  0.00    +0.000 C 
ATOM     14  C   UNL     1       1.061   3.214  20.085  0.00  0.00    +0.000 C 
ATOM     15  C   UNL     1       1.173   2.658  21.482  0.00  0.00    +0.000 C 
ATOM     16  C   UNL     1       2.670   2.635  21.703  0.00  0.00    +0.000 C 
ATOM     17  O   UNL     1       3.284   2.452  20.419  0.00  0.00    +0.000 OA
ENDBRANCH  12  13
ENDBRANCH  10  12
ENDBRANCH   1   9
BRANCH   3  18
ATOM     18  S   UNL     1       0.285   9.397  21.417  0.00  0.00    +0.000 S 
ATOM     19  O   UNL     1      -0.695   8.341  21.568  0.00  0.00    +0.000 OA
ATOM     20  O   UNL     1       1.140   9.733  22.538  0.00  0.00    +0.000 OA
BRANCH  18  21
ATOM     21  N   UNL     1      -0.443  10.827  20.831  0.00  0.00    +0.000 N 
ATOM     22  C   UNL     1       0.040  12.111  21.399  0.00  0.00    +0.000 C 
ATOM     23  C   UNL     1       0.780  12.930  20.357  0.00  0.00    +0.000 C 
ATOM     24  C   UNL     1      -0.130  13.229  19.179  0.00  0.00    +0.000 C 
ATOM     25  C   UNL     1      -0.886  12.016  18.706  0.00  0.00    +0.000 A 
ATOM     26  C   UNL     1      -1.520  12.083  17.452  0.00  0.00    +0.000 A 
ATOM     27  C   UNL     1      -2.294  11.024  16.989  0.00  0.00    +0.000 A 
ATOM     28  C   UNL     1      -2.462   9.900  17.784  0.00  0.00    +0.000 A 
ATOM     29  C   UNL     1      -1.853   9.832  19.040  0.00  0.00    +0.000 A 
ATOM     30  C   UNL     1      -1.036  10.868  19.509  0.00  0.00    +0.000 A 
ENDBRANCH  18  21
ENDBRANCH   3  18
TORSDOF 5
ENDMDL
MODEL 9
REMARK VINA RESULT:      -7.4      5.360      7.745
REMARK  Name = 
REMARK  5 active torsions:
REMARK  status: ('A' for Active; 'I' for Inactive)
REMARK    1  A    between atoms: C_2  and  C_10
REMARK    2  A    between atoms: N_3  and  C_4
REMARK    3  A    between atoms: C_4  and  C_5
REMARK    4  A    between atoms: C_12  and  S_13
REMARK    5  A    between atoms: S_13  and  N_16
REMARK                            x       y       z     vdW  Elec       q    Type
REMARK                         _______ _______ _______ _____ _____    ______ ____
ROOT
ATOM      1  C   UNL     1       2.260   7.382  19.050  0.00  0.00    +0.000 A 
ATOM      2  C   UNL     1       1.898   8.684  18.651  0.00  0.00    +0.000 A 
ATOM      3  C   UNL     1       1.178   9.512  19.517  0.00  0.00    +0.000 A 
ATOM      4  C   UNL     1       0.825   9.062  20.790  0.00  0.00    +0.000 A 
ATOM      5  C   UNL     1       1.188   7.779  21.193  0.00  0.00    +0.000 A 
ATOM      6  C   UNL     1       1.907   6.939  20.335  0.00  0.00    +0.000 A 
ATOM      7 CL   UNL     1       2.286   5.378  20.962  0.00  0.00    +0.000 Cl
ENDROOT
BRANCH   1   9
ATOM      8  O   UNL     1       2.573   5.453  17.754  0.00  0.00    +0.000 OA
ATOM      9  C   UNL     1       2.988   6.571  18.035  0.00  0.00    +0.000 C 
ATOM     10  N   UNL     1       4.088   7.135  17.439  0.00  0.00    +0.000 N 
ATOM     11  H   UNL     1       4.441   8.031  17.760  0.00  0.00    +0.000 HD
BRANCH  10  12
ATOM     12  C   UNL     1       4.909   6.444  16.459  0.00  0.00    +0.000 C 
BRANCH  12  13
ATOM     13  C   UNL     1       6.338   6.219  16.960  0.00  0.00    +0.000 C 
ATOM     14  C   UNL     1       6.439   5.771  18.409  0.00  0.00    +0.000 C 
ATOM     15  C   UNL     1       7.813   6.259  18.792  0.00  0.00    +0.000 C 
ATOM     16  C   UNL     1       7.914   7.567  18.036  0.00  0.00    +0.000 C 
ATOM     17  O   UNL     1       7.107   7.438  16.856  0.00  0.00    +0.000 OA
ENDBRANCH  12  13
ENDBRANCH  10  12
ENDBRANCH   1   9
BRANCH   3  18
ATOM     18  S   UNL     1       0.869  11.213  19.071  0.00  0.00    +0.000 S 
ATOM     19  O   UNL     1       1.854  11.553  18.064  0.00  0.00    +0.000 OA
ATOM     20  O   UNL     1      -0.539  11.306  18.741  0.00  0.00    +0.000 OA
BRANCH  18  21
ATOM     21  N   UNL     1       1.155  12.071  20.519  0.00  0.00    +0.000 N 
ATOM     22  C   UNL     1       2.377  12.913  20.573  0.00  0.00    +0.000 C 
ATOM     23  C   UNL     1       2.027  14.388  20.626  0.00  0.00    +0.000 C 
ATOM     24  C   UNL     1       1.176  14.685  21.849  0.00  0.00    +0.000 C 
ATOM     25  C   UNL     1       0.057  13.693  22.032  0.00  0.00    +0.000 A 
ATOM     26  C   UNL     1      -0.971  14.021  22.935  0.00  0.00    +0.000 A 
ATOM     27  C   UNL     1      -1.995  13.120  23.203  0.00  0.00    +0.000 A 
ATOM     28  C   UNL     1      -1.988  11.873  22.592  0.00  0.00    +0.000 A 
ATOM     29  C   UNL     1      -0.960  11.531  21.711  0.00  0.00    +0.000 A 
ATOM     30  C   UNL     1       0.059  12.438  21.393  0.00  0.00    +0.000 A 
ENDBRANCH  18  21
ENDBRANCH   3  18
TORSDOF 5
ENDMDL
