MODEL 1
REMARK VINA RESULT:      -9.4      0.000      0.000
REMARK  Name = 
REMARK  4 active torsions:
REMARK  status: ('A' for Active; 'I' for Inactive)
REMARK    1  A    between atoms: C_2  and  C_18
REMARK    2  A    between atoms: N_3  and  C_4
REMARK    3  A    between atoms: C_4  and  C_5
REMARK    4  A    between atoms: C_4  and  C_11
REMARK                            x       y       z     vdW  Elec       q    Type
REMARK                         _______ _______ _______ _____ _____    ______ ____
ROOT
ATOM      1  O   UNL     1       4.495   3.552  18.542  0.00  0.00    +0.000 OA
ATOM      2  C   UNL     1       3.895   4.151  17.642  0.00  0.00    +0.000 C 
ATOM      3  N   UNL     1       4.551   4.638  16.540  0.00  0.00    +0.000 N 
ATOM      4  H   UNL     1       4.006   5.148  15.849  0.00  0.00    +0.000 HD
ENDROOT
BRANCH   2   5
ATOM      5  C   UNL     1       2.391   4.441  17.742  0.00  0.00    +0.000 C 
ATOM      6  C   UNL     1       2.157   5.938  18.105  0.00  0.00    +0.000 C 
ATOM      7  C   UNL     1       2.383   6.216  19.614  0.00  0.00    +0.000 C 
ATOM      8  C   UNL     1       1.399   5.427  20.507  0.00  0.00    +0.000 C 
ATOM      9  C   UNL     1       1.283   4.044  19.988  0.00  0.00    +0.000 A 
ATOM     10  N   UNL     1       0.721   2.963  20.607  0.00  0.00    +0.000 N 
ATOM     11  C   UNL     1       0.855   1.902  19.746  0.00  0.00    +0.000 A 
ATOM     12  N   UNL     1       1.469   2.247  18.627  0.00  0.00    +0.000 NA
ATOM     13  C   UNL     1       1.707   3.588  18.762  0.00  0.00    +0.000 A 
ATOM     14  H   UNL     1       0.286   2.937  21.517  0.00  0.00    +0.000 HD
ENDBRANCH   2   5
BRANCH   3  15
ATOM     15  C   UNL     1       5.977   4.464  16.320  0.00  0.00    +0.000 C 
BRANCH  15  16
ATOM     16  C   UNL     1       6.775   5.536  17.067  0.00  0.00    +0.000 A 
ATOM     17  C   UNL     1       7.563   5.195  18.184  0.00  0.00    +0.000 A 
ATOM     18  C   UNL     1       8.279   6.176  18.876  0.00  0.00    +0.000 A 
ATOM     19  C   UNL     1       8.231   7.494  18.441  0.00  0.00    +0.000 A 
ATOM     20  F   UNL     1       8.918   8.433  19.104  0.00  0.00    +0.000 F 
ATOM     21  C   UNL     1       7.478   7.853  17.332  0.00  0.00    +0.000 A 
ATOM     22  C   UNL     1       6.754   6.878  16.647  0.00  0.00    +0.000 A 
ENDBRANCH  15  16
BRANCH  15  23
ATOM     23  C   UNL     1       6.310   4.438  14.831  0.00  0.00    +0.000 A 
ATOM     24  C   UNL     1       7.425   5.126  14.329  0.00  0.00    +0.000 A 
ATOM     25  C   UNL     1       7.772   5.037  12.982  0.00  0.00    +0.000 A 
ATOM     26  C   UNL     1       7.018   4.247  12.115  0.00  0.00    +0.000 A 
ATOM     27  C   UNL     1       5.898   3.571  12.588  0.00  0.00    +0.000 A 
ATOM     28  C   UNL     1       5.537   3.678  13.934  0.00  0.00    +0.000 A 
ENDBRANCH  15  23
ENDBRANCH   3  15
TORSDOF 4
ENDMDL
MODEL 2
REMARK VINA RESULT:      -9.2      0.325      1.378
REMARK  Name = 
REMARK  4 active torsions:
REMARK  status: ('A' for Active; 'I' for Inactive)
REMARK    1  A    between atoms: C_2  and  C_18
REMARK    2  A    between atoms: N_3  and  C_4
REMARK    3  A    between atoms: C_4  and  C_5
REMARK    4  A    between atoms: C_4  and  C_11
REMARK                            x       y       z     vdW  Elec       q    Type
REMARK                         _______ _______ _______ _____ _____    ______ ____
ROOT
ATOM      1  O   UNL     1       4.537   4.244  18.801  0.00  0.00    +0.000 OA
ATOM      2  C   UNL     1       3.941   4.566  17.767  0.00  0.00    +0.000 C 
ATOM      3  N   UNL     1       4.604   4.740  16.579  0.00  0.00    +0.000 N 
ATOM      4  H   UNL     1       4.061   5.034  15.771  0.00  0.00    +0.000 HD
ENDROOT
BRANCH   2   5
ATOM      5  C   UNL     1       2.434   4.854  17.772  0.00  0.00    +0.000 C 
ATOM      6  C   UNL     1       2.159   6.266  18.371  0.00  0.00    +0.000 C 
ATOM      7  C   UNL     1       2.237   6.269  19.920  0.00  0.00    +0.000 C 
ATOM      8  C   UNL     1       1.174   5.347  20.559  0.00  0.00    +0.000 C 
ATOM      9  C   UNL     1       1.114   4.080  19.795  0.00  0.00    +0.000 A 
ATOM     10  N   UNL     1       0.499   2.914  20.155  0.00  0.00    +0.000 N 
ATOM     11  C   UNL     1       0.720   2.021  19.136  0.00  0.00    +0.000 A 
ATOM     12  N   UNL     1       1.438   2.550  18.161  0.00  0.00    +0.000 NA
ATOM     13  C   UNL     1       1.657   3.843  18.554  0.00  0.00    +0.000 A 
ATOM     14  H   UNL     1      -0.021   2.733  20.999  0.00  0.00    +0.000 HD
ENDBRANCH   2   5
BRANCH   3  15
ATOM     15  C   UNL     1       6.034   4.530  16.427  0.00  0.00    +0.000 C 
BRANCH  15  16
ATOM     16  C   UNL     1       6.823   5.629  17.142  0.00  0.00    +0.000 A 
ATOM     17  C   UNL     1       6.750   6.966  16.703  0.00  0.00    +0.000 A 
ATOM     18  C   UNL     1       7.482   7.967  17.346  0.00  0.00    +0.000 A 
ATOM     19  C   UNL     1       8.270   7.643  18.444  0.00  0.00    +0.000 A 
ATOM     20  F   UNL     1       8.971   8.604  19.060  0.00  0.00    +0.000 F 
ATOM     21  C   UNL     1       8.344   6.338  18.908  0.00  0.00    +0.000 A 
ATOM     22  C   UNL     1       7.623   5.335  18.261  0.00  0.00    +0.000 A 
ENDBRANCH  15  16
BRANCH  15  23
ATOM     23  C   UNL     1       6.424   4.413  14.955  0.00  0.00    +0.000 A 
ATOM     24  C   UNL     1       5.660   3.643  14.065  0.00  0.00    +0.000 A 
ATOM     25  C   UNL     1       5.973   3.602  12.708  0.00  0.00    +0.000 A 
ATOM     26  C   UNL     1       7.046   4.341  12.213  0.00  0.00    +0.000 A 
ATOM     27  C   UNL     1       7.828   5.097  13.081  0.00  0.00    +0.000 A 
ATOM     28  C   UNL     1       7.528   5.122  14.445  0.00  0.00    +0.000 A 
ENDBRANCH  15  23
ENDBRANCH   3  15
TORSDOF 4
ENDMDL
MODEL 3
REMARK VINA RESULT:      -9.1      2.408      4.444
REMARK  Name = 
REMARK  4 active torsions:
REMARK  status: ('A' for Active; 'I' for Inactive)
REMARK    1  A    between atoms: C_2  and  C_18
REMARK    2  A    between atoms: N_3  and  C_4
REMARK    3  A    between atoms: C_4  and  C_5
REMARK    4  A    between atoms: C_4  and  C_11
REMARK                            x       y       z     vdW  Elec       q    Type
REMARK                         _______ _______ _______ _____ _____    ______ ____
ROOT
ATOM      1  O   UNL     1       2.690   5.267  17.615  0.00  0.00    +0.000 OA
ATOM      2  C   UNL     1       3.274   4.180  17.529  0.00  0.00    +0.000 C 
ATOM      3  N   UNL     1       4.462   4.053  16.855  0.00  0.00    +0.000 N 
ATOM      4  H   UNL     1       4.878   3.127  16.795  0.00  0.00    +0.000 HD
ENDROOT
BRANCH   2   5
ATOM      5  C   UNL     1       2.668   2.899  18.118  0.00  0.00    +0.000 C 
ATOM      6  C   UNL     1       1.150   3.106  18.402  0.00  0.00    +0.000 C 
ATOM      7  C   UNL     1       0.903   3.908  19.706  0.00  0.00    +0.000 C 
ATOM      8  C   UNL     1       1.449   3.178  20.953  0.00  0.00    +0.000 C 
ATOM      9  C   UNL     1       2.783   2.617  20.636  0.00  0.00    +0.000 A 
ATOM     10  N   UNL     1       3.708   2.117  21.507  0.00  0.00    +0.000 N 
ATOM     11  C   UNL     1       4.787   1.723  20.755  0.00  0.00    +0.000 A 
ATOM     12  N   UNL     1       4.599   1.949  19.466  0.00  0.00    +0.000 NA
ATOM     13  C   UNL     1       3.338   2.475  19.386  0.00  0.00    +0.000 A 
ATOM     14  H   UNL     1       3.627   2.041  22.510  0.00  0.00    +0.000 HD
ENDBRANCH   2   5
BRANCH   3  15
ATOM     15  C   UNL     1       5.144   5.171  16.223  0.00  0.00    +0.000 C 
BRANCH  15  16
ATOM     16  C   UNL     1       5.764   4.745  14.891  0.00  0.00    +0.000 A 
ATOM     17  C   UNL     1       5.061   3.900  14.010  0.00  0.00    +0.000 A 
ATOM     18  C   UNL     1       5.634   3.497  12.801  0.00  0.00    +0.000 A 
ATOM     19  C   UNL     1       6.899   3.955  12.455  0.00  0.00    +0.000 A 
ATOM     20  F   UNL     1       7.447   3.569  11.296  0.00  0.00    +0.000 F 
ATOM     21  C   UNL     1       7.605   4.803  13.297  0.00  0.00    +0.000 A 
ATOM     22  C   UNL     1       7.040   5.197  14.509  0.00  0.00    +0.000 A 
ENDBRANCH  15  16
BRANCH  15  23
ATOM     23  C   UNL     1       6.175   5.794  17.161  0.00  0.00    +0.000 A 
ATOM     24  C   UNL     1       6.809   5.025  18.148  0.00  0.00    +0.000 A 
ATOM     25  C   UNL     1       7.806   5.576  18.951  0.00  0.00    +0.000 A 
ATOM     26  C   UNL     1       8.198   6.902  18.771  0.00  0.00    +0.000 A 
ATOM     27  C   UNL     1       7.570   7.687  17.809  0.00  0.00    +0.000 A 
ATOM     28  C   UNL     1       6.555   7.142  17.020  0.00  0.00    +0.000 A 
ENDBRANCH  15  23
ENDBRANCH   3  15
TORSDOF 4
ENDMDL
MODEL 4
REMARK VINA RESULT:      -9.0      2.955      6.991
REMARK  Name = 
REMARK  4 active torsions:
REMARK  status: ('A' for Active; 'I' for Inactive)
REMARK    1  A    between atoms: C_2  and  C_18
REMARK    2  A    between atoms: N_3  and  C_4
REMARK    3  A    between atoms: C_4  and  C_5
REMARK    4  A    between atoms: C_4  and  C_11
REMARK                            x       y       z     vdW  Elec       q    Type
REMARK                         _______ _______ _______ _____ _____    ______ ____
ROOT
ATOM      1  O   UNL     1       5.502   3.997  20.185  0.00  0.00    +0.000 OA
ATOM      2  C   UNL     1       5.658   4.762  19.226  0.00  0.00    +0.000 C 
ATOM      3  N   UNL     1       4.686   5.656  18.855  0.00  0.00    +0.000 N 
ATOM      4  H   UNL     1       4.863   6.238  18.039  0.00  0.00    +0.000 HD
ENDROOT
BRANCH   2   5
ATOM      5  C   UNL     1       6.922   4.707  18.359  0.00  0.00    +0.000 C 
ATOM      6  C   UNL     1       7.924   5.816  18.800  0.00  0.00    +0.000 C 
ATOM      7  C   UNL     1       7.526   7.213  18.260  0.00  0.00    +0.000 C 
ATOM      8  C   UNL     1       7.527   7.264  16.716  0.00  0.00    +0.000 C 
ATOM      9  C   UNL     1       6.896   6.029  16.194  0.00  0.00    +0.000 A 
ATOM     10  N   UNL     1       6.478   5.778  14.918  0.00  0.00    +0.000 N 
ATOM     11  C   UNL     1       5.953   4.510  14.916  0.00  0.00    +0.000 A 
ATOM     12  N   UNL     1       6.011   3.950  16.112  0.00  0.00    +0.000 NA
ATOM     13  C   UNL     1       6.628   4.881  16.902  0.00  0.00    +0.000 A 
ATOM     14  H   UNL     1       6.540   6.394  14.122  0.00  0.00    +0.000 HD
ENDBRANCH   2   5
BRANCH   3  15
ATOM     15  C   UNL     1       3.426   5.804  19.564  0.00  0.00    +0.000 C 
BRANCH  15  16
ATOM     16  C   UNL     1       2.507   4.611  19.292  0.00  0.00    +0.000 A 
ATOM     17  C   UNL     1       2.530   3.959  18.043  0.00  0.00    +0.000 A 
ATOM     18  C   UNL     1       1.680   2.879  17.788  0.00  0.00    +0.000 A 
ATOM     19  C   UNL     1       0.823   2.431  18.785  0.00  0.00    +0.000 A 
ATOM     20  F   UNL     1       0.010   1.396  18.540  0.00  0.00    +0.000 F 
ATOM     21  C   UNL     1       0.795   3.043  20.030  0.00  0.00    +0.000 A 
ATOM     22  C   UNL     1       1.634   4.128  20.282  0.00  0.00    +0.000 A 
ENDBRANCH  15  16
BRANCH  15  23
ATOM     23  C   UNL     1       2.752   7.132  19.226  0.00  0.00    +0.000 A 
ATOM     24  C   UNL     1       2.898   7.713  17.958  0.00  0.00    +0.000 A 
ATOM     25  C   UNL     1       2.219   8.884  17.627  0.00  0.00    +0.000 A 
ATOM     26  C   UNL     1       1.370   9.488  18.554  0.00  0.00    +0.000 A 
ATOM     27  C   UNL     1       1.225   8.938  19.824  0.00  0.00    +0.000 A 
ATOM     28  C   UNL     1       1.922   7.776  20.163  0.00  0.00    +0.000 A 
ENDBRANCH  15  23
ENDBRANCH   3  15
TORSDOF 4
ENDMDL
MODEL 5
REMARK VINA RESULT:      -8.9      2.397      4.404
REMARK  Name = 
REMARK  4 active torsions:
REMARK  status: ('A' for Active; 'I' for Inactive)
REMARK    1  A    between atoms: C_2  and  C_18
REMARK    2  A    between atoms: N_3  and  C_4
REMARK    3  A    between atoms: C_4  and  C_5
REMARK    4  A    between atoms: C_4  and  C_11
REMARK                            x       y       z     vdW  Elec       q    Type
REMARK                         _______ _______ _______ _____ _____    ______ ____
ROOT
ATOM      1  O   UNL     1       2.806   5.540  17.557  0.00  0.00    +0.000 OA
ATOM      2  C   UNL     1       3.307   4.413  17.475  0.00  0.00    +0.000 C 
ATOM      3  N   UNL     1       4.481   4.196  16.799  0.00  0.00    +0.000 N 
ATOM      4  H   UNL     1       4.827   3.241  16.743  0.00  0.00    +0.000 HD
ENDROOT
BRANCH   2   5
ATOM      5  C   UNL     1       2.609   3.183  18.071  0.00  0.00    +0.000 C 
ATOM      6  C   UNL     1       1.149   3.542  18.480  0.00  0.00    +0.000 C 
ATOM      7  C   UNL     1       1.091   4.315  19.823  0.00  0.00    +0.000 C 
ATOM      8  C   UNL     1       1.645   3.482  21.000  0.00  0.00    +0.000 C 
ATOM      9  C   UNL     1       2.882   2.793  20.562  0.00  0.00    +0.000 A 
ATOM     10  N   UNL     1       3.809   2.163  21.342  0.00  0.00    +0.000 N 
ATOM     11  C   UNL     1       4.778   1.685  20.495  0.00  0.00    +0.000 A 
ATOM     12  N   UNL     1       4.520   1.979  19.232  0.00  0.00    +0.000 NA
ATOM     13  C   UNL     1       3.323   2.641  19.269  0.00  0.00    +0.000 A 
ATOM     14  H   UNL     1       3.795   2.058  22.345  0.00  0.00    +0.000 HD
ENDBRANCH   2   5
BRANCH   3  15
ATOM     15  C   UNL     1       5.242   5.257  16.161  0.00  0.00    +0.000 C 
BRANCH  15  16
ATOM     16  C   UNL     1       5.818   4.783  14.825  0.00  0.00    +0.000 A 
ATOM     17  C   UNL     1       7.077   5.240  14.384  0.00  0.00    +0.000 A 
ATOM     18  C   UNL     1       7.596   4.820  13.157  0.00  0.00    +0.000 A 
ATOM     19  C   UNL     1       6.876   3.925  12.377  0.00  0.00    +0.000 A 
ATOM     20  F   UNL     1       7.375   3.523  11.201  0.00  0.00    +0.000 F 
ATOM     21  C   UNL     1       5.643   3.446  12.797  0.00  0.00    +0.000 A 
ATOM     22  C   UNL     1       5.117   3.872  14.016  0.00  0.00    +0.000 A 
ENDBRANCH  15  16
BRANCH  15  23
ATOM     23  C   UNL     1       6.325   5.800  17.090  0.00  0.00    +0.000 A 
ATOM     24  C   UNL     1       6.745   7.136  17.006  0.00  0.00    +0.000 A 
ATOM     25  C   UNL     1       7.676   7.649  17.906  0.00  0.00    +0.000 A 
ATOM     26  C   UNL     1       8.195   6.839  18.916  0.00  0.00    +0.000 A 
ATOM     27  C   UNL     1       7.806   5.506  19.006  0.00  0.00    +0.000 A 
ATOM     28  C   UNL     1       6.889   4.986  18.090  0.00  0.00    +0.000 A 
ENDBRANCH  15  23
ENDBRANCH   3  15
TORSDOF 4
ENDMDL
MODEL 6
REMARK VINA RESULT:      -8.7      2.941      4.698
REMARK  Name = 
REMARK  4 active torsions:
REMARK  status: ('A' for Active; 'I' for Inactive)
REMARK    1  A    between atoms: C_2  and  C_18
REMARK    2  A    between atoms: N_3  and  C_4
REMARK    3  A    between atoms: C_4  and  C_5
REMARK    4  A    between atoms: C_4  and  C_11
REMARK                            x       y       z     vdW  Elec       q    Type
REMARK                         _______ _______ _______ _____ _____    ______ ____
ROOT
ATOM      1  O   UNL     1       1.231   4.437  17.044  0.00  0.00    +0.000 OA
ATOM      2  C   UNL     1       1.970   4.030  17.948  0.00  0.00    +0.000 C 
ATOM      3  N   UNL     1       3.072   4.741  18.350  0.00  0.00    +0.000 N 
ATOM      4  H   UNL     1       3.657   4.339  19.079  0.00  0.00    +0.000 HD
ENDROOT
BRANCH   2   5
ATOM      5  C   UNL     1       1.730   2.675  18.627  0.00  0.00    +0.000 C 
ATOM      6  C   UNL     1       0.461   2.744  19.528  0.00  0.00    +0.000 C 
ATOM      7  C   UNL     1       0.740   3.452  20.879  0.00  0.00    +0.000 C 
ATOM      8  C   UNL     1       1.793   2.702  21.725  0.00  0.00    +0.000 C 
ATOM      9  C   UNL     1       2.899   2.268  20.841  0.00  0.00    +0.000 A 
ATOM     10  N   UNL     1       4.128   1.797  21.208  0.00  0.00    +0.000 N 
ATOM     11  C   UNL     1       4.813   1.533  20.048  0.00  0.00    +0.000 A 
ATOM     12  N   UNL     1       4.093   1.812  18.974  0.00  0.00    +0.000 NA
ATOM     13  C   UNL     1       2.889   2.239  19.466  0.00  0.00    +0.000 A 
ATOM     14  H   UNL     1       4.476   1.662  22.145  0.00  0.00    +0.000 HD
ENDBRANCH   2   5
BRANCH   3  15
ATOM     15  C   UNL     1       3.442   6.027  17.782  0.00  0.00    +0.000 C 
BRANCH  15  16
ATOM     16  C   UNL     1       4.935   6.299  17.982  0.00  0.00    +0.000 A 
ATOM     17  C   UNL     1       5.678   5.561  18.925  0.00  0.00    +0.000 A 
ATOM     18  C   UNL     1       7.038   5.820  19.120  0.00  0.00    +0.000 A 
ATOM     19  C   UNL     1       7.666   6.797  18.358  0.00  0.00    +0.000 A 
ATOM     20  F   UNL     1       8.968   7.044  18.545  0.00  0.00    +0.000 F 
ATOM     21  C   UNL     1       6.961   7.524  17.410  0.00  0.00    +0.000 A 
ATOM     22  C   UNL     1       5.602   7.276  17.222  0.00  0.00    +0.000 A 
ENDBRANCH  15  16
BRANCH  15  23
ATOM     23  C   UNL     1       2.577   7.152  18.345  0.00  0.00    +0.000 A 
ATOM     24  C   UNL     1       2.239   7.190  19.706  0.00  0.00    +0.000 A 
ATOM     25  C   UNL     1       1.515   8.258  20.232  0.00  0.00    +0.000 A 
ATOM     26  C   UNL     1       1.129   9.316  19.409  0.00  0.00    +0.000 A 
ATOM     27  C   UNL     1       1.438   9.289  18.053  0.00  0.00    +0.000 A 
ATOM     28  C   UNL     1       2.145   8.208  17.521  0.00  0.00    +0.000 A 
ENDBRANCH  15  23
ENDBRANCH   3  15
TORSDOF 4
ENDMDL
MODEL 7
REMARK VINA RESULT:      -8.7      2.283      4.386
REMARK  Name = 
REMARK  4 active torsions:
REMARK  status: ('A' for Active; 'I' for Inactive)
REMARK    1  A    between atoms: C_2  and  C_18
REMARK    2  A    between atoms: N_3  and  C_4
REMARK    3  A    between atoms: C_4  and  C_5
REMARK    4  A    between atoms: C_4  and  C_11
REMARK                            x       y       z     vdW  Elec       q    Type
REMARK                         _______ _______ _______ _____ _____    ______ ____
ROOT
ATOM      1  O   UNL     1       3.078   7.295  17.906  0.00  0.00    +0.000 OA
ATOM      2  C   UNL     1       3.081   6.065  17.776  0.00  0.00    +0.000 C 
ATOM      3  N   UNL     1       4.054   5.421  17.054  0.00  0.00    +0.000 N 
ATOM      4  H   UNL     1       3.985   4.411  16.959  0.00  0.00    +0.000 HD
ENDROOT
BRANCH   2   5
ATOM      5  C   UNL     1       1.959   5.197  18.360  0.00  0.00    +0.000 C 
ATOM      6  C   UNL     1       1.725   5.560  19.857  0.00  0.00    +0.000 C 
ATOM      7  C   UNL     1       2.795   4.930  20.786  0.00  0.00    +0.000 C 
ATOM      8  C   UNL     1       2.772   3.386  20.740  0.00  0.00    +0.000 C 
ATOM      9  C   UNL     1       2.623   2.950  19.332  0.00  0.00    +0.000 A 
ATOM     10  N   UNL     1       2.800   1.695  18.822  0.00  0.00    +0.000 N 
ATOM     11  C   UNL     1       2.560   1.780  17.473  0.00  0.00    +0.000 A 
ATOM     12  N   UNL     1       2.248   3.010  17.102  0.00  0.00    +0.000 NA
ATOM     13  C   UNL     1       2.254   3.733  18.264  0.00  0.00    +0.000 A 
ATOM     14  H   UNL     1       3.053   0.859  19.327  0.00  0.00    +0.000 HD
ENDBRANCH   2   5
BRANCH   3  15
ATOM     15  C   UNL     1       5.165   6.112  16.420  0.00  0.00    +0.000 C 
BRANCH  15  16
ATOM     16  C   UNL     1       5.671   5.326  15.208  0.00  0.00    +0.000 A 
ATOM     17  C   UNL     1       6.976   5.528  14.717  0.00  0.00    +0.000 A 
ATOM     18  C   UNL     1       7.434   4.823  13.600  0.00  0.00    +0.000 A 
ATOM     19  C   UNL     1       6.601   3.897  12.986  0.00  0.00    +0.000 A 
ATOM     20  F   UNL     1       7.039   3.222  11.916  0.00  0.00    +0.000 F 
ATOM     21  C   UNL     1       5.318   3.666  13.461  0.00  0.00    +0.000 A 
ATOM     22  C   UNL     1       4.855   4.376  14.568  0.00  0.00    +0.000 A 
ENDBRANCH  15  16
BRANCH  15  23
ATOM     23  C   UNL     1       6.282   6.401  17.420  0.00  0.00    +0.000 A 
ATOM     24  C   UNL     1       6.631   5.462  18.403  0.00  0.00    +0.000 A 
ATOM     25  C   UNL     1       7.702   5.695  19.263  0.00  0.00    +0.000 A 
ATOM     26  C   UNL     1       8.453   6.864  19.148  0.00  0.00    +0.000 A 
ATOM     27  C   UNL     1       8.112   7.817  18.192  0.00  0.00    +0.000 A 
ATOM     28  C   UNL     1       7.026   7.593  17.343  0.00  0.00    +0.000 A 
ENDBRANCH  15  23
ENDBRANCH   3  15
TORSDOF 4
ENDMDL
MODEL 8
REMARK VINA RESULT:      -8.6      2.279      4.353
REMARK  Name = 
REMARK  4 active torsions:
REMARK  status: ('A' for Active; 'I' for Inactive)
REMARK    1  A    between atoms: C_2  and  C_18
REMARK    2  A    between atoms: N_3  and  C_4
REMARK    3  A    between atoms: C_4  and  C_5
REMARK    4  A    between atoms: C_4  and  C_11
REMARK                            x       y       z     vdW  Elec       q    Type
REMARK                         _______ _______ _______ _____ _____    ______ ____
ROOT
ATOM      1  O   UNL     1       3.348   7.241  18.010  0.00  0.00    +0.000 OA
ATOM      2  C   UNL     1       3.263   6.026  17.798  0.00  0.00    +0.000 C 
ATOM      3  N   UNL     1       4.169   5.369  17.004  0.00  0.00    +0.000 N 
ATOM      4  H   UNL     1       4.028   4.375  16.844  0.00  0.00    +0.000 HD
ENDROOT
BRANCH   2   5
ATOM      5  C   UNL     1       2.101   5.196  18.359  0.00  0.00    +0.000 C 
ATOM      6  C   UNL     1       1.860   5.555  19.856  0.00  0.00    +0.000 C 
ATOM      7  C   UNL     1       2.891   4.877  20.794  0.00  0.00    +0.000 C 
ATOM      8  C   UNL     1       2.811   3.336  20.733  0.00  0.00    +0.000 C 
ATOM      9  C   UNL     1       2.665   2.917  19.320  0.00  0.00    +0.000 A 
ATOM     10  N   UNL     1       2.801   1.661  18.801  0.00  0.00    +0.000 N 
ATOM     11  C   UNL     1       2.584   1.766  17.450  0.00  0.00    +0.000 A 
ATOM     12  N   UNL     1       2.324   3.010  17.086  0.00  0.00    +0.000 NA
ATOM     13  C   UNL     1       2.341   3.723  18.254  0.00  0.00    +0.000 A 
ATOM     14  H   UNL     1       3.016   0.812  19.302  0.00  0.00    +0.000 HD
ENDBRANCH   2   5
BRANCH   3  15
ATOM     15  C   UNL     1       5.307   6.027  16.382  0.00  0.00    +0.000 C 
BRANCH  15  16
ATOM     16  C   UNL     1       5.763   5.259  15.139  0.00  0.00    +0.000 A 
ATOM     17  C   UNL     1       4.900   4.344  14.504  0.00  0.00    +0.000 A 
ATOM     18  C   UNL     1       5.322   3.631  13.379  0.00  0.00    +0.000 A 
ATOM     19  C   UNL     1       6.596   3.846  12.869  0.00  0.00    +0.000 A 
ATOM     20  F   UNL     1       6.999   3.163  11.790  0.00  0.00    +0.000 F 
ATOM     21  C   UNL     1       7.458   4.756  13.464  0.00  0.00    +0.000 A 
ATOM     22  C   UNL     1       7.044   5.460  14.594  0.00  0.00    +0.000 A 
ENDBRANCH  15  16
BRANCH  15  23
ATOM     23  C   UNL     1       6.445   6.228  17.379  0.00  0.00    +0.000 A 
ATOM     24  C   UNL     1       7.217   7.399  17.366  0.00  0.00    +0.000 A 
ATOM     25  C   UNL     1       8.204   7.614  18.326  0.00  0.00    +0.000 A 
ATOM     26  C   UNL     1       8.426   6.669  19.326  0.00  0.00    +0.000 A 
ATOM     27  C   UNL     1       7.684   5.492  19.347  0.00  0.00    +0.000 A 
ATOM     28  C   UNL     1       6.710   5.266  18.372  0.00  0.00    +0.000 A 
ENDBRANCH  15  23
ENDBRANCH   3  15
TORSDOF 4
ENDMDL
MODEL 9
REMARK VINA RESULT:      -8.6      4.148      6.629
REMARK  Name = 
REMARK  4 active torsions:
REMARK  status: ('A' for Active; 'I' for Inactive)
REMARK    1  A    between atoms: C_2  and  C_18
REMARK    2  A    between atoms: N_3  and  C_4
REMARK    3  A    between atoms: C_4  and  C_5
REMARK    4  A    between atoms: C_4  and  C_11
REMARK                            x       y       z     vdW  Elec       q    Type
REMARK                         _______ _______ _______ _____ _____    ______ ____
ROOT
ATOM      1  O   UNL     1       1.732   8.293  21.146  0.00  0.00    +0.000 OA
ATOM      2  C   UNL     1       1.493   8.278  19.933  0.00  0.00    +0.000 C 
ATOM      3  N   UNL     1       2.083   7.364  19.096  0.00  0.00    +0.000 N 
ATOM      4  H   UNL     1       1.868   7.421  18.104  0.00  0.00    +0.000 HD
ENDROOT
BRANCH   2   5
ATOM      5  C   UNL     1       0.573   9.321  19.287  0.00  0.00    +0.000 C 
ATOM      6  C   UNL     1       1.142   9.753  17.902  0.00  0.00    +0.000 C 
ATOM      7  C   UNL     1       2.310  10.762  18.038  0.00  0.00    +0.000 C 
ATOM      8  C   UNL     1       1.870  12.077  18.718  0.00  0.00    +0.000 C 
ATOM      9  C   UNL     1       0.995  11.754  19.869  0.00  0.00    +0.000 A 
ATOM     10  N   UNL     1       0.591  12.587  20.873  0.00  0.00    +0.000 N 
ATOM     11  C   UNL     1      -0.200  11.841  21.711  0.00  0.00    +0.000 A 
ATOM     12  N   UNL     1      -0.314  10.590  21.300  0.00  0.00    +0.000 NA
ATOM     13  C   UNL     1       0.402  10.542  20.134  0.00  0.00    +0.000 A 
ATOM     14  H   UNL     1       0.818  13.563  20.986  0.00  0.00    +0.000 HD
ENDBRANCH   2   5
BRANCH   3  15
ATOM     15  C   UNL     1       2.996   6.333  19.559  0.00  0.00    +0.000 C 
BRANCH  15  16
ATOM     16  C   UNL     1       4.159   6.159  18.580  0.00  0.00    +0.000 A 
ATOM     17  C   UNL     1       4.151   6.817  17.334  0.00  0.00    +0.000 A 
ATOM     18  C   UNL     1       5.205   6.646  16.432  0.00  0.00    +0.000 A 
ATOM     19  C   UNL     1       6.280   5.839  16.779  0.00  0.00    +0.000 A 
ATOM     20  F   UNL     1       7.290   5.676  15.914  0.00  0.00    +0.000 F 
ATOM     21  C   UNL     1       6.322   5.195  18.007  0.00  0.00    +0.000 A 
ATOM     22  C   UNL     1       5.266   5.355  18.904  0.00  0.00    +0.000 A 
ENDBRANCH  15  16
BRANCH  15  23
ATOM     23  C   UNL     1       2.264   5.018  19.816  0.00  0.00    +0.000 A 
ATOM     24  C   UNL     1       1.689   4.295  18.760  0.00  0.00    +0.000 A 
ATOM     25  C   UNL     1       1.090   3.057  18.986  0.00  0.00    +0.000 A 
ATOM     26  C   UNL     1       1.069   2.512  20.269  0.00  0.00    +0.000 A 
ATOM     27  C   UNL     1       1.618   3.221  21.334  0.00  0.00    +0.000 A 
ATOM     28  C   UNL     1       2.199   4.471  21.111  0.00  0.00    +0.000 A 
ENDBRANCH  15  23
ENDBRANCH   3  15
TORSDOF 4
ENDMDL
