MODEL 1
REMARK VINA RESULT:      -9.1      0.000      0.000
REMARK  Name = 
REMARK  5 active torsions:
REMARK  status: ('A' for Active; 'I' for Inactive)
REMARK    1  A    between atoms: C_2  and  C_3
REMARK    2  A    between atoms: N_5  and  C_6
REMARK    3  A    between atoms: C_6  and  C_7
REMARK    4  A    between atoms: N_24  and  C_25
REMARK    5  A    between atoms: C_25  and  C_26
REMARK                            x       y       z     vdW  Elec       q    Type
REMARK                         _______ _______ _______ _____ _____    ______ ____
ROOT
ATOM      1  O   UNL     1       2.124   6.837  21.292  0.00  0.00    +0.000 OA
ATOM      2  C   UNL     1       2.013   7.111  20.100  0.00  0.00    +0.000 C 
ATOM      3  N   UNL     1       1.364   8.270  19.645  0.00  0.00    +0.000 N 
ATOM      4  C   UNL     1       0.932   9.224  20.669  0.00  0.00    +0.000 C 
ATOM      5  C   UNL     1      -0.139  10.206  20.148  0.00  0.00    +0.000 C 
ATOM      6  N   UNL     1       0.212  10.888  18.879  0.00  0.00    +0.000 NA
ATOM      7  C   UNL     1       0.523   9.859  17.874  0.00  0.00    +0.000 C 
ATOM      8  C   UNL     1       1.579   8.827  18.303  0.00  0.00    +0.000 C 
ENDROOT
BRANCH   2   9
ATOM      9  C   UNL     1       2.610   6.132  19.078  0.00  0.00    +0.000 A 
ATOM     10  N   UNL     1       3.604   6.564  18.360  0.00  0.00    +0.000 NA
ATOM     11  N   UNL     1       4.155   5.756  17.398  0.00  0.00    +0.000 N 
ATOM     12  C   UNL     1       3.787   4.431  17.193  0.00  0.00    +0.000 A 
ATOM     13  O   UNL     1       4.296   3.696  16.351  0.00  0.00    +0.000 OA
ATOM     14  C   UNL     1       2.721   3.905  18.065  0.00  0.00    +0.000 A 
ATOM     15  C   UNL     1       2.357   2.550  17.978  0.00  0.00    +0.000 A 
ATOM     16  C   UNL     1       1.349   2.048  18.804  0.00  0.00    +0.000 A 
ATOM     17  C   UNL     1       0.694   2.889  19.691  0.00  0.00    +0.000 A 
ATOM     18  C   UNL     1       1.050   4.243  19.771  0.00  0.00    +0.000 A 
ATOM     19  C   UNL     1       2.087   4.746  18.978  0.00  0.00    +0.000 A 
BRANCH  11  20
ATOM     20  C   UNL     1       5.168   6.368  16.536  0.00  0.00    +0.000 C 
BRANCH  20  21
ATOM     21  C   UNL     1       6.373   6.870  17.308  0.00  0.00    +0.000 A 
ATOM     22  C   UNL     1       7.041   6.041  18.222  0.00  0.00    +0.000 A 
ATOM     23  C   UNL     1       8.148   6.512  18.933  0.00  0.00    +0.000 A 
ATOM     24  C   UNL     1       8.603   7.813  18.735  0.00  0.00    +0.000 A 
ATOM     25  C   UNL     1       7.950   8.648  17.829  0.00  0.00    +0.000 A 
ATOM     26  C   UNL     1       6.837   8.182  17.125  0.00  0.00    +0.000 A 
ENDBRANCH  20  21
ENDBRANCH  11  20
ENDBRANCH   2   9
BRANCH   6  27
ATOM     27  C   UNL     1       1.347  11.783  19.105  0.00  0.00    +0.000 C 
BRANCH  27  28
ATOM     28  C   UNL     1       1.236  13.176  18.513  0.00  0.00    +0.000 A 
ATOM     29  C   UNL     1       2.444  13.831  18.171  0.00  0.00    +0.000 A 
ATOM     30  C   UNL     1       2.564  15.198  18.367  0.00  0.00    +0.000 A 
ATOM     31  C   UNL     1       1.443  15.829  18.855  0.00  0.00    +0.000 A 
ATOM     32  C   UNL     1       0.171  15.268  18.826  0.00  0.00    +0.000 A 
ATOM     33  C   UNL     1       0.046  13.905  18.682  0.00  0.00    +0.000 A 
ATOM     34  C   UNL     1      -0.745  16.236  19.487  0.00  0.00    +0.000 C 
ATOM     35  C   UNL     1       0.278  16.605  20.553  0.00  0.00    +0.000 C 
ATOM     36  O   UNL     1       1.505  16.856  19.796  0.00  0.00    +0.000 OA
ENDBRANCH  27  28
ENDBRANCH   6  27
TORSDOF 5
ENDMDL
MODEL 2
REMARK VINA RESULT:      -8.9      0.688      1.501
REMARK  Name = 
REMARK  5 active torsions:
REMARK  status: ('A' for Active; 'I' for Inactive)
REMARK    1  A    between atoms: C_2  and  C_3
REMARK    2  A    between atoms: N_5  and  C_6
REMARK    3  A    between atoms: C_6  and  C_7
REMARK    4  A    between atoms: N_24  and  C_25
REMARK    5  A    between atoms: C_25  and  C_26
REMARK                            x       y       z     vdW  Elec       q    Type
REMARK                         _______ _______ _______ _____ _____    ______ ____
ROOT
ATOM      1  O   UNL     1       2.158   6.717  21.215  0.00  0.00    +0.000 OA
ATOM      2  C   UNL     1       2.066   7.025  20.029  0.00  0.00    +0.000 C 
ATOM      3  N   UNL     1       1.432   8.200  19.597  0.00  0.00    +0.000 N 
ATOM      4  C   UNL     1       0.991   9.130  20.642  0.00  0.00    +0.000 C 
ATOM      5  C   UNL     1      -0.064  10.133  20.132  0.00  0.00    +0.000 C 
ATOM      6  N   UNL     1       0.310  10.848  18.888  0.00  0.00    +0.000 NA
ATOM      7  C   UNL     1       0.628   9.845  17.859  0.00  0.00    +0.000 C 
ATOM      8  C   UNL     1       1.671   8.793  18.275  0.00  0.00    +0.000 C 
ENDROOT
BRANCH   2   9
ATOM      9  C   UNL     1       2.670   6.070  18.989  0.00  0.00    +0.000 A 
ATOM     10  N   UNL     1       3.673   6.518  18.292  0.00  0.00    +0.000 NA
ATOM     11  N   UNL     1       4.232   5.732  17.315  0.00  0.00    +0.000 N 
ATOM     12  C   UNL     1       3.863   4.414  17.074  0.00  0.00    +0.000 A 
ATOM     13  O   UNL     1       4.378   3.698  16.218  0.00  0.00    +0.000 OA
ATOM     14  C   UNL     1       2.786   3.869  17.921  0.00  0.00    +0.000 A 
ATOM     15  C   UNL     1       2.419   2.518  17.797  0.00  0.00    +0.000 A 
ATOM     16  C   UNL     1       1.402   1.998  18.599  0.00  0.00    +0.000 A 
ATOM     17  C   UNL     1       0.740   2.818  19.501  0.00  0.00    +0.000 A 
ATOM     18  C   UNL     1       1.099   4.168  19.618  0.00  0.00    +0.000 A 
ATOM     19  C   UNL     1       2.145   4.689  18.848  0.00  0.00    +0.000 A 
BRANCH  11  20
ATOM     20  C   UNL     1       5.254   6.363  16.480  0.00  0.00    +0.000 C 
BRANCH  20  21
ATOM     21  C   UNL     1       6.435   6.878  17.281  0.00  0.00    +0.000 A 
ATOM     22  C   UNL     1       6.918   8.183  17.096  0.00  0.00    +0.000 A 
ATOM     23  C   UNL     1       8.009   8.649  17.835  0.00  0.00    +0.000 A 
ATOM     24  C   UNL     1       8.625   7.820  18.769  0.00  0.00    +0.000 A 
ATOM     25  C   UNL     1       8.155   6.523  18.965  0.00  0.00    +0.000 A 
ATOM     26  C   UNL     1       7.071   6.052  18.220  0.00  0.00    +0.000 A 
ENDBRANCH  20  21
ENDBRANCH  11  20
ENDBRANCH   2   9
BRANCH   6  27
ATOM     27  C   UNL     1       1.448  11.727  19.155  0.00  0.00    +0.000 C 
BRANCH  27  28
ATOM     28  C   UNL     1       1.118  13.146  19.582  0.00  0.00    +0.000 A 
ATOM     29  C   UNL     1      -0.073  13.715  19.068  0.00  0.00    +0.000 A 
ATOM     30  C   UNL     1      -0.103  15.060  18.732  0.00  0.00    +0.000 A 
ATOM     31  C   UNL     1       1.055  15.760  18.976  0.00  0.00    +0.000 A 
ATOM     32  C   UNL     1       2.066  15.303  19.815  0.00  0.00    +0.000 A 
ATOM     33  C   UNL     1       2.133  13.961  20.112  0.00  0.00    +0.000 A 
ATOM     34  C   UNL     1       3.156  16.316  19.771  0.00  0.00    +0.000 C 
ATOM     35  C   UNL     1       2.983  16.561  18.279  0.00  0.00    +0.000 C 
ATOM     36  O   UNL     1       1.540  16.742  18.113  0.00  0.00    +0.000 OA
ENDBRANCH  27  28
ENDBRANCH   6  27
TORSDOF 5
ENDMDL
MODEL 3
REMARK VINA RESULT:      -8.5      1.351      1.449
REMARK  Name = 
REMARK  5 active torsions:
REMARK  status: ('A' for Active; 'I' for Inactive)
REMARK    1  A    between atoms: C_2  and  C_3
REMARK    2  A    between atoms: N_5  and  C_6
REMARK    3  A    between atoms: C_6  and  C_7
REMARK    4  A    between atoms: N_24  and  C_25
REMARK    5  A    between atoms: C_25  and  C_26
REMARK                            x       y       z     vdW  Elec       q    Type
REMARK                         _______ _______ _______ _____ _____    ______ ____
ROOT
ATOM      1  O   UNL     1       2.081   6.876  21.315  0.00  0.00    +0.000 OA
ATOM      2  C   UNL     1       1.998   7.159  20.122  0.00  0.00    +0.000 C 
ATOM      3  N   UNL     1       1.389   8.337  19.662  0.00  0.00    +0.000 N 
ATOM      4  C   UNL     1       0.964   9.298  20.684  0.00  0.00    +0.000 C 
ATOM      5  C   UNL     1      -0.070  10.310  20.149  0.00  0.00    +0.000 C 
ATOM      6  N   UNL     1       0.321  10.989  18.890  0.00  0.00    +0.000 NA
ATOM      7  C   UNL     1       0.621   9.956  17.885  0.00  0.00    +0.000 C 
ATOM      8  C   UNL     1       1.642   8.894  18.327  0.00  0.00    +0.000 C 
ENDROOT
BRANCH   2   9
ATOM      9  C   UNL     1       2.586   6.168  19.106  0.00  0.00    +0.000 A 
ATOM     10  N   UNL     1       3.575   6.592  18.376  0.00  0.00    +0.000 NA
ATOM     11  N   UNL     1       4.118   5.773  17.418  0.00  0.00    +0.000 N 
ATOM     12  C   UNL     1       3.747   4.447  17.229  0.00  0.00    +0.000 A 
ATOM     13  O   UNL     1       4.248   3.703  16.390  0.00  0.00    +0.000 OA
ATOM     14  C   UNL     1       2.686   3.932  18.114  0.00  0.00    +0.000 A 
ATOM     15  C   UNL     1       2.319   2.577  18.043  0.00  0.00    +0.000 A 
ATOM     16  C   UNL     1       1.317   2.084  18.881  0.00  0.00    +0.000 A 
ATOM     17  C   UNL     1       0.669   2.935  19.765  0.00  0.00    +0.000 A 
ATOM     18  C   UNL     1       1.028   4.289  19.829  0.00  0.00    +0.000 A 
ATOM     19  C   UNL     1       2.059   4.783  19.023  0.00  0.00    +0.000 A 
BRANCH  11  20
ATOM     20  C   UNL     1       5.125   6.376  16.544  0.00  0.00    +0.000 C 
BRANCH  20  21
ATOM     21  C   UNL     1       6.341   6.875  17.301  0.00  0.00    +0.000 A 
ATOM     22  C   UNL     1       7.024   6.040  18.199  0.00  0.00    +0.000 A 
ATOM     23  C   UNL     1       8.141   6.509  18.896  0.00  0.00    +0.000 A 
ATOM     24  C   UNL     1       8.591   7.812  18.700  0.00  0.00    +0.000 A 
ATOM     25  C   UNL     1       7.923   8.652  17.810  0.00  0.00    +0.000 A 
ATOM     26  C   UNL     1       6.800   8.188  17.120  0.00  0.00    +0.000 A 
ENDBRANCH  20  21
ENDBRANCH  11  20
ENDBRANCH   2   9
BRANCH   6  27
ATOM     27  C   UNL     1       1.475  11.851  19.140  0.00  0.00    +0.000 C 
BRANCH  27  28
ATOM     28  C   UNL     1       1.178  13.227  19.707  0.00  0.00    +0.000 A 
ATOM     29  C   UNL     1       2.186  13.831  20.499  0.00  0.00    +0.000 A 
ATOM     30  C   UNL     1       1.829  14.589  21.604  0.00  0.00    +0.000 A 
ATOM     31  C   UNL     1       0.477  14.728  21.818  0.00  0.00    +0.000 A 
ATOM     32  C   UNL     1      -0.485  14.467  20.848  0.00  0.00    +0.000 A 
ATOM     33  C   UNL     1      -0.153  13.674  19.774  0.00  0.00    +0.000 A 
ATOM     34  C   UNL     1      -1.812  14.688  21.485  0.00  0.00    +0.000 C 
ATOM     35  C   UNL     1      -1.376  14.070  22.806  0.00  0.00    +0.000 C 
ATOM     36  O   UNL     1      -0.091  14.710  23.091  0.00  0.00    +0.000 OA
ENDBRANCH  27  28
ENDBRANCH   6  27
TORSDOF 5
ENDMDL
MODEL 4
REMARK VINA RESULT:      -8.2      3.529      9.460
REMARK  Name = 
REMARK  5 active torsions:
REMARK  status: ('A' for Active; 'I' for Inactive)
REMARK    1  A    between atoms: C_2  and  C_3
REMARK    2  A    between atoms: N_5  and  C_6
REMARK    3  A    between atoms: C_6  and  C_7
REMARK    4  A    between atoms: N_24  and  C_25
REMARK    5  A    between atoms: C_25  and  C_26
REMARK                            x       y       z     vdW  Elec       q    Type
REMARK                         _______ _______ _______ _____ _____    ______ ____
ROOT
ATOM      1  O   UNL     1       6.138   4.789  20.076  0.00  0.00    +0.000 OA
ATOM      2  C   UNL     1       5.321   5.109  19.217  0.00  0.00    +0.000 C 
ATOM      3  N   UNL     1       5.690   5.431  17.902  0.00  0.00    +0.000 N 
ATOM      4  C   UNL     1       7.100   5.240  17.551  0.00  0.00    +0.000 C 
ATOM      5  C   UNL     1       7.504   6.021  16.283  0.00  0.00    +0.000 C 
ATOM      6  N   UNL     1       6.616   5.807  15.114  0.00  0.00    +0.000 NA
ATOM      7  C   UNL     1       5.238   6.128  15.518  0.00  0.00    +0.000 C 
ATOM      8  C   UNL     1       4.743   5.401  16.780  0.00  0.00    +0.000 C 
ENDROOT
BRANCH   2   9
ATOM      9  C   UNL     1       3.838   5.160  19.617  0.00  0.00    +0.000 A 
ATOM     10  N   UNL     1       3.391   6.292  20.074  0.00  0.00    +0.000 NA
ATOM     11  N   UNL     1       2.087   6.393  20.490  0.00  0.00    +0.000 N 
ATOM     12  C   UNL     1       1.150   5.375  20.363  0.00  0.00    +0.000 A 
ATOM     13  O   UNL     1      -0.025   5.470  20.710  0.00  0.00    +0.000 OA
ATOM     14  C   UNL     1       1.628   4.116  19.763  0.00  0.00    +0.000 A 
ATOM     15  C   UNL     1       0.719   3.072  19.520  0.00  0.00    +0.000 A 
ATOM     16  C   UNL     1       1.167   1.880  18.948  0.00  0.00    +0.000 A 
ATOM     17  C   UNL     1       2.510   1.717  18.643  0.00  0.00    +0.000 A 
ATOM     18  C   UNL     1       3.419   2.755  18.894  0.00  0.00    +0.000 A 
ATOM     19  C   UNL     1       2.973   3.969  19.427  0.00  0.00    +0.000 A 
BRANCH  11  20
ATOM     20  C   UNL     1       1.705   7.655  21.127  0.00  0.00    +0.000 C 
BRANCH  20  21
ATOM     21  C   UNL     1       1.063   8.632  20.161  0.00  0.00    +0.000 A 
ATOM     22  C   UNL     1       1.549   8.778  18.853  0.00  0.00    +0.000 A 
ATOM     23  C   UNL     1       0.954   9.684  17.970  0.00  0.00    +0.000 A 
ATOM     24  C   UNL     1      -0.134  10.449  18.382  0.00  0.00    +0.000 A 
ATOM     25  C   UNL     1      -0.628  10.313  19.678  0.00  0.00    +0.000 A 
ATOM     26  C   UNL     1      -0.029   9.415  20.565  0.00  0.00    +0.000 A 
ENDBRANCH  20  21
ENDBRANCH  11  20
ENDBRANCH   2   9
BRANCH   6  27
ATOM     27  C   UNL     1       6.737   4.422  14.658  0.00  0.00    +0.000 C 
BRANCH  27  28
ATOM     28  C   UNL     1       6.345   4.150  13.218  0.00  0.00    +0.000 A 
ATOM     29  C   UNL     1       4.960   4.065  12.930  0.00  0.00    +0.000 A 
ATOM     30  C   UNL     1       4.507   3.147  11.994  0.00  0.00    +0.000 A 
ATOM     31  C   UNL     1       5.482   2.401  11.374  0.00  0.00    +0.000 A 
ATOM     32  C   UNL     1       6.830   2.744  11.375  0.00  0.00    +0.000 A 
ATOM     33  C   UNL     1       7.297   3.615  12.332  0.00  0.00    +0.000 A 
ATOM     34  C   UNL     1       7.552   1.665  10.648  0.00  0.00    +0.000 C 
ATOM     35  C   UNL     1       6.690   0.565  11.251  0.00  0.00    +0.000 C 
ATOM     36  O   UNL     1       5.320   1.049  11.073  0.00  0.00    +0.000 OA
ENDBRANCH  27  28
ENDBRANCH   6  27
TORSDOF 5
ENDMDL
MODEL 5
REMARK VINA RESULT:      -8.2      0.907      1.303
REMARK  Name = 
REMARK  5 active torsions:
REMARK  status: ('A' for Active; 'I' for Inactive)
REMARK    1  A    between atoms: C_2  and  C_3
REMARK    2  A    between atoms: N_5  and  C_6
REMARK    3  A    between atoms: C_6  and  C_7
REMARK    4  A    between atoms: N_24  and  C_25
REMARK    5  A    between atoms: C_25  and  C_26
REMARK                            x       y       z     vdW  Elec       q    Type
REMARK                         _______ _______ _______ _____ _____    ______ ____
ROOT
ATOM      1  O   UNL     1       2.053   6.650  21.264  0.00  0.00    +0.000 OA
ATOM      2  C   UNL     1       2.017   7.014  20.092  0.00  0.00    +0.000 C 
ATOM      3  N   UNL     1       1.449   8.234  19.693  0.00  0.00    +0.000 N 
ATOM      4  C   UNL     1       1.012   9.135  20.763  0.00  0.00    +0.000 C 
ATOM      5  C   UNL     1       0.019  10.205  20.265  0.00  0.00    +0.000 C 
ATOM      6  N   UNL     1       0.467  10.957  19.068  0.00  0.00    +0.000 NA
ATOM      7  C   UNL     1       0.778   9.987  18.006  0.00  0.00    +0.000 C 
ATOM      8  C   UNL     1       1.760   8.874  18.407  0.00  0.00    +0.000 C 
ENDROOT
BRANCH   2   9
ATOM      9  C   UNL     1       2.616   6.080  19.030  0.00  0.00    +0.000 A 
ATOM     10  N   UNL     1       3.606   6.547  18.327  0.00  0.00    +0.000 NA
ATOM     11  N   UNL     1       4.159   5.781  17.332  0.00  0.00    +0.000 N 
ATOM     12  C   UNL     1       3.799   4.463  17.075  0.00  0.00    +0.000 A 
ATOM     13  O   UNL     1       4.309   3.765  16.203  0.00  0.00    +0.000 OA
ATOM     14  C   UNL     1       2.738   3.896  17.928  0.00  0.00    +0.000 A 
ATOM     15  C   UNL     1       2.381   2.544  17.788  0.00  0.00    +0.000 A 
ATOM     16  C   UNL     1       1.379   2.003  18.595  0.00  0.00    +0.000 A 
ATOM     17  C   UNL     1       0.721   2.803  19.518  0.00  0.00    +0.000 A 
ATOM     18  C   UNL     1       1.070   4.155  19.651  0.00  0.00    +0.000 A 
ATOM     19  C   UNL     1       2.101   4.696  18.875  0.00  0.00    +0.000 A 
BRANCH  11  20
ATOM     20  C   UNL     1       5.166   6.433  16.493  0.00  0.00    +0.000 C 
BRANCH  20  21
ATOM     21  C   UNL     1       6.371   6.908  17.281  0.00  0.00    +0.000 A 
ATOM     22  C   UNL     1       7.032   6.052  18.176  0.00  0.00    +0.000 A 
ATOM     23  C   UNL     1       8.140   6.498  18.902  0.00  0.00    +0.000 A 
ATOM     24  C   UNL     1       8.603   7.802  18.738  0.00  0.00    +0.000 A 
ATOM     25  C   UNL     1       7.958   8.663  17.851  0.00  0.00    +0.000 A 
ATOM     26  C   UNL     1       6.844   8.221  17.132  0.00  0.00    +0.000 A 
ENDBRANCH  20  21
ENDBRANCH  11  20
ENDBRANCH   2   9
BRANCH   6  27
ATOM     27  C   UNL     1       1.631  11.773  19.413  0.00  0.00    +0.000 C 
BRANCH  27  28
ATOM     28  C   UNL     1       1.346  13.107  20.078  0.00  0.00    +0.000 A 
ATOM     29  C   UNL     1       0.250  13.162  20.974  0.00  0.00    +0.000 A 
ATOM     30  C   UNL     1      -0.541  14.300  21.022  0.00  0.00    +0.000 A 
ATOM     31  C   UNL     1      -0.154  15.329  20.197  0.00  0.00    +0.000 A 
ATOM     32  C   UNL     1       1.109  15.418  19.621  0.00  0.00    +0.000 A 
ATOM     33  C   UNL     1       1.880  14.283  19.523  0.00  0.00    +0.000 A 
ATOM     34  C   UNL     1       1.110  16.638  18.768  0.00  0.00    +0.000 C 
ATOM     35  C   UNL     1      -0.314  16.403  18.282  0.00  0.00    +0.000 C 
ATOM     36  O   UNL     1      -1.066  16.127  19.507  0.00  0.00    +0.000 OA
ENDBRANCH  27  28
ENDBRANCH   6  27
TORSDOF 5
ENDMDL
MODEL 6
REMARK VINA RESULT:      -8.2      2.883     10.319
REMARK  Name = 
REMARK  5 active torsions:
REMARK  status: ('A' for Active; 'I' for Inactive)
REMARK    1  A    between atoms: C_2  and  C_3
REMARK    2  A    between atoms: N_5  and  C_6
REMARK    3  A    between atoms: C_6  and  C_7
REMARK    4  A    between atoms: N_24  and  C_25
REMARK    5  A    between atoms: C_25  and  C_26
REMARK                            x       y       z     vdW  Elec       q    Type
REMARK                         _______ _______ _______ _____ _____    ______ ____
ROOT
ATOM      1  O   UNL     1      -1.971  12.045  19.746  0.00  0.00    +0.000 OA
ATOM      2  C   UNL     1      -0.942  12.027  20.417  0.00  0.00    +0.000 C 
ATOM      3  N   UNL     1      -0.306  10.835  20.797  0.00  0.00    +0.000 N 
ATOM      4  C   UNL     1      -0.852   9.593  20.242  0.00  0.00    +0.000 C 
ATOM      5  C   UNL     1      -0.412   8.347  21.037  0.00  0.00    +0.000 C 
ATOM      6  N   UNL     1       1.049   8.244  21.270  0.00  0.00    +0.000 NA
ATOM      7  C   UNL     1       1.497   9.480  21.931  0.00  0.00    +0.000 C 
ATOM      8  C   UNL     1       1.101  10.782  21.215  0.00  0.00    +0.000 C 
ENDROOT
BRANCH   2   9
ATOM      9  C   UNL     1      -0.344  13.372  20.855  0.00  0.00    +0.000 A 
ATOM     10  N   UNL     1       0.412  13.987  19.994  0.00  0.00    +0.000 NA
ATOM     11  N   UNL     1       1.014  15.172  20.337  0.00  0.00    +0.000 N 
ATOM     12  C   UNL     1       0.790  15.839  21.536  0.00  0.00    +0.000 A 
ATOM     13  O   UNL     1       1.305  16.912  21.836  0.00  0.00    +0.000 OA
ATOM     14  C   UNL     1      -0.138  15.191  22.481  0.00  0.00    +0.000 A 
ATOM     15  C   UNL     1      -0.484  15.847  23.675  0.00  0.00    +0.000 A 
ATOM     16  C   UNL     1      -1.364  15.239  24.572  0.00  0.00    +0.000 A 
ATOM     17  C   UNL     1      -1.878  13.980  24.296  0.00  0.00    +0.000 A 
ATOM     18  C   UNL     1      -1.526  13.321  23.109  0.00  0.00    +0.000 A 
ATOM     19  C   UNL     1      -0.677  13.940  22.185  0.00  0.00    +0.000 A 
BRANCH  11  20
ATOM     20  C   UNL     1       1.964  15.722  19.369  0.00  0.00    +0.000 C 
BRANCH  20  21
ATOM     21  C   UNL     1       1.317  16.679  18.386  0.00  0.00    +0.000 A 
ATOM     22  C   UNL     1       2.084  17.347  17.419  0.00  0.00    +0.000 A 
ATOM     23  C   UNL     1       1.481  18.231  16.519  0.00  0.00    +0.000 A 
ATOM     24  C   UNL     1       0.107  18.453  16.572  0.00  0.00    +0.000 A 
ATOM     25  C   UNL     1      -0.667  17.794  17.527  0.00  0.00    +0.000 A 
ATOM     26  C   UNL     1      -0.065  16.918  18.433  0.00  0.00    +0.000 A 
ENDBRANCH  20  21
ENDBRANCH  11  20
ENDBRANCH   2   9
BRANCH   6  27
ATOM     27  C   UNL     1       1.732   8.036  19.993  0.00  0.00    +0.000 C 
BRANCH  27  28
ATOM     28  C   UNL     1       2.372   6.676  19.785  0.00  0.00    +0.000 A 
ATOM     29  C   UNL     1       3.005   6.443  18.539  0.00  0.00    +0.000 A 
ATOM     30  C   UNL     1       2.925   5.190  17.951  0.00  0.00    +0.000 A 
ATOM     31  C   UNL     1       2.249   4.235  18.675  0.00  0.00    +0.000 A 
ATOM     32  C   UNL     1       1.971   4.355  20.033  0.00  0.00    +0.000 A 
ATOM     33  C   UNL     1       1.999   5.602  20.613  0.00  0.00    +0.000 A 
ATOM     34  C   UNL     1       1.191   3.149  20.423  0.00  0.00    +0.000 C 
ATOM     35  C   UNL     1       0.394   3.142  19.126  0.00  0.00    +0.000 C 
ATOM     36  O   UNL     1       1.409   3.294  18.083  0.00  0.00    +0.000 OA
ENDBRANCH  27  28
ENDBRANCH   6  27
TORSDOF 5
ENDMDL
MODEL 7
REMARK VINA RESULT:      -8.1      4.116     10.079
REMARK  Name = 
REMARK  5 active torsions:
REMARK  status: ('A' for Active; 'I' for Inactive)
REMARK    1  A    between atoms: C_2  and  C_3
REMARK    2  A    between atoms: N_5  and  C_6
REMARK    3  A    between atoms: C_6  and  C_7
REMARK    4  A    between atoms: N_24  and  C_25
REMARK    5  A    between atoms: C_25  and  C_26
REMARK                            x       y       z     vdW  Elec       q    Type
REMARK                         _______ _______ _______ _____ _____    ______ ____
ROOT
ATOM      1  O   UNL     1      -0.657  13.590  21.351  0.00  0.00    +0.000 OA
ATOM      2  C   UNL     1      -1.199  12.686  20.721  0.00  0.00    +0.000 C 
ATOM      3  N   UNL     1      -0.476  11.717  20.008  0.00  0.00    +0.000 N 
ATOM      4  C   UNL     1       0.983  11.749  20.154  0.00  0.00    +0.000 C 
ATOM      5  C   UNL     1       1.706  10.985  19.026  0.00  0.00    +0.000 C 
ATOM      6  N   UNL     1       1.210   9.606  18.795  0.00  0.00    +0.000 NA
ATOM      7  C   UNL     1      -0.239   9.674  18.545  0.00  0.00    +0.000 C 
ATOM      8  C   UNL     1      -1.050  10.424  19.615  0.00  0.00    +0.000 C 
ENDROOT
BRANCH   2   9
ATOM      9  C   UNL     1      -2.735  12.630  20.720  0.00  0.00    +0.000 A 
ATOM     10  N   UNL     1      -3.313  12.388  19.581  0.00  0.00    +0.000 NA
ATOM     11  N   UNL     1      -4.683  12.368  19.501  0.00  0.00    +0.000 N 
ATOM     12  C   UNL     1      -5.527  12.491  20.598  0.00  0.00    +0.000 A 
ATOM     13  O   UNL     1      -6.753  12.447  20.535  0.00  0.00    +0.000 OA
ATOM     14  C   UNL     1      -4.876  12.675  21.908  0.00  0.00    +0.000 A 
ATOM     15  C   UNL     1      -5.659  12.717  23.075  0.00  0.00    +0.000 A 
ATOM     16  C   UNL     1      -5.045  12.889  24.317  0.00  0.00    +0.000 A 
ATOM     17  C   UNL     1      -3.669  13.041  24.397  0.00  0.00    +0.000 A 
ATOM     18  C   UNL     1      -2.888  13.009  23.233  0.00  0.00    +0.000 A 
ATOM     19  C   UNL     1      -3.489  12.796  21.988  0.00  0.00    +0.000 A 
BRANCH  11  20
ATOM     20  C   UNL     1      -5.254  12.238  18.159  0.00  0.00    +0.000 C 
BRANCH  20  21
ATOM     21  C   UNL     1      -4.441  11.327  17.259  0.00  0.00    +0.000 A 
ATOM     22  C   UNL     1      -4.087  11.724  15.960  0.00  0.00    +0.000 A 
ATOM     23  C   UNL     1      -3.342  10.877  15.135  0.00  0.00    +0.000 A 
ATOM     24  C   UNL     1      -2.937   9.628  15.599  0.00  0.00    +0.000 A 
ATOM     25  C   UNL     1      -3.280   9.221  16.888  0.00  0.00    +0.000 A 
ATOM     26  C   UNL     1      -4.034  10.062  17.710  0.00  0.00    +0.000 A 
ENDBRANCH  20  21
ENDBRANCH  11  20
ENDBRANCH   2   9
BRANCH   6  27
ATOM     27  C   UNL     1       1.520   8.776  19.958  0.00  0.00    +0.000 C 
BRANCH  27  28
ATOM     28  C   UNL     1       2.256   7.478  19.684  0.00  0.00    +0.000 A 
ATOM     29  C   UNL     1       2.517   7.157  18.329  0.00  0.00    +0.000 A 
ATOM     30  C   UNL     1       2.445   5.837  17.910  0.00  0.00    +0.000 A 
ATOM     31  C   UNL     1       2.157   4.916  18.890  0.00  0.00    +0.000 A 
ATOM     32  C   UNL     1       2.279   5.179  20.250  0.00  0.00    +0.000 A 
ATOM     33  C   UNL     1       2.301   6.486  20.679  0.00  0.00    +0.000 A 
ATOM     34  C   UNL     1       1.830   3.956  20.969  0.00  0.00    +0.000 C 
ATOM     35  C   UNL     1       0.693   3.696  19.990  0.00  0.00    +0.000 C 
ATOM     36  O   UNL     1       1.321   3.821  18.675  0.00  0.00    +0.000 OA
ENDBRANCH  27  28
ENDBRANCH   6  27
TORSDOF 5
ENDMDL
MODEL 8
REMARK VINA RESULT:      -8.0      2.504      9.134
REMARK  Name = 
REMARK  5 active torsions:
REMARK  status: ('A' for Active; 'I' for Inactive)
REMARK    1  A    between atoms: C_2  and  C_3
REMARK    2  A    between atoms: N_5  and  C_6
REMARK    3  A    between atoms: C_6  and  C_7
REMARK    4  A    between atoms: N_24  and  C_25
REMARK    5  A    between atoms: C_25  and  C_26
REMARK                            x       y       z     vdW  Elec       q    Type
REMARK                         _______ _______ _______ _____ _____    ______ ____
ROOT
ATOM      1  O   UNL     1       0.160   8.654  21.404  0.00  0.00    +0.000 OA
ATOM      2  C   UNL     1       0.723   9.064  20.392  0.00  0.00    +0.000 C 
ATOM      3  N   UNL     1       1.667   8.303  19.687  0.00  0.00    +0.000 N 
ATOM      4  C   UNL     1       1.863   6.921  20.137  0.00  0.00    +0.000 C 
ATOM      5  C   UNL     1       3.192   6.319  19.633  0.00  0.00    +0.000 C 
ATOM      6  N   UNL     1       3.421   6.456  18.175  0.00  0.00    +0.000 NA
ATOM      7  C   UNL     1       3.319   7.883  17.825  0.00  0.00    +0.000 C 
ATOM      8  C   UNL     1       2.027   8.576  18.289  0.00  0.00    +0.000 C 
ENDROOT
BRANCH   2   9
ATOM      9  C   UNL     1       0.371  10.475  19.895  0.00  0.00    +0.000 A 
ATOM     10  N   UNL     1       1.114  11.452  20.324  0.00  0.00    +0.000 NA
ATOM     11  N   UNL     1       0.827  12.742  19.953  0.00  0.00    +0.000 N 
ATOM     12  C   UNL     1      -0.167  13.086  19.045  0.00  0.00    +0.000 A 
ATOM     13  O   UNL     1      -0.410  14.237  18.691  0.00  0.00    +0.000 OA
ATOM     14  C   UNL     1      -0.956  11.974  18.485  0.00  0.00    +0.000 A 
ATOM     15  C   UNL     1      -1.918  12.234  17.494  0.00  0.00    +0.000 A 
ATOM     16  C   UNL     1      -2.666  11.183  16.959  0.00  0.00    +0.000 A 
ATOM     17  C   UNL     1      -2.475   9.889  17.420  0.00  0.00    +0.000 A 
ATOM     18  C   UNL     1      -1.522   9.631  18.416  0.00  0.00    +0.000 A 
ATOM     19  C   UNL     1      -0.739  10.671  18.928  0.00  0.00    +0.000 A 
BRANCH  11  20
ATOM     20  C   UNL     1       1.617  13.793  20.596  0.00  0.00    +0.000 C 
BRANCH  20  21
ATOM     21  C   UNL     1       2.423  14.613  19.607  0.00  0.00    +0.000 A 
ATOM     22  C   UNL     1       2.278  16.007  19.538  0.00  0.00    +0.000 A 
ATOM     23  C   UNL     1       3.021  16.756  18.621  0.00  0.00    +0.000 A 
ATOM     24  C   UNL     1       3.920  16.121  17.767  0.00  0.00    +0.000 A 
ATOM     25  C   UNL     1       4.076  14.737  17.825  0.00  0.00    +0.000 A 
ATOM     26  C   UNL     1       3.327  13.987  18.735  0.00  0.00    +0.000 A 
ENDBRANCH  20  21
ENDBRANCH  11  20
ENDBRANCH   2   9
BRANCH   6  27
ATOM     27  C   UNL     1       2.439   5.651  17.450  0.00  0.00    +0.000 C 
BRANCH  27  28
ATOM     28  C   UNL     1       2.349   4.186  17.839  0.00  0.00    +0.000 A 
ATOM     29  C   UNL     1       1.053   3.624  17.942  0.00  0.00    +0.000 A 
ATOM     30  C   UNL     1       0.786   2.691  18.933  0.00  0.00    +0.000 A 
ATOM     31  C   UNL     1       1.853   2.349  19.731  0.00  0.00    +0.000 A 
ATOM     32  C   UNL     1       3.178   2.604  19.393  0.00  0.00    +0.000 A 
ATOM     33  C   UNL     1       3.453   3.564  18.447  0.00  0.00    +0.000 A 
ATOM     34  C   UNL     1       4.014   2.131  20.530  0.00  0.00    +0.000 C 
ATOM     35  C   UNL     1       3.023   2.627  21.574  0.00  0.00    +0.000 C 
ATOM     36  O   UNL     1       1.730   2.130  21.102  0.00  0.00    +0.000 OA
ENDBRANCH  27  28
ENDBRANCH   6  27
TORSDOF 5
ENDMDL
MODEL 9
REMARK VINA RESULT:      -8.0      4.384      9.348
REMARK  Name = 
REMARK  5 active torsions:
REMARK  status: ('A' for Active; 'I' for Inactive)
REMARK    1  A    between atoms: C_2  and  C_3
REMARK    2  A    between atoms: N_5  and  C_6
REMARK    3  A    between atoms: C_6  and  C_7
REMARK    4  A    between atoms: N_24  and  C_25
REMARK    5  A    between atoms: C_25  and  C_26
REMARK                            x       y       z     vdW  Elec       q    Type
REMARK                         _______ _______ _______ _____ _____    ______ ____
ROOT
ATOM      1  O   UNL     1       3.794  14.238  22.583  0.00  0.00    +0.000 OA
ATOM      2  C   UNL     1       3.570  14.325  21.378  0.00  0.00    +0.000 C 
ATOM      3  N   UNL     1       4.511  14.828  20.466  0.00  0.00    +0.000 N 
ATOM      4  C   UNL     1       5.844  15.127  20.998  0.00  0.00    +0.000 C 
ATOM      5  C   UNL     1       6.648  16.071  20.079  0.00  0.00    +0.000 C 
ATOM      6  N   UNL     1       6.708  15.650  18.658  0.00  0.00    +0.000 NA
ATOM      7  C   UNL     1       5.330  15.480  18.170  0.00  0.00    +0.000 C 
ATOM      8  C   UNL     1       4.445  14.558  19.024  0.00  0.00    +0.000 C 
ENDROOT
BRANCH   2   9
ATOM      9  C   UNL     1       2.197  13.866  20.866  0.00  0.00    +0.000 A 
ATOM     10  N   UNL     1       1.829  12.657  21.173  0.00  0.00    +0.000 NA
ATOM     11  N   UNL     1       0.633  12.168  20.711  0.00  0.00    +0.000 N 
ATOM     12  C   UNL     1      -0.293  12.925  20.001  0.00  0.00    +0.000 A 
ATOM     13  O   UNL     1      -1.376  12.499  19.608  0.00  0.00    +0.000 OA
ATOM     14  C   UNL     1       0.078  14.325  19.727  0.00  0.00    +0.000 A 
ATOM     15  C   UNL     1      -0.842  15.177  19.092  0.00  0.00    +0.000 A 
ATOM     16  C   UNL     1      -0.496  16.504  18.833  0.00  0.00    +0.000 A 
ATOM     17  C   UNL     1       0.763  16.975  19.180  0.00  0.00    +0.000 A 
ATOM     18  C   UNL     1       1.685  16.122  19.804  0.00  0.00    +0.000 A 
ATOM     19  C   UNL     1       1.332  14.802  20.105  0.00  0.00    +0.000 A 
BRANCH  11  20
ATOM     20  C   UNL     1       0.363  10.754  20.975  0.00  0.00    +0.000 C 
BRANCH  20  21
ATOM     21  C   UNL     1       1.047   9.829  19.988  0.00  0.00    +0.000 A 
ATOM     22  C   UNL     1       1.261  10.223  18.658  0.00  0.00    +0.000 A 
ATOM     23  C   UNL     1       1.889   9.363  17.753  0.00  0.00    +0.000 A 
ATOM     24  C   UNL     1       2.314   8.103  18.167  0.00  0.00    +0.000 A 
ATOM     25  C   UNL     1       2.110   7.698  19.485  0.00  0.00    +0.000 A 
ATOM     26  C   UNL     1       1.474   8.553  20.389  0.00  0.00    +0.000 A 
ENDBRANCH  20  21
ENDBRANCH  11  20
ENDBRANCH   2   9
BRANCH   6  27
ATOM     27  C   UNL     1       7.476  14.410  18.551  0.00  0.00    +0.000 C 
BRANCH  27  28
ATOM     28  C   UNL     1       8.962  14.509  18.843  0.00  0.00    +0.000 A 
ATOM     29  C   UNL     1       9.766  15.173  17.885  0.00  0.00    +0.000 A 
ATOM     30  C   UNL     1      11.045  14.706  17.619  0.00  0.00    +0.000 A 
ATOM     31  C   UNL     1      11.451  13.625  18.367  0.00  0.00    +0.000 A 
ATOM     32  C   UNL     1      10.825  13.227  19.543  0.00  0.00    +0.000 A 
ATOM     33  C   UNL     1       9.538  13.645  19.791  0.00  0.00    +0.000 A 
ATOM     34  C   UNL     1      11.527  12.002  20.013  0.00  0.00    +0.000 C 
ATOM     35  C   UNL     1      11.687  11.450  18.603  0.00  0.00    +0.000 C 
ATOM     36  O   UNL     1      12.207  12.582  17.836  0.00  0.00    +0.000 OA
ENDBRANCH  27  28
ENDBRANCH   6  27
TORSDOF 5
ENDMDL
