MODEL 1
REMARK VINA RESULT:      -8.9      0.000      0.000
REMARK  Name = 
REMARK  6 active torsions:
REMARK  status: ('A' for Active; 'I' for Inactive)
REMARK    1  A    between atoms: C_1  and  C_2
REMARK    2  A    between atoms: C_2  and  C_3
REMARK    3  A    between atoms: C_7  and  N_8
REMARK    4  A    between atoms: C_13  and  C_14
REMARK    5  A    between atoms: C_14  and  N_15
REMARK    6  A    between atoms: C_22  and  C_23
REMARK                            x       y       z     vdW  Elec       q    Type
REMARK                         _______ _______ _______ _____ _____    ______ ____
ROOT
ATOM      1  N   UNL     1       6.236   5.765  15.447  0.00  0.00    +0.000 N 
ATOM      2  C   UNL     1       4.975   6.460  15.813  0.00  0.00    +0.000 C 
ATOM      3  C   UNL     1       4.268   5.421  16.619  0.00  0.00    +0.000 A 
ATOM      4  C   UNL     1       4.716   4.174  16.186  0.00  0.00    +0.000 A 
ATOM      5  C   UNL     1       4.382   2.988  16.804  0.00  0.00    +0.000 A 
ATOM      6  C   UNL     1       3.577   3.046  17.949  0.00  0.00    +0.000 A 
ATOM      7  C   UNL     1       3.124   4.308  18.416  0.00  0.00    +0.000 A 
ATOM      8  C   UNL     1       3.455   5.514  17.750  0.00  0.00    +0.000 A 
ATOM      9  C   UNL     1       5.889   4.398  15.303  0.00  0.00    +0.000 C 
ATOM     10  O   UNL     1       6.511   3.506  14.754  0.00  0.00    +0.000 OA
ENDROOT
BRANCH   1  15
ATOM     11  C   UNL     1       7.972   7.864  17.877  0.00  0.00    +0.000 A 
ATOM     12  C   UNL     1       7.960   6.976  18.959  0.00  0.00    +0.000 A 
ATOM     13  C   UNL     1       7.783   5.611  18.748  0.00  0.00    +0.000 A 
ATOM     14  C   UNL     1       7.500   5.138  17.472  0.00  0.00    +0.000 A 
ATOM     15  C   UNL     1       7.267   6.052  16.434  0.00  0.00    +0.000 A 
ATOM     16  C   UNL     1       7.654   7.386  16.601  0.00  0.00    +0.000 A 
BRANCH  11  18
ATOM     17  C   UNL     1       9.207   9.607  19.207  0.00  0.00    +0.000 C 
ATOM     18  C   UNL     1       8.203   9.337  18.096  0.00  0.00    +0.000 C 
ENDBRANCH  11  18
ENDBRANCH   1  15
BRANCH   8  19
ATOM     19  C   UNL     1       3.021   6.832  18.349  0.00  0.00    +0.000 C 
ATOM     20  F   UNL     1       1.864   7.328  17.828  0.00  0.00    +0.000 F 
ATOM     21  F   UNL     1       2.804   6.741  19.690  0.00  0.00    +0.000 F 
ATOM     22  F   UNL     1       3.949   7.814  18.184  0.00  0.00    +0.000 F 
ENDBRANCH   8  19
BRANCH   6  23
ATOM     23  C   UNL     1       3.244   1.772  18.702  0.00  0.00    +0.000 C 
BRANCH  23  24
ATOM     24  N   UNL     1       2.181   1.895  19.711  0.00  0.00    +0.000 NA
ATOM     25  C   UNL     1       1.021   2.699  19.302  0.00  0.00    +0.000 C 
ATOM     26  C   UNL     1       0.745   3.741  20.379  0.00  0.00    +0.000 C 
ATOM     27  C   UNL     1       1.601   3.340  21.553  0.00  0.00    +0.000 C 
ATOM     28  F   UNL     1       0.863   2.591  22.414  0.00  0.00    +0.000 F 
ATOM     29  C   UNL     1       2.712   2.497  20.951  0.00  0.00    +0.000 C 
ENDBRANCH  23  24
ENDBRANCH   6  23
TORSDOF 5
ENDMDL
MODEL 2
REMARK VINA RESULT:      -8.6      3.131      6.333
REMARK  Name = 
REMARK  6 active torsions:
REMARK  status: ('A' for Active; 'I' for Inactive)
REMARK    1  A    between atoms: C_1  and  C_2
REMARK    2  A    between atoms: C_2  and  C_3
REMARK    3  A    between atoms: C_7  and  N_8
REMARK    4  A    between atoms: C_13  and  C_14
REMARK    5  A    between atoms: C_14  and  N_15
REMARK    6  A    between atoms: C_22  and  C_23
REMARK                            x       y       z     vdW  Elec       q    Type
REMARK                         _______ _______ _______ _____ _____    ______ ____
ROOT
ATOM      1  N   UNL     1       4.157   4.601  19.092  0.00  0.00    +0.000 N 
ATOM      2  C   UNL     1       5.490   5.240  19.241  0.00  0.00    +0.000 C 
ATOM      3  C   UNL     1       6.053   5.112  17.864  0.00  0.00    +0.000 A 
ATOM      4  C   UNL     1       5.460   4.001  17.267  0.00  0.00    +0.000 A 
ATOM      5  C   UNL     1       5.636   3.664  15.943  0.00  0.00    +0.000 A 
ATOM      6  C   UNL     1       6.429   4.503  15.149  0.00  0.00    +0.000 A 
ATOM      7  C   UNL     1       7.030   5.648  15.735  0.00  0.00    +0.000 A 
ATOM      8  C   UNL     1       6.859   5.963  17.106  0.00  0.00    +0.000 A 
ATOM      9  C   UNL     1       4.334   3.571  18.135  0.00  0.00    +0.000 C 
ATOM     10  O   UNL     1       3.612   2.620  17.896  0.00  0.00    +0.000 OA
ENDROOT
BRANCH   1  15
ATOM     11  C   UNL     1       1.994   7.454  19.806  0.00  0.00    +0.000 A 
ATOM     12  C   UNL     1       2.372   8.270  18.732  0.00  0.00    +0.000 A 
ATOM     13  C   UNL     1       2.975   7.717  17.606  0.00  0.00    +0.000 A 
ATOM     14  C   UNL     1       3.311   6.368  17.591  0.00  0.00    +0.000 A 
ATOM     15  C   UNL     1       3.158   5.607  18.759  0.00  0.00    +0.000 A 
ATOM     16  C   UNL     1       2.365   6.105  19.798  0.00  0.00    +0.000 A 
BRANCH  11  18
ATOM     17  C   UNL     1       0.404   9.213  20.648  0.00  0.00    +0.000 C 
ATOM     18  C   UNL     1       1.305   8.041  21.010  0.00  0.00    +0.000 C 
ENDBRANCH  11  18
ENDBRANCH   1  15
BRANCH   8  19
ATOM     19  C   UNL     1       7.447   7.245  17.649  0.00  0.00    +0.000 C 
ATOM     20  F   UNL     1       8.330   7.853  16.809  0.00  0.00    +0.000 F 
ATOM     21  F   UNL     1       6.492   8.180  17.907  0.00  0.00    +0.000 F 
ATOM     22  F   UNL     1       8.118   7.061  18.818  0.00  0.00    +0.000 F 
ENDBRANCH   8  19
BRANCH   6  23
ATOM     23  C   UNL     1       6.594   4.208  13.671  0.00  0.00    +0.000 C 
BRANCH  23  24
ATOM     24  N   UNL     1       5.547   3.364  13.075  0.00  0.00    +0.000 NA
ATOM     25  C   UNL     1       6.037   2.226  12.286  0.00  0.00    +0.000 C 
ATOM     26  C   UNL     1       5.355   2.247  10.922  0.00  0.00    +0.000 C 
ATOM     27  C   UNL     1       4.250   3.264  11.043  0.00  0.00    +0.000 C 
ATOM     28  F   UNL     1       3.088   2.634  11.357  0.00  0.00    +0.000 F 
ATOM     29  C   UNL     1       4.679   4.166  12.188  0.00  0.00    +0.000 C 
ENDBRANCH  23  24
ENDBRANCH   6  23
TORSDOF 5
ENDMDL
MODEL 3
REMARK VINA RESULT:      -8.5      5.449      7.954
REMARK  Name = 
REMARK  6 active torsions:
REMARK  status: ('A' for Active; 'I' for Inactive)
REMARK    1  A    between atoms: C_1  and  C_2
REMARK    2  A    between atoms: C_2  and  C_3
REMARK    3  A    between atoms: C_7  and  N_8
REMARK    4  A    between atoms: C_13  and  C_14
REMARK    5  A    between atoms: C_14  and  N_15
REMARK    6  A    between atoms: C_22  and  C_23
REMARK                            x       y       z     vdW  Elec       q    Type
REMARK                         _______ _______ _______ _____ _____    ______ ____
ROOT
ATOM      1  N   UNL     1       2.628   7.301  19.341  0.00  0.00    +0.000 N 
ATOM      2  C   UNL     1       2.299   8.065  20.571  0.00  0.00    +0.000 C 
ATOM      3  C   UNL     1       1.222   8.981  20.091  0.00  0.00    +0.000 A 
ATOM      4  C   UNL     1       1.418   9.184  18.726  0.00  0.00    +0.000 A 
ATOM      5  C   UNL     1       0.529   9.863  17.921  0.00  0.00    +0.000 A 
ATOM      6  C   UNL     1      -0.650  10.346  18.505  0.00  0.00    +0.000 A 
ATOM      7  C   UNL     1      -0.876  10.136  19.890  0.00  0.00    +0.000 A 
ATOM      8  C   UNL     1       0.064   9.459  20.707  0.00  0.00    +0.000 A 
ATOM      9  C   UNL     1       2.439   8.208  18.268  0.00  0.00    +0.000 C 
ATOM     10  O   UNL     1       2.841   8.127  17.121  0.00  0.00    +0.000 OA
ENDROOT
BRANCH   1  15
ATOM     11  C   UNL     1       2.014   3.810  18.467  0.00  0.00    +0.000 A 
ATOM     12  C   UNL     1       1.621   3.350  19.730  0.00  0.00    +0.000 A 
ATOM     13  C   UNL     1       1.165   4.245  20.695  0.00  0.00    +0.000 A 
ATOM     14  C   UNL     1       1.209   5.612  20.449  0.00  0.00    +0.000 A 
ATOM     15  C   UNL     1       1.833   6.083  19.284  0.00  0.00    +0.000 A 
ATOM     16  C   UNL     1       2.087   5.189  18.238  0.00  0.00    +0.000 A 
BRANCH  11  18
ATOM     17  C   UNL     1       3.399   1.771  17.959  0.00  0.00    +0.000 C 
ATOM     18  C   UNL     1       2.469   2.843  17.406  0.00  0.00    +0.000 C 
ENDBRANCH  11  18
ENDBRANCH   1  15
BRANCH   8  19
ATOM     19  C   UNL     1      -0.276   9.186  22.154  0.00  0.00    +0.000 C 
ATOM     20  F   UNL     1      -1.096  10.113  22.720  0.00  0.00    +0.000 F 
ATOM     21  F   UNL     1      -0.913   7.993  22.316  0.00  0.00    +0.000 F 
ATOM     22  F   UNL     1       0.826   9.134  22.951  0.00  0.00    +0.000 F 
ENDBRANCH   8  19
BRANCH   6  23
ATOM     23  C   UNL     1      -1.689  11.038  17.643  0.00  0.00    +0.000 C 
BRANCH  23  24
ATOM     24  N   UNL     1      -3.088  10.806  18.032  0.00  0.00    +0.000 NA
ATOM     25  C   UNL     1      -4.034  10.679  16.915  0.00  0.00    +0.000 C 
ATOM     26  C   UNL     1      -5.202  11.629  17.153  0.00  0.00    +0.000 C 
ATOM     27  C   UNL     1      -5.048  12.105  18.574  0.00  0.00    +0.000 C 
ATOM     28  F   UNL     1      -5.808  11.333  19.395  0.00  0.00    +0.000 F 
ATOM     29  C   UNL     1      -3.574  11.906  18.890  0.00  0.00    +0.000 C 
ENDBRANCH  23  24
ENDBRANCH   6  23
TORSDOF 5
ENDMDL
MODEL 4
REMARK VINA RESULT:      -8.3      8.660     11.163
REMARK  Name = 
REMARK  6 active torsions:
REMARK  status: ('A' for Active; 'I' for Inactive)
REMARK    1  A    between atoms: C_1  and  C_2
REMARK    2  A    between atoms: C_2  and  C_3
REMARK    3  A    between atoms: C_7  and  N_8
REMARK    4  A    between atoms: C_13  and  C_14
REMARK    5  A    between atoms: C_14  and  N_15
REMARK    6  A    between atoms: C_22  and  C_23
REMARK                            x       y       z     vdW  Elec       q    Type
REMARK                         _______ _______ _______ _____ _____    ______ ____
ROOT
ATOM      1  N   UNL     1      -0.251  11.416  18.503  0.00  0.00    +0.000 N 
ATOM      2  C   UNL     1       0.483  10.651  19.544  0.00  0.00    +0.000 C 
ATOM      3  C   UNL     1       0.003  11.297  20.802  0.00  0.00    +0.000 A 
ATOM      4  C   UNL     1      -0.359  12.607  20.493  0.00  0.00    +0.000 A 
ATOM      5  C   UNL     1      -0.980  13.455  21.383  0.00  0.00    +0.000 A 
ATOM      6  C   UNL     1      -1.292  12.960  22.656  0.00  0.00    +0.000 A 
ATOM      7  C   UNL     1      -0.946  11.624  22.986  0.00  0.00    +0.000 A 
ATOM      8  C   UNL     1      -0.282  10.775  22.065  0.00  0.00    +0.000 A 
ATOM      9  C   UNL     1      -0.372  12.733  19.013  0.00  0.00    +0.000 C 
ATOM     10  O   UNL     1      -0.645  13.759  18.417  0.00  0.00    +0.000 OA
ENDROOT
BRANCH   1  15
ATOM     11  C   UNL     1      -3.830  11.297  17.791  0.00  0.00    +0.000 A 
ATOM     12  C   UNL     1      -3.776  10.568  16.597  0.00  0.00    +0.000 A 
ATOM     13  C   UNL     1      -2.660   9.792  16.295  0.00  0.00    +0.000 A 
ATOM     14  C   UNL     1      -1.545   9.829  17.124  0.00  0.00    +0.000 A 
ATOM     15  C   UNL     1      -1.504  10.746  18.184  0.00  0.00    +0.000 A 
ATOM     16  C   UNL     1      -2.692  11.355  18.604  0.00  0.00    +0.000 A 
BRANCH  11  18
ATOM     17  C   UNL     1      -6.310  11.254  18.212  0.00  0.00    +0.000 C 
ATOM     18  C   UNL     1      -5.051  12.106  18.142  0.00  0.00    +0.000 C 
ENDBRANCH  11  18
ENDBRANCH   1  15
BRANCH   8  19
ATOM     19  C   UNL     1      -0.024   9.334  22.442  0.00  0.00    +0.000 C 
ATOM     20  F   UNL     1      -0.855   8.441  21.836  0.00  0.00    +0.000 F 
ATOM     21  F   UNL     1       1.236   8.935  22.115  0.00  0.00    +0.000 F 
ATOM     22  F   UNL     1      -0.154   9.110  23.778  0.00  0.00    +0.000 F 
ENDBRANCH   8  19
BRANCH   6  23
ATOM     23  C   UNL     1      -2.038  13.837  23.644  0.00  0.00    +0.000 C 
BRANCH  23  24
ATOM     24  N   UNL     1      -3.500  13.857  23.492  0.00  0.00    +0.000 NA
ATOM     25  C   UNL     1      -4.078  12.665  22.857  0.00  0.00    +0.000 C 
ATOM     26  C   UNL     1      -4.984  13.110  21.714  0.00  0.00    +0.000 C 
ATOM     27  C   UNL     1      -5.136  14.600  21.881  0.00  0.00    +0.000 C 
ATOM     28  F   UNL     1      -6.272  14.863  22.578  0.00  0.00    +0.000 F 
ATOM     29  C   UNL     1      -3.920  15.024  22.689  0.00  0.00    +0.000 C 
ENDBRANCH  23  24
ENDBRANCH   6  23
TORSDOF 5
ENDMDL
MODEL 5
REMARK VINA RESULT:      -8.2      3.307      5.209
REMARK  Name = 
REMARK  6 active torsions:
REMARK  status: ('A' for Active; 'I' for Inactive)
REMARK    1  A    between atoms: C_1  and  C_2
REMARK    2  A    between atoms: C_2  and  C_3
REMARK    3  A    between atoms: C_7  and  N_8
REMARK    4  A    between atoms: C_13  and  C_14
REMARK    5  A    between atoms: C_14  and  N_15
REMARK    6  A    between atoms: C_22  and  C_23
REMARK                            x       y       z     vdW  Elec       q    Type
REMARK                         _______ _______ _______ _____ _____    ______ ____
ROOT
ATOM      1  N   UNL     1       6.320   5.213  16.874  0.00  0.00    +0.000 N 
ATOM      2  C   UNL     1       5.406   4.311  17.621  0.00  0.00    +0.000 C 
ATOM      3  C   UNL     1       4.242   5.204  17.897  0.00  0.00    +0.000 A 
ATOM      4  C   UNL     1       4.715   6.515  17.932  0.00  0.00    +0.000 A 
ATOM      5  C   UNL     1       3.895   7.619  18.023  0.00  0.00    +0.000 A 
ATOM      6  C   UNL     1       2.509   7.409  18.049  0.00  0.00    +0.000 A 
ATOM      7  C   UNL     1       2.007   6.082  17.999  0.00  0.00    +0.000 A 
ATOM      8  C   UNL     1       2.869   4.958  17.934  0.00  0.00    +0.000 A 
ATOM      9  C   UNL     1       6.110   6.505  17.420  0.00  0.00    +0.000 C 
ATOM     10  O   UNL     1       6.810   7.496  17.326  0.00  0.00    +0.000 OA
ENDROOT
BRANCH   1  15
ATOM     11  C   UNL     1       7.334   5.092  13.369  0.00  0.00    +0.000 A 
ATOM     12  C   UNL     1       6.710   3.889  13.018  0.00  0.00    +0.000 A 
ATOM     13  C   UNL     1       5.657   3.392  13.782  0.00  0.00    +0.000 A 
ATOM     14  C   UNL     1       5.298   4.029  14.965  0.00  0.00    +0.000 A 
ATOM     15  C   UNL     1       6.083   5.088  15.443  0.00  0.00    +0.000 A 
ATOM     16  C   UNL     1       6.990   5.709  14.577  0.00  0.00    +0.000 A 
BRANCH  11  18
ATOM     17  C   UNL     1       7.930   6.326  11.259  0.00  0.00    +0.000 C 
ATOM     18  C   UNL     1       8.447   5.655  12.524  0.00  0.00    +0.000 C 
ENDBRANCH  11  18
ENDBRANCH   1  15
BRANCH   8  19
ATOM     19  C   UNL     1       2.272   3.577  17.789  0.00  0.00    +0.000 C 
ATOM     20  F   UNL     1       2.468   3.010  16.567  0.00  0.00    +0.000 F 
ATOM     21  F   UNL     1       2.793   2.695  18.685  0.00  0.00    +0.000 F 
ATOM     22  F   UNL     1       0.926   3.564  17.989  0.00  0.00    +0.000 F 
ENDBRANCH   8  19
BRANCH   6  23
ATOM     23  C   UNL     1       1.568   8.597  18.078  0.00  0.00    +0.000 C 
BRANCH  23  24
ATOM     24  N   UNL     1       1.452   9.280  19.376  0.00  0.00    +0.000 NA
ATOM     25  C   UNL     1       1.366   8.391  20.543  0.00  0.00    +0.000 C 
ATOM     26  C   UNL     1       0.161   8.802  21.382  0.00  0.00    +0.000 C 
ATOM     27  C   UNL     1      -0.285  10.128  20.819  0.00  0.00    +0.000 C 
ATOM     28  F   UNL     1       0.271  11.135  21.542  0.00  0.00    +0.000 F 
ATOM     29  C   UNL     1       0.255  10.146  19.399  0.00  0.00    +0.000 C 
ENDBRANCH  23  24
ENDBRANCH   6  23
TORSDOF 5
ENDMDL
MODEL 6
REMARK VINA RESULT:      -8.2      3.372      6.532
REMARK  Name = 
REMARK  6 active torsions:
REMARK  status: ('A' for Active; 'I' for Inactive)
REMARK    1  A    between atoms: C_1  and  C_2
REMARK    2  A    between atoms: C_2  and  C_3
REMARK    3  A    between atoms: C_7  and  N_8
REMARK    4  A    between atoms: C_13  and  C_14
REMARK    5  A    between atoms: C_14  and  N_15
REMARK    6  A    between atoms: C_22  and  C_23
REMARK                            x       y       z     vdW  Elec       q    Type
REMARK                         _______ _______ _______ _____ _____    ______ ____
ROOT
ATOM      1  N   UNL     1       3.829   4.576  19.015  0.00  0.00    +0.000 N 
ATOM      2  C   UNL     1       5.200   5.131  19.149  0.00  0.00    +0.000 C 
ATOM      3  C   UNL     1       5.688   5.100  17.739  0.00  0.00    +0.000 A 
ATOM      4  C   UNL     1       5.007   4.079  17.078  0.00  0.00    +0.000 A 
ATOM      5  C   UNL     1       5.101   3.853  15.722  0.00  0.00    +0.000 A 
ATOM      6  C   UNL     1       5.900   4.720  14.964  0.00  0.00    +0.000 A 
ATOM      7  C   UNL     1       6.590   5.776  15.615  0.00  0.00    +0.000 A 
ATOM      8  C   UNL     1       6.502   5.974  17.016  0.00  0.00    +0.000 A 
ATOM      9  C   UNL     1       3.902   3.629  17.963  0.00  0.00    +0.000 C 
ATOM     10  O   UNL     1       3.119   2.740  17.680  0.00  0.00    +0.000 OA
ENDROOT
BRANCH   1  15
ATOM     11  C   UNL     1       1.919   7.505  20.065  0.00  0.00    +0.000 A 
ATOM     12  C   UNL     1       2.257   8.358  19.007  0.00  0.00    +0.000 A 
ATOM     13  C   UNL     1       2.726   7.837  17.804  0.00  0.00    +0.000 A 
ATOM     14  C   UNL     1       2.973   6.474  17.689  0.00  0.00    +0.000 A 
ATOM     15  C   UNL     1       2.871   5.656  18.824  0.00  0.00    +0.000 A 
ATOM     16  C   UNL     1       2.201   6.139  19.953  0.00  0.00    +0.000 A 
BRANCH  11  18
ATOM     17  C   UNL     1       0.222   9.030  21.125  0.00  0.00    +0.000 C 
ATOM     18  C   UNL     1       1.373   8.060  21.354  0.00  0.00    +0.000 C 
ENDBRANCH  11  18
ENDBRANCH   1  15
BRANCH   8  19
ATOM     19  C   UNL     1       7.184   7.172  17.637  0.00  0.00    +0.000 C 
ATOM     20  F   UNL     1       6.342   8.195  17.948  0.00  0.00    +0.000 F 
ATOM     21  F   UNL     1       7.817   6.857  18.801  0.00  0.00    +0.000 F 
ATOM     22  F   UNL     1       8.136   7.711  16.827  0.00  0.00    +0.000 F 
ENDBRANCH   8  19
BRANCH   6  23
ATOM     23  C   UNL     1       5.977   4.552  13.459  0.00  0.00    +0.000 C 
BRANCH  23  24
ATOM     24  N   UNL     1       6.245   3.184  12.989  0.00  0.00    +0.000 NA
ATOM     25  C   UNL     1       7.485   3.021  12.219  0.00  0.00    +0.000 C 
ATOM     26  C   UNL     1       7.160   2.303  10.915  0.00  0.00    +0.000 C 
ATOM     27  C   UNL     1       5.746   1.805  11.074  0.00  0.00    +0.000 C 
ATOM     28  F   UNL     1       5.766   0.518  11.508  0.00  0.00    +0.000 F 
ATOM     29  C   UNL     1       5.138   2.705  12.137  0.00  0.00    +0.000 C 
ENDBRANCH  23  24
ENDBRANCH   6  23
TORSDOF 5
ENDMDL
MODEL 7
REMARK VINA RESULT:      -8.2      3.063      5.435
REMARK  Name = 
REMARK  6 active torsions:
REMARK  status: ('A' for Active; 'I' for Inactive)
REMARK    1  A    between atoms: C_1  and  C_2
REMARK    2  A    between atoms: C_2  and  C_3
REMARK    3  A    between atoms: C_7  and  N_8
REMARK    4  A    between atoms: C_13  and  C_14
REMARK    5  A    between atoms: C_14  and  N_15
REMARK    6  A    between atoms: C_22  and  C_23
REMARK                            x       y       z     vdW  Elec       q    Type
REMARK                         _______ _______ _______ _____ _____    ______ ____
ROOT
ATOM      1  N   UNL     1       6.193   4.178  18.109  0.00  0.00    +0.000 N 
ATOM      2  C   UNL     1       4.976   3.327  18.109  0.00  0.00    +0.000 C 
ATOM      3  C   UNL     1       3.942   4.260  18.646  0.00  0.00    +0.000 A 
ATOM      4  C   UNL     1       4.593   5.195  19.449  0.00  0.00    +0.000 A 
ATOM      5  C   UNL     1       3.969   6.295  19.997  0.00  0.00    +0.000 A 
ATOM      6  C   UNL     1       2.615   6.499  19.701  0.00  0.00    +0.000 A 
ATOM      7  C   UNL     1       1.937   5.567  18.872  0.00  0.00    +0.000 A 
ATOM      8  C   UNL     1       2.590   4.426  18.341  0.00  0.00    +0.000 A 
ATOM      9  C   UNL     1       6.053   5.041  19.226  0.00  0.00    +0.000 C 
ATOM     10  O   UNL     1       6.904   5.709  19.784  0.00  0.00    +0.000 OA
ENDROOT
BRANCH   1  15
ATOM     11  C   UNL     1       5.821   4.440  14.487  0.00  0.00    +0.000 A 
ATOM     12  C   UNL     1       5.202   5.695  14.436  0.00  0.00    +0.000 A 
ATOM     13  C   UNL     1       5.312   6.579  15.506  0.00  0.00    +0.000 A 
ATOM     14  C   UNL     1       5.940   6.173  16.679  0.00  0.00    +0.000 A 
ATOM     15  C   UNL     1       6.340   4.837  16.819  0.00  0.00    +0.000 A 
ATOM     16  C   UNL     1       6.422   4.027  15.681  0.00  0.00    +0.000 A 
BRANCH  11  18
ATOM     17  C   UNL     1       6.763   3.821  12.238  0.00  0.00    +0.000 C 
ATOM     18  C   UNL     1       5.739   3.496  13.316  0.00  0.00    +0.000 C 
ENDBRANCH  11  18
ENDBRANCH   1  15
BRANCH   8  19
ATOM     19  C   UNL     1       1.840   3.522  17.390  0.00  0.00    +0.000 C 
ATOM     20  F   UNL     1       1.489   2.319  17.922  0.00  0.00    +0.000 F 
ATOM     21  F   UNL     1       0.675   4.080  16.961  0.00  0.00    +0.000 F 
ATOM     22  F   UNL     1       2.554   3.234  16.268  0.00  0.00    +0.000 F 
ENDBRANCH   8  19
BRANCH   6  23
ATOM     23  C   UNL     1       1.907   7.733  20.225  0.00  0.00    +0.000 C 
BRANCH  23  24
ATOM     24  N   UNL     1       1.247   8.563  19.205  0.00  0.00    +0.000 NA
ATOM     25  C   UNL     1       2.124   9.047  18.131  0.00  0.00    +0.000 C 
ATOM     26  C   UNL     1       1.944  10.555  17.995  0.00  0.00    +0.000 C 
ATOM     27  C   UNL     1       0.734  10.890  18.829  0.00  0.00    +0.000 C 
ATOM     28  F   UNL     1      -0.368  10.919  18.035  0.00  0.00    +0.000 F 
ATOM     29  C   UNL     1       0.626   9.750  19.828  0.00  0.00    +0.000 C 
ENDBRANCH  23  24
ENDBRANCH   6  23
TORSDOF 5
ENDMDL
MODEL 8
REMARK VINA RESULT:      -8.2      5.910      9.356
REMARK  Name = 
REMARK  6 active torsions:
REMARK  status: ('A' for Active; 'I' for Inactive)
REMARK    1  A    between atoms: C_1  and  C_2
REMARK    2  A    between atoms: C_2  and  C_3
REMARK    3  A    between atoms: C_7  and  N_8
REMARK    4  A    between atoms: C_13  and  C_14
REMARK    5  A    between atoms: C_14  and  N_15
REMARK    6  A    between atoms: C_22  and  C_23
REMARK                            x       y       z     vdW  Elec       q    Type
REMARK                         _______ _______ _______ _____ _____    ______ ____
ROOT
ATOM      1  N   UNL     1       0.622   8.331  21.260  0.00  0.00    +0.000 N 
ATOM      2  C   UNL     1      -0.603   8.661  20.486  0.00  0.00    +0.000 C 
ATOM      3  C   UNL     1      -0.396  10.106  20.175  0.00  0.00    +0.000 A 
ATOM      4  C   UNL     1       0.415  10.641  21.175  0.00  0.00    +0.000 A 
ATOM      5  C   UNL     1       0.928  11.920  21.136  0.00  0.00    +0.000 A 
ATOM      6  C   UNL     1       0.646  12.709  20.013  0.00  0.00    +0.000 A 
ATOM      7  C   UNL     1      -0.165  12.177  18.977  0.00  0.00    +0.000 A 
ATOM      8  C   UNL     1      -0.707  10.869  19.048  0.00  0.00    +0.000 A 
ATOM      9  C   UNL     1       0.949   9.510  21.975  0.00  0.00    +0.000 C 
ATOM     10  O   UNL     1       1.690   9.641  22.933  0.00  0.00    +0.000 OA
ENDROOT
BRANCH   1  15
ATOM     11  C   UNL     1       2.285   5.769  19.260  0.00  0.00    +0.000 A 
ATOM     12  C   UNL     1       2.348   6.466  18.048  0.00  0.00    +0.000 A 
ATOM     13  C   UNL     1       2.246   7.854  18.027  0.00  0.00    +0.000 A 
ATOM     14  C   UNL     1       1.964   8.546  19.199  0.00  0.00    +0.000 A 
ATOM     15  C   UNL     1       1.656   7.830  20.365  0.00  0.00    +0.000 A 
ATOM     16  C   UNL     1       1.968   6.468  20.431  0.00  0.00    +0.000 A 
BRANCH  11  18
ATOM     17  C   UNL     1       1.328   3.595  20.090  0.00  0.00    +0.000 C 
ATOM     18  C   UNL     1       2.435   4.270  19.293  0.00  0.00    +0.000 C 
ENDBRANCH  11  18
ENDBRANCH   1  15
BRANCH   8  19
ATOM     19  C   UNL     1      -1.484  10.326  17.871  0.00  0.00    +0.000 C 
ATOM     20  F   UNL     1      -1.893  11.276  16.986  0.00  0.00    +0.000 F 
ATOM     21  F   UNL     1      -0.756   9.439  17.139  0.00  0.00    +0.000 F 
ATOM     22  F   UNL     1      -2.612   9.664  18.248  0.00  0.00    +0.000 F 
ENDBRANCH   8  19
BRANCH   6  23
ATOM     23  C   UNL     1       1.248  14.096  19.896  0.00  0.00    +0.000 C 
BRANCH  23  24
ATOM     24  N   UNL     1       1.940  14.379  18.629  0.00  0.00    +0.000 NA
ATOM     25  C   UNL     1       3.203  13.656  18.433  0.00  0.00    +0.000 C 
ATOM     26  C   UNL     1       4.288  14.660  18.059  0.00  0.00    +0.000 C 
ATOM     27  C   UNL     1       3.559  15.947  17.770  0.00  0.00    +0.000 C 
ATOM     28  F   UNL     1       3.330  16.046  16.434  0.00  0.00    +0.000 F 
ATOM     29  C   UNL     1       2.241  15.821  18.517  0.00  0.00    +0.000 C 
ENDBRANCH  23  24
ENDBRANCH   6  23
TORSDOF 5
ENDMDL
MODEL 9
REMARK VINA RESULT:      -8.1      2.999      5.315
REMARK  Name = 
REMARK  6 active torsions:
REMARK  status: ('A' for Active; 'I' for Inactive)
REMARK    1  A    between atoms: C_1  and  C_2
REMARK    2  A    between atoms: C_2  and  C_3
REMARK    3  A    between atoms: C_7  and  N_8
REMARK    4  A    between atoms: C_13  and  C_14
REMARK    5  A    between atoms: C_14  and  N_15
REMARK    6  A    between atoms: C_22  and  C_23
REMARK                            x       y       z     vdW  Elec       q    Type
REMARK                         _______ _______ _______ _____ _____    ______ ____
ROOT
ATOM      1  N   UNL     1       6.531   4.357  18.132  0.00  0.00    +0.000 N 
ATOM      2  C   UNL     1       5.528   3.262  18.177  0.00  0.00    +0.000 C 
ATOM      3  C   UNL     1       4.327   3.962  18.723  0.00  0.00    +0.000 A 
ATOM      4  C   UNL     1       4.776   5.033  19.493  0.00  0.00    +0.000 A 
ATOM      5  C   UNL     1       3.940   5.984  20.037  0.00  0.00    +0.000 A 
ATOM      6  C   UNL     1       2.568   5.884  19.771  0.00  0.00    +0.000 A 
ATOM      7  C   UNL     1       2.092   4.809  18.975  0.00  0.00    +0.000 A 
ATOM      8  C   UNL     1       2.965   3.825  18.449  0.00  0.00    +0.000 A 
ATOM      9  C   UNL     1       6.231   5.194  19.236  0.00  0.00    +0.000 C 
ATOM     10  O   UNL     1       6.927   6.043  19.762  0.00  0.00    +0.000 OA
ENDROOT
BRANCH   1  15
ATOM     11  C   UNL     1       5.891   4.494  14.541  0.00  0.00    +0.000 A 
ATOM     12  C   UNL     1       5.111   5.657  14.517  0.00  0.00    +0.000 A 
ATOM     13  C   UNL     1       5.175   6.570  15.567  0.00  0.00    +0.000 A 
ATOM     14  C   UNL     1       5.926   6.273  16.699  0.00  0.00    +0.000 A 
ATOM     15  C   UNL     1       6.506   5.002  16.828  0.00  0.00    +0.000 A 
ATOM     16  C   UNL     1       6.618   4.187  15.696  0.00  0.00    +0.000 A 
BRANCH  11  18
ATOM     17  C   UNL     1       6.810   3.918  12.271  0.00  0.00    +0.000 C 
ATOM     18  C   UNL     1       5.856   3.524  13.390  0.00  0.00    +0.000 C 
ENDBRANCH  11  18
ENDBRANCH   1  15
BRANCH   8  19
ATOM     19  C   UNL     1       2.410   2.759  17.532  0.00  0.00    +0.000 C 
ATOM     20  F   UNL     1       2.434   3.089  16.212  0.00  0.00    +0.000 F 
ATOM     21  F   UNL     1       3.101   1.590  17.625  0.00  0.00    +0.000 F 
ATOM     22  F   UNL     1       1.114   2.451  17.811  0.00  0.00    +0.000 F 
ENDBRANCH   8  19
BRANCH   6  23
ATOM     23  C   UNL     1       1.620   6.948  20.290  0.00  0.00    +0.000 C 
BRANCH  23  24
ATOM     24  N   UNL     1       1.897   8.318  19.832  0.00  0.00    +0.000 NA
ATOM     25  C   UNL     1       0.909   9.325  20.245  0.00  0.00    +0.000 C 
ATOM     26  C   UNL     1       0.463  10.105  19.013  0.00  0.00    +0.000 C 
ATOM     27  C   UNL     1       1.424   9.711  17.921  0.00  0.00    +0.000 C 
ATOM     28  F   UNL     1       2.428  10.625  17.851  0.00  0.00    +0.000 F 
ATOM     29  C   UNL     1       1.976   8.365  18.358  0.00  0.00    +0.000 C 
ENDBRANCH  23  24
ENDBRANCH   6  23
TORSDOF 5
ENDMDL
