MODEL 1
REMARK VINA RESULT:      -8.8      0.000      0.000
REMARK  Name = 
REMARK  7 active torsions:
REMARK  status: ('A' for Active; 'I' for Inactive)
REMARK    1  A    between atoms: C_1  and  C_2
REMARK    2  A    between atoms: C_7  and  C_8
REMARK    3  A    between atoms: C_10  and  N_11
REMARK    4  A    between atoms: C_12  and  C_14
REMARK    5  A    between atoms: C_14  and  C_15
REMARK    6  A    between atoms: N_18  and  C_19
REMARK    7  A    between atoms: N_27  and  C_28
REMARK                            x       y       z     vdW  Elec       q    Type
REMARK                         _______ _______ _______ _____ _____    ______ ____
ROOT
ATOM      1  N   UNL     1       2.653   6.404  20.406  0.00  0.00    +0.000 N 
ATOM      2  C   UNL     1       2.017   5.119  20.596  0.00  0.00    +0.000 C 
ATOM      3  O   UNL     1       0.800   5.017  20.674  0.00  0.00    +0.000 OA
ATOM      4  H   UNL     1       3.661   6.451  20.503  0.00  0.00    +0.000 HD
ENDROOT
BRANCH   1   7
ATOM      5  C   UNL     1       0.604   9.368  20.453  0.00  0.00    +0.000 A 
ATOM      6  C   UNL     1       1.073   8.190  21.092  0.00  0.00    +0.000 A 
ATOM      7  C   UNL     1       1.930   7.576  20.206  0.00  0.00    +0.000 A 
ATOM      8  N   UNL     1       1.906   8.376  19.090  0.00  0.00    +0.000 N 
ATOM      9  C   UNL     1       2.665   8.253  17.870  0.00  0.00    +0.000 C 
ATOM     10  N   UNL     1       1.114   9.453  19.217  0.00  0.00    +0.000 NA
BRANCH   5  17
ATOM     11  C   UNL     1       0.036   9.523  23.417  0.00  0.00    +0.000 C 
ATOM     12  C   UNL     1      -0.560  10.470  22.408  0.00  0.00    +0.000 A 
ATOM     13  C   UNL     1      -1.427  11.475  22.871  0.00  0.00    +0.000 A 
ATOM     14  C   UNL     1      -1.988  12.405  21.995  0.00  0.00    +0.000 A 
ATOM     15  C   UNL     1      -1.694  12.343  20.639  0.00  0.00    +0.000 A 
ATOM     16  C   UNL     1      -0.846  11.344  20.160  0.00  0.00    +0.000 A 
ATOM     17  C   UNL     1      -0.272  10.394  21.028  0.00  0.00    +0.000 A 
ENDBRANCH   5  17
ENDBRANCH   1   7
BRANCH   2  18
ATOM     18  C   UNL     1       2.941   3.948  20.760  0.00  0.00    +0.000 C 
BRANCH  18  19
ATOM     19  C   UNL     1       3.377   3.488  19.423  0.00  0.00    +0.000 A 
ATOM     20  C   UNL     1       2.959   2.338  18.728  0.00  0.00    +0.000 A 
ATOM     21  C   UNL     1       3.669   2.356  17.559  0.00  0.00    +0.000 A 
ATOM     22  N   UNL     1       4.452   3.492  17.567  0.00  0.00    +0.000 N 
ATOM     23  N   UNL     1       4.308   4.171  18.747  0.00  0.00    +0.000 NA
BRANCH  22  24
ATOM     24  C   UNL     1       5.326   3.959  16.547  0.00  0.00    +0.000 A 
ATOM     25  C   UNL     1       5.279   3.417  15.252  0.00  0.00    +0.000 A 
ATOM     26  C   UNL     1       6.144   3.893  14.263  0.00  0.00    +0.000 A 
ATOM     27  C   UNL     1       7.047   4.904  14.566  0.00  0.00    +0.000 A 
ATOM     28  F   UNL     1       7.873   5.357  13.616  0.00  0.00    +0.000 F 
ATOM     29  C   UNL     1       7.104   5.453  15.842  0.00  0.00    +0.000 A 
ATOM     30  C   UNL     1       6.243   4.983  16.835  0.00  0.00    +0.000 A 
ENDBRANCH  22  24
ENDBRANCH  18  19
ENDBRANCH   2  18
TORSDOF 5
ENDMDL
MODEL 2
REMARK VINA RESULT:      -8.8      0.725      1.560
REMARK  Name = 
REMARK  7 active torsions:
REMARK  status: ('A' for Active; 'I' for Inactive)
REMARK    1  A    between atoms: C_1  and  C_2
REMARK    2  A    between atoms: C_7  and  C_8
REMARK    3  A    between atoms: C_10  and  N_11
REMARK    4  A    between atoms: C_12  and  C_14
REMARK    5  A    between atoms: C_14  and  C_15
REMARK    6  A    between atoms: N_18  and  C_19
REMARK    7  A    between atoms: N_27  and  C_28
REMARK                            x       y       z     vdW  Elec       q    Type
REMARK                         _______ _______ _______ _____ _____    ______ ____
ROOT
ATOM      1  N   UNL     1       2.589   6.143  20.566  0.00  0.00    +0.000 N 
ATOM      2  C   UNL     1       1.850   4.901  20.591  0.00  0.00    +0.000 C 
ATOM      3  O   UNL     1       0.626   4.888  20.559  0.00  0.00    +0.000 OA
ATOM      4  H   UNL     1       3.585   6.103  20.750  0.00  0.00    +0.000 HD
ENDROOT
BRANCH   1   7
ATOM      5  C   UNL     1       0.884   9.312  20.746  0.00  0.00    +0.000 A 
ATOM      6  C   UNL     1       1.310   8.111  21.371  0.00  0.00    +0.000 A 
ATOM      7  C   UNL     1       1.972   7.380  20.410  0.00  0.00    +0.000 A 
ATOM      8  N   UNL     1       1.882   8.142  19.271  0.00  0.00    +0.000 N 
ATOM      9  C   UNL     1       2.453   7.900  17.969  0.00  0.00    +0.000 C 
ATOM     10  N   UNL     1       1.230   9.303  19.452  0.00  0.00    +0.000 NA
BRANCH   5  17
ATOM     11  C   UNL     1       1.301  12.162  19.830  0.00  0.00    +0.000 C 
ATOM     12  C   UNL     1       0.402  11.783  20.977  0.00  0.00    +0.000 A 
ATOM     13  C   UNL     1      -0.276  12.811  21.658  0.00  0.00    +0.000 A 
ATOM     14  C   UNL     1      -1.149  12.528  22.708  0.00  0.00    +0.000 A 
ATOM     15  C   UNL     1      -1.357  11.211  23.099  0.00  0.00    +0.000 A 
ATOM     16  C   UNL     1      -0.683  10.180  22.444  0.00  0.00    +0.000 A 
ATOM     17  C   UNL     1       0.205  10.445  21.383  0.00  0.00    +0.000 A 
ENDBRANCH   5  17
ENDBRANCH   1   7
BRANCH   2  18
ATOM     18  C   UNL     1       2.670   3.651  20.729  0.00  0.00    +0.000 C 
BRANCH  18  19
ATOM     19  C   UNL     1       3.172   3.256  19.395  0.00  0.00    +0.000 A 
ATOM     20  C   UNL     1       2.807   2.130  18.634  0.00  0.00    +0.000 A 
ATOM     21  C   UNL     1       3.568   2.210  17.500  0.00  0.00    +0.000 A 
ATOM     22  N   UNL     1       4.328   3.357  17.591  0.00  0.00    +0.000 N 
ATOM     23  N   UNL     1       4.120   3.983  18.790  0.00  0.00    +0.000 NA
BRANCH  22  24
ATOM     24  C   UNL     1       5.237   3.883  16.632  0.00  0.00    +0.000 A 
ATOM     25  C   UNL     1       6.410   4.543  17.035  0.00  0.00    +0.000 A 
ATOM     26  C   UNL     1       7.292   5.050  16.077  0.00  0.00    +0.000 A 
ATOM     27  C   UNL     1       7.005   4.895  14.726  0.00  0.00    +0.000 A 
ATOM     28  F   UNL     1       7.853   5.381  13.813  0.00  0.00    +0.000 F 
ATOM     29  C   UNL     1       5.851   4.241  14.311  0.00  0.00    +0.000 A 
ATOM     30  C   UNL     1       4.964   3.733  15.261  0.00  0.00    +0.000 A 
ENDBRANCH  22  24
ENDBRANCH  18  19
ENDBRANCH   2  18
TORSDOF 5
ENDMDL
MODEL 3
REMARK VINA RESULT:      -8.8      0.372      1.324
REMARK  Name = 
REMARK  7 active torsions:
REMARK  status: ('A' for Active; 'I' for Inactive)
REMARK    1  A    between atoms: C_1  and  C_2
REMARK    2  A    between atoms: C_7  and  C_8
REMARK    3  A    between atoms: C_10  and  N_11
REMARK    4  A    between atoms: C_12  and  C_14
REMARK    5  A    between atoms: C_14  and  C_15
REMARK    6  A    between atoms: N_18  and  C_19
REMARK    7  A    between atoms: N_27  and  C_28
REMARK                            x       y       z     vdW  Elec       q    Type
REMARK                         _______ _______ _______ _____ _____    ______ ____
ROOT
ATOM      1  N   UNL     1       2.472   6.442  20.509  0.00  0.00    +0.000 N 
ATOM      2  C   UNL     1       1.809   5.158  20.570  0.00  0.00    +0.000 C 
ATOM      3  O   UNL     1       0.590   5.068  20.501  0.00  0.00    +0.000 OA
ATOM      4  H   UNL     1       3.462   6.472  20.726  0.00  0.00    +0.000 HD
ENDROOT
BRANCH   1   7
ATOM      5  C   UNL     1       0.499   9.456  20.454  0.00  0.00    +0.000 A 
ATOM      6  C   UNL     1       0.915   8.274  21.121  0.00  0.00    +0.000 A 
ATOM      7  C   UNL     1       1.786   7.629  20.272  0.00  0.00    +0.000 A 
ATOM      8  N   UNL     1       1.821   8.417  19.148  0.00  0.00    +0.000 N 
ATOM      9  C   UNL     1       2.619   8.262  17.956  0.00  0.00    +0.000 C 
ATOM     10  N   UNL     1       1.053   9.514  19.237  0.00  0.00    +0.000 NA
BRANCH   5  17
ATOM     11  C   UNL     1      -1.273  11.137  18.674  0.00  0.00    +0.000 C 
ATOM     12  C   UNL     1      -1.191  11.315  20.168  0.00  0.00    +0.000 A 
ATOM     13  C   UNL     1      -1.978  12.317  20.763  0.00  0.00    +0.000 A 
ATOM     14  C   UNL     1      -1.975  12.514  22.143  0.00  0.00    +0.000 A 
ATOM     15  C   UNL     1      -1.181  11.713  22.955  0.00  0.00    +0.000 A 
ATOM     16  C   UNL     1      -0.383  10.723  22.381  0.00  0.00    +0.000 A 
ATOM     17  C   UNL     1      -0.370  10.510  20.988  0.00  0.00    +0.000 A 
ENDBRANCH   5  17
ENDBRANCH   1   7
BRANCH   2  18
ATOM     18  C   UNL     1       2.698   3.970  20.795  0.00  0.00    +0.000 C 
BRANCH  18  19
ATOM     19  C   UNL     1       3.206   3.495  19.490  0.00  0.00    +0.000 A 
ATOM     20  C   UNL     1       2.857   2.316  18.806  0.00  0.00    +0.000 A 
ATOM     21  C   UNL     1       3.616   2.332  17.667  0.00  0.00    +0.000 A 
ATOM     22  N   UNL     1       4.359   3.494  17.681  0.00  0.00    +0.000 N 
ATOM     23  N   UNL     1       4.142   4.195  18.837  0.00  0.00    +0.000 NA
BRANCH  22  24
ATOM     24  C   UNL     1       5.259   3.969  16.688  0.00  0.00    +0.000 A 
ATOM     25  C   UNL     1       5.129   3.572  15.347  0.00  0.00    +0.000 A 
ATOM     26  C   UNL     1       6.023   4.051  14.386  0.00  0.00    +0.000 A 
ATOM     27  C   UNL     1       7.037   4.924  14.762  0.00  0.00    +0.000 A 
ATOM     28  F   UNL     1       7.889   5.381  13.838  0.00  0.00    +0.000 F 
ATOM     29  C   UNL     1       7.177   5.329  16.084  0.00  0.00    +0.000 A 
ATOM     30  C   UNL     1       6.289   4.853  17.050  0.00  0.00    +0.000 A 
ENDBRANCH  22  24
ENDBRANCH  18  19
ENDBRANCH   2  18
TORSDOF 5
ENDMDL
MODEL 4
REMARK VINA RESULT:      -8.7      3.298      8.829
REMARK  Name = 
REMARK  7 active torsions:
REMARK  status: ('A' for Active; 'I' for Inactive)
REMARK    1  A    between atoms: C_1  and  C_2
REMARK    2  A    between atoms: C_7  and  C_8
REMARK    3  A    between atoms: C_10  and  N_11
REMARK    4  A    between atoms: C_12  and  C_14
REMARK    5  A    between atoms: C_14  and  C_15
REMARK    6  A    between atoms: N_18  and  C_19
REMARK    7  A    between atoms: N_27  and  C_28
REMARK                            x       y       z     vdW  Elec       q    Type
REMARK                         _______ _______ _______ _____ _____    ______ ____
ROOT
ATOM      1  N   UNL     1       1.445   8.592  21.414  0.00  0.00    +0.000 N 
ATOM      2  C   UNL     1       0.104   8.630  21.955  0.00  0.00    +0.000 C 
ATOM      3  O   UNL     1      -0.796   7.955  21.472  0.00  0.00    +0.000 OA
ATOM      4  H   UNL     1       2.109   9.280  21.749  0.00  0.00    +0.000 HD
ENDROOT
BRANCH   1   7
ATOM      5  C   UNL     1       2.387   5.928  19.177  0.00  0.00    +0.000 A 
ATOM      6  C   UNL     1       2.094   6.382  20.490  0.00  0.00    +0.000 A 
ATOM      7  C   UNL     1       1.815   7.726  20.389  0.00  0.00    +0.000 A 
ATOM      8  N   UNL     1       1.986   8.017  19.058  0.00  0.00    +0.000 N 
ATOM      9  C   UNL     1       1.765   9.262  18.365  0.00  0.00    +0.000 C 
ATOM     10  N   UNL     1       2.333   6.952  18.316  0.00  0.00    +0.000 NA
BRANCH   5  17
ATOM     11  C   UNL     1       0.756   3.584  20.166  0.00  0.00    +0.000 C 
ATOM     12  C   UNL     1       1.927   3.443  19.229  0.00  0.00    +0.000 A 
ATOM     13  C   UNL     1       2.280   2.152  18.795  0.00  0.00    +0.000 A 
ATOM     14  C   UNL     1       3.333   1.953  17.903  0.00  0.00    +0.000 A 
ATOM     15  C   UNL     1       4.054   3.041  17.430  0.00  0.00    +0.000 A 
ATOM     16  C   UNL     1       3.727   4.328  17.860  0.00  0.00    +0.000 A 
ATOM     17  C   UNL     1       2.670   4.549  18.763  0.00  0.00    +0.000 A 
ENDBRANCH   5  17
ENDBRANCH   1   7
BRANCH   2  18
ATOM     18  C   UNL     1      -0.120   9.593  23.084  0.00  0.00    +0.000 C 
BRANCH  18  19
ATOM     19  C   UNL     1      -0.251  10.959  22.532  0.00  0.00    +0.000 A 
ATOM     20  C   UNL     1      -1.198  11.942  22.876  0.00  0.00    +0.000 A 
ATOM     21  C   UNL     1      -0.906  13.009  22.070  0.00  0.00    +0.000 A 
ATOM     22  N   UNL     1       0.188  12.663  21.305  0.00  0.00    +0.000 N 
ATOM     23  N   UNL     1       0.567  11.372  21.555  0.00  0.00    +0.000 NA
BRANCH  22  24
ATOM     24  C   UNL     1       0.879  13.463  20.354  0.00  0.00    +0.000 A 
ATOM     25  C   UNL     1       2.046  12.994  19.727  0.00  0.00    +0.000 A 
ATOM     26  C   UNL     1       2.708  13.795  18.794  0.00  0.00    +0.000 A 
ATOM     27  C   UNL     1       2.207  15.054  18.487  0.00  0.00    +0.000 A 
ATOM     28  F   UNL     1       2.845  15.817  17.591  0.00  0.00    +0.000 F 
ATOM     29  C   UNL     1       1.052  15.532  19.095  0.00  0.00    +0.000 A 
ATOM     30  C   UNL     1       0.385  14.738  20.030  0.00  0.00    +0.000 A 
ENDBRANCH  22  24
ENDBRANCH  18  19
ENDBRANCH   2  18
TORSDOF 5
ENDMDL
MODEL 5
REMARK VINA RESULT:      -8.6      4.580     10.900
REMARK  Name = 
REMARK  7 active torsions:
REMARK  status: ('A' for Active; 'I' for Inactive)
REMARK    1  A    between atoms: C_1  and  C_2
REMARK    2  A    between atoms: C_7  and  C_8
REMARK    3  A    between atoms: C_10  and  N_11
REMARK    4  A    between atoms: C_12  and  C_14
REMARK    5  A    between atoms: C_14  and  C_15
REMARK    6  A    between atoms: N_18  and  C_19
REMARK    7  A    between atoms: N_27  and  C_28
REMARK                            x       y       z     vdW  Elec       q    Type
REMARK                         _______ _______ _______ _____ _____    ______ ____
ROOT
ATOM      1  N   UNL     1       0.984  10.528  18.776  0.00  0.00    +0.000 N 
ATOM      2  C   UNL     1      -0.431  10.744  18.566  0.00  0.00    +0.000 C 
ATOM      3  O   UNL     1      -1.193   9.810  18.353  0.00  0.00    +0.000 OA
ATOM      4  H   UNL     1       1.588  11.341  18.792  0.00  0.00    +0.000 HD
ENDROOT
BRANCH   1   7
ATOM      5  C   UNL     1       2.601   7.331  18.392  0.00  0.00    +0.000 A 
ATOM      6  C   UNL     1       2.165   8.560  17.832  0.00  0.00    +0.000 A 
ATOM      7  C   UNL     1       1.545   9.256  18.845  0.00  0.00    +0.000 A 
ATOM      8  N   UNL     1       1.603   8.416  19.930  0.00  0.00    +0.000 N 
ATOM      9  C   UNL     1       1.166   8.650  21.284  0.00  0.00    +0.000 C 
ATOM     10  N   UNL     1       2.229   7.255  19.677  0.00  0.00    +0.000 NA
BRANCH   5  17
ATOM     11  C   UNL     1       1.691   4.450  18.302  0.00  0.00    +0.000 C 
ATOM     12  C   UNL     1       2.978   4.933  17.687  0.00  0.00    +0.000 A 
ATOM     13  C   UNL     1       3.799   3.991  17.040  0.00  0.00    +0.000 A 
ATOM     14  C   UNL     1       4.989   4.375  16.422  0.00  0.00    +0.000 A 
ATOM     15  C   UNL     1       5.381   5.708  16.442  0.00  0.00    +0.000 A 
ATOM     16  C   UNL     1       4.585   6.653  17.090  0.00  0.00    +0.000 A 
ATOM     17  C   UNL     1       3.382   6.285  17.723  0.00  0.00    +0.000 A 
ENDBRANCH   5  17
ENDBRANCH   1   7
BRANCH   2  18
ATOM     18  C   UNL     1      -0.880  12.177  18.554  0.00  0.00    +0.000 C 
BRANCH  18  19
ATOM     19  C   UNL     1      -1.287  12.564  19.922  0.00  0.00    +0.000 A 
ATOM     20  C   UNL     1      -0.487  13.125  20.934  0.00  0.00    +0.000 A 
ATOM     21  C   UNL     1      -1.326  13.273  22.005  0.00  0.00    +0.000 A 
ATOM     22  N   UNL     1      -2.575  12.836  21.616  0.00  0.00    +0.000 N 
ATOM     23  N   UNL     1      -2.542  12.349  20.337  0.00  0.00    +0.000 NA
BRANCH  22  24
ATOM     24  C   UNL     1      -3.778  12.838  22.374  0.00  0.00    +0.000 A 
ATOM     25  C   UNL     1      -5.020  13.066  21.757  0.00  0.00    +0.000 A 
ATOM     26  C   UNL     1      -6.191  13.061  22.520  0.00  0.00    +0.000 A 
ATOM     27  C   UNL     1      -6.121  12.827  23.887  0.00  0.00    +0.000 A 
ATOM     28  F   UNL     1      -7.245  12.822  24.613  0.00  0.00    +0.000 F 
ATOM     29  C   UNL     1      -4.901  12.596  24.512  0.00  0.00    +0.000 A 
ATOM     30  C   UNL     1      -3.727  12.601  23.758  0.00  0.00    +0.000 A 
ENDBRANCH  22  24
ENDBRANCH  18  19
ENDBRANCH   2  18
TORSDOF 5
ENDMDL
MODEL 6
REMARK VINA RESULT:      -8.6      3.458      9.015
REMARK  Name = 
REMARK  7 active torsions:
REMARK  status: ('A' for Active; 'I' for Inactive)
REMARK    1  A    between atoms: C_1  and  C_2
REMARK    2  A    between atoms: C_7  and  C_8
REMARK    3  A    between atoms: C_10  and  N_11
REMARK    4  A    between atoms: C_12  and  C_14
REMARK    5  A    between atoms: C_14  and  C_15
REMARK    6  A    between atoms: N_18  and  C_19
REMARK    7  A    between atoms: N_27  and  C_28
REMARK                            x       y       z     vdW  Elec       q    Type
REMARK                         _______ _______ _______ _____ _____    ______ ____
ROOT
ATOM      1  N   UNL     1       1.645   6.664  20.998  0.00  0.00    +0.000 N 
ATOM      2  C   UNL     1       1.487   8.061  20.662  0.00  0.00    +0.000 C 
ATOM      3  O   UNL     1       2.106   8.567  19.735  0.00  0.00    +0.000 OA
ATOM      4  H   UNL     1       1.232   6.337  21.863  0.00  0.00    +0.000 HD
ENDROOT
BRANCH   1   7
ATOM      5  C   UNL     1       3.860   4.906  18.764  0.00  0.00    +0.000 A 
ATOM      6  C   UNL     1       3.256   6.117  19.191  0.00  0.00    +0.000 A 
ATOM      7  C   UNL     1       2.425   5.795  20.241  0.00  0.00    +0.000 A 
ATOM      8  N   UNL     1       2.539   4.432  20.367  0.00  0.00    +0.000 N 
ATOM      9  C   UNL     1       1.941   3.559  21.347  0.00  0.00    +0.000 C 
ATOM     10  N   UNL     1       3.391   3.881  19.488  0.00  0.00    +0.000 NA
BRANCH   5  17
ATOM     11  C   UNL     1       6.794   5.394  19.301  0.00  0.00    +0.000 C 
ATOM     12  C   UNL     1       6.254   4.988  17.955  0.00  0.00    +0.000 A 
ATOM     13  C   UNL     1       7.163   4.832  16.894  0.00  0.00    +0.000 A 
ATOM     14  C   UNL     1       6.735   4.427  15.630  0.00  0.00    +0.000 A 
ATOM     15  C   UNL     1       5.388   4.173  15.403  0.00  0.00    +0.000 A 
ATOM     16  C   UNL     1       4.470   4.337  16.441  0.00  0.00    +0.000 A 
ATOM     17  C   UNL     1       4.882   4.748  17.724  0.00  0.00    +0.000 A 
ENDBRANCH   5  17
ENDBRANCH   1   7
BRANCH   2  18
ATOM     18  C   UNL     1       0.580   8.853  21.559  0.00  0.00    +0.000 C 
BRANCH  18  19
ATOM     19  C   UNL     1      -0.151   9.850  20.747  0.00  0.00    +0.000 A 
ATOM     20  C   UNL     1      -0.237  11.238  20.957  0.00  0.00    +0.000 A 
ATOM     21  C   UNL     1      -1.042  11.697  19.950  0.00  0.00    +0.000 A 
ATOM     22  N   UNL     1      -1.388  10.613  19.170  0.00  0.00    +0.000 N 
ATOM     23  N   UNL     1      -0.875   9.456  19.692  0.00  0.00    +0.000 NA
BRANCH  22  24
ATOM     24  C   UNL     1      -2.175  10.603  17.986  0.00  0.00    +0.000 A 
ATOM     25  C   UNL     1      -3.359  11.355  17.900  0.00  0.00    +0.000 A 
ATOM     26  C   UNL     1      -4.117  11.335  16.726  0.00  0.00    +0.000 A 
ATOM     27  C   UNL     1      -3.693  10.571  15.645  0.00  0.00    +0.000 A 
ATOM     28  F   UNL     1      -4.421  10.555  14.524  0.00  0.00    +0.000 F 
ATOM     29  C   UNL     1      -2.522   9.824  15.713  0.00  0.00    +0.000 A 
ATOM     30  C   UNL     1      -1.760   9.839  16.883  0.00  0.00    +0.000 A 
ENDBRANCH  22  24
ENDBRANCH  18  19
ENDBRANCH   2  18
TORSDOF 5
ENDMDL
MODEL 7
REMARK VINA RESULT:      -8.5      4.774     10.893
REMARK  Name = 
REMARK  7 active torsions:
REMARK  status: ('A' for Active; 'I' for Inactive)
REMARK    1  A    between atoms: C_1  and  C_2
REMARK    2  A    between atoms: C_7  and  C_8
REMARK    3  A    between atoms: C_10  and  N_11
REMARK    4  A    between atoms: C_12  and  C_14
REMARK    5  A    between atoms: C_14  and  C_15
REMARK    6  A    between atoms: N_18  and  C_19
REMARK    7  A    between atoms: N_27  and  C_28
REMARK                            x       y       z     vdW  Elec       q    Type
REMARK                         _______ _______ _______ _____ _____    ______ ____
ROOT
ATOM      1  N   UNL     1       0.857  10.414  18.907  0.00  0.00    +0.000 N 
ATOM      2  C   UNL     1      -0.411  10.626  18.246  0.00  0.00    +0.000 C 
ATOM      3  O   UNL     1      -0.971   9.723  17.638  0.00  0.00    +0.000 OA
ATOM      4  H   UNL     1       1.347  11.227  19.260  0.00  0.00    +0.000 HD
ENDROOT
BRANCH   1   7
ATOM      5  C   UNL     1       2.587   7.277  18.516  0.00  0.00    +0.000 A 
ATOM      6  C   UNL     1       2.097   8.486  17.956  0.00  0.00    +0.000 A 
ATOM      7  C   UNL     1       1.467   9.165  18.975  0.00  0.00    +0.000 A 
ATOM      8  N   UNL     1       1.574   8.334  20.063  0.00  0.00    +0.000 N 
ATOM      9  C   UNL     1       1.150   8.561  21.423  0.00  0.00    +0.000 C 
ATOM     10  N   UNL     1       2.239   7.196  19.807  0.00  0.00    +0.000 NA
BRANCH   5  17
ATOM     11  C   UNL     1       1.606   4.447  18.118  0.00  0.00    +0.000 C 
ATOM     12  C   UNL     1       2.959   4.927  17.663  0.00  0.00    +0.000 A 
ATOM     13  C   UNL     1       3.809   4.008  17.021  0.00  0.00    +0.000 A 
ATOM     14  C   UNL     1       5.062   4.394  16.545  0.00  0.00    +0.000 A 
ATOM     15  C   UNL     1       5.489   5.706  16.705  0.00  0.00    +0.000 A 
ATOM     16  C   UNL     1       4.664   6.628  17.351  0.00  0.00    +0.000 A 
ATOM     17  C   UNL     1       3.397   6.257  17.841  0.00  0.00    +0.000 A 
ENDBRANCH   5  17
ENDBRANCH   1   7
BRANCH   2  18
ATOM     18  C   UNL     1      -0.950  12.026  18.296  0.00  0.00    +0.000 C 
BRANCH  18  19
ATOM     19  C   UNL     1      -2.381  11.978  18.670  0.00  0.00    +0.000 A 
ATOM     20  C   UNL     1      -3.468  11.579  17.871  0.00  0.00    +0.000 A 
ATOM     21  C   UNL     1      -4.568  11.738  18.669  0.00  0.00    +0.000 A 
ATOM     22  N   UNL     1      -4.128  12.190  19.896  0.00  0.00    +0.000 N 
ATOM     23  N   UNL     1      -2.773  12.387  19.883  0.00  0.00    +0.000 NA
BRANCH  22  24
ATOM     24  C   UNL     1      -4.901  12.457  21.059  0.00  0.00    +0.000 A 
ATOM     25  C   UNL     1      -6.304  12.382  21.026  0.00  0.00    +0.000 A 
ATOM     26  C   UNL     1      -7.045  12.645  22.180  0.00  0.00    +0.000 A 
ATOM     27  C   UNL     1      -6.390  12.977  23.360  0.00  0.00    +0.000 A 
ATOM     28  F   UNL     1      -7.105  13.227  24.463  0.00  0.00    +0.000 F 
ATOM     29  C   UNL     1      -5.003  13.052  23.410  0.00  0.00    +0.000 A 
ATOM     30  C   UNL     1      -4.255  12.792  22.261  0.00  0.00    +0.000 A 
ENDBRANCH  22  24
ENDBRANCH  18  19
ENDBRANCH   2  18
TORSDOF 5
ENDMDL
MODEL 8
REMARK VINA RESULT:      -8.5      3.542      9.118
REMARK  Name = 
REMARK  7 active torsions:
REMARK  status: ('A' for Active; 'I' for Inactive)
REMARK    1  A    between atoms: C_1  and  C_2
REMARK    2  A    between atoms: C_7  and  C_8
REMARK    3  A    between atoms: C_10  and  N_11
REMARK    4  A    between atoms: C_12  and  C_14
REMARK    5  A    between atoms: C_14  and  C_15
REMARK    6  A    between atoms: N_18  and  C_19
REMARK    7  A    between atoms: N_27  and  C_28
REMARK                            x       y       z     vdW  Elec       q    Type
REMARK                         _______ _______ _______ _____ _____    ______ ____
ROOT
ATOM      1  N   UNL     1       1.284   8.802  21.431  0.00  0.00    +0.000 N 
ATOM      2  C   UNL     1      -0.053   8.746  21.978  0.00  0.00    +0.000 C 
ATOM      3  O   UNL     1      -0.911   8.021  21.489  0.00  0.00    +0.000 OA
ATOM      4  H   UNL     1       1.904   9.528  21.773  0.00  0.00    +0.000 HD
ENDROOT
BRANCH   1   7
ATOM      5  C   UNL     1       2.360   6.233  19.145  0.00  0.00    +0.000 A 
ATOM      6  C   UNL     1       2.023   6.640  20.462  0.00  0.00    +0.000 A 
ATOM      7  C   UNL     1       1.704   7.978  20.392  0.00  0.00    +0.000 A 
ATOM      8  N   UNL     1       1.897   8.311  19.073  0.00  0.00    +0.000 N 
ATOM      9  C   UNL     1       1.654   9.568  18.410  0.00  0.00    +0.000 C 
ATOM     10  N   UNL     1       2.294   7.279  18.311  0.00  0.00    +0.000 NA
BRANCH   5  17
ATOM     11  C   UNL     1       5.217   5.291  18.857  0.00  0.00    +0.000 C 
ATOM     12  C   UNL     1       4.024   4.427  18.545  0.00  0.00    +0.000 A 
ATOM     13  C   UNL     1       4.253   3.114  18.094  0.00  0.00    +0.000 A 
ATOM     14  C   UNL     1       3.194   2.250  17.817  0.00  0.00    +0.000 A 
ATOM     15  C   UNL     1       1.885   2.684  17.985  0.00  0.00    +0.000 A 
ATOM     16  C   UNL     1       1.638   3.987  18.419  0.00  0.00    +0.000 A 
ATOM     17  C   UNL     1       2.694   4.876  18.700  0.00  0.00    +0.000 A 
ENDBRANCH   5  17
ENDBRANCH   1   7
BRANCH   2  18
ATOM     18  C   UNL     1      -0.334   9.676  23.122  0.00  0.00    +0.000 C 
BRANCH  18  19
ATOM     19  C   UNL     1      -0.546  11.040  22.592  0.00  0.00    +0.000 A 
ATOM     20  C   UNL     1      -1.696  11.843  22.711  0.00  0.00    +0.000 A 
ATOM     21  C   UNL     1      -1.393  12.993  22.034  0.00  0.00    +0.000 A 
ATOM     22  N   UNL     1      -0.103  12.869  21.563  0.00  0.00    +0.000 N 
ATOM     23  N   UNL     1       0.408  11.636  21.867  0.00  0.00    +0.000 NA
BRANCH  22  24
ATOM     24  C   UNL     1       0.660  13.827  20.841  0.00  0.00    +0.000 A 
ATOM     25  C   UNL     1       0.885  13.679  19.462  0.00  0.00    +0.000 A 
ATOM     26  C   UNL     1       1.636  14.633  18.769  0.00  0.00    +0.000 A 
ATOM     27  C   UNL     1       2.154  15.728  19.449  0.00  0.00    +0.000 A 
ATOM     28  F   UNL     1       2.871  16.639  18.782  0.00  0.00    +0.000 F 
ATOM     29  C   UNL     1       1.938  15.891  20.812  0.00  0.00    +0.000 A 
ATOM     30  C   UNL     1       1.190  14.942  21.511  0.00  0.00    +0.000 A 
ENDBRANCH  22  24
ENDBRANCH  18  19
ENDBRANCH   2  18
TORSDOF 5
ENDMDL
MODEL 9
REMARK VINA RESULT:      -8.4      1.122      1.767
REMARK  Name = 
REMARK  7 active torsions:
REMARK  status: ('A' for Active; 'I' for Inactive)
REMARK    1  A    between atoms: C_1  and  C_2
REMARK    2  A    between atoms: C_7  and  C_8
REMARK    3  A    between atoms: C_10  and  N_11
REMARK    4  A    between atoms: C_12  and  C_14
REMARK    5  A    between atoms: C_14  and  C_15
REMARK    6  A    between atoms: N_18  and  C_19
REMARK    7  A    between atoms: N_27  and  C_28
REMARK                            x       y       z     vdW  Elec       q    Type
REMARK                         _______ _______ _______ _____ _____    ______ ____
ROOT
ATOM      1  N   UNL     1       2.760   6.552  20.176  0.00  0.00    +0.000 N 
ATOM      2  C   UNL     1       2.555   5.370  19.369  0.00  0.00    +0.000 C 
ATOM      3  O   UNL     1       1.612   5.285  18.593  0.00  0.00    +0.000 OA
ATOM      4  H   UNL     1       3.460   6.508  20.908  0.00  0.00    +0.000 HD
ENDROOT
BRANCH   1   7
ATOM      5  C   UNL     1       0.559   9.394  20.425  0.00  0.00    +0.000 A 
ATOM      6  C   UNL     1       1.115   8.219  20.995  0.00  0.00    +0.000 A 
ATOM      7  C   UNL     1       1.968   7.690  20.053  0.00  0.00    +0.000 A 
ATOM      8  N   UNL     1       1.859   8.532  18.974  0.00  0.00    +0.000 N 
ATOM      9  C   UNL     1       2.575   8.502  17.723  0.00  0.00    +0.000 C 
ATOM     10  N   UNL     1       1.016   9.558  19.177  0.00  0.00    +0.000 NA
BRANCH   5  17
ATOM     11  C   UNL     1       0.163   9.451  23.421  0.00  0.00    +0.000 C 
ATOM     12  C   UNL     1      -0.555  10.374  22.471  0.00  0.00    +0.000 A 
ATOM     13  C   UNL     1      -1.459  11.309  23.009  0.00  0.00    +0.000 A 
ATOM     14  C   UNL     1      -2.134  12.214  22.191  0.00  0.00    +0.000 A 
ATOM     15  C   UNL     1      -1.919  12.200  20.818  0.00  0.00    +0.000 A 
ATOM     16  C   UNL     1      -1.036  11.271  20.266  0.00  0.00    +0.000 A 
ATOM     17  C   UNL     1      -0.348  10.346  21.075  0.00  0.00    +0.000 A 
ENDBRANCH   5  17
ENDBRANCH   1   7
BRANCH   2  18
ATOM     18  C   UNL     1       3.521   4.244  19.598  0.00  0.00    +0.000 C 
BRANCH  18  19
ATOM     19  C   UNL     1       4.716   4.455  18.753  0.00  0.00    +0.000 A 
ATOM     20  C   UNL     1       6.011   4.822  19.166  0.00  0.00    +0.000 A 
ATOM     21  C   UNL     1       6.737   4.908  18.009  0.00  0.00    +0.000 A 
ATOM     22  N   UNL     1       5.897   4.577  16.967  0.00  0.00    +0.000 N 
ATOM     23  N   UNL     1       4.627   4.343  17.422  0.00  0.00    +0.000 NA
BRANCH  22  24
ATOM     24  C   UNL     1       6.214   4.483  15.584  0.00  0.00    +0.000 A 
ATOM     25  C   UNL     1       7.362   5.103  15.063  0.00  0.00    +0.000 A 
ATOM     26  C   UNL     1       7.657   4.998  13.701  0.00  0.00    +0.000 A 
ATOM     27  C   UNL     1       6.813   4.275  12.867  0.00  0.00    +0.000 A 
ATOM     28  F   UNL     1       7.101   4.176  11.564  0.00  0.00    +0.000 F 
ATOM     29  C   UNL     1       5.675   3.653  13.367  0.00  0.00    +0.000 A 
ATOM     30  C   UNL     1       5.373   3.755  14.726  0.00  0.00    +0.000 A 
ENDBRANCH  22  24
ENDBRANCH  18  19
ENDBRANCH   2  18
TORSDOF 5
ENDMDL
