MODEL 1
REMARK VINA RESULT:      -8.7      0.000      0.000
REMARK  Name = 
REMARK  7 active torsions:
REMARK  status: ('A' for Active; 'I' for Inactive)
REMARK    1  A    between atoms: C_1  and  C_2
REMARK    2  A    between atoms: C_2  and  C_3
REMARK    3  A    between atoms: C_2  and  C_4
REMARK    4  A    between atoms: C_2  and  C_10
REMARK    5  A    between atoms: C_13  and  C_14
REMARK    6  A    between atoms: C_14  and  N_15
REMARK    7  A    between atoms: C_18  and  C_19
REMARK                            x       y       z     vdW  Elec       q    Type
REMARK                         _______ _______ _______ _____ _____    ______ ____
ROOT
ATOM      1  C   UNL     1       4.294   5.625  18.857  0.00  0.00    +0.000 A 
ATOM      2  N   UNL     1       4.939   5.167  19.943  0.00  0.00    +0.000 NA
ATOM      3  O   UNL     1       6.192   4.803  19.454  0.00  0.00    +0.000 OA
ATOM      4  C   UNL     1       6.188   5.093  18.122  0.00  0.00    +0.000 A 
ATOM      5  N   UNL     1       5.072   5.655  17.719  0.00  0.00    +0.000 NA
ENDROOT
BRANCH   1   7
ATOM      6  C   UNL     1       2.536   6.761  17.518  0.00  0.00    +0.000 C 
ATOM      7  C   UNL     1       2.850   6.083  18.871  0.00  0.00    +0.000 C 
ATOM      8  C   UNL     1       2.560   7.122  19.978  0.00  0.00    +0.000 C 
BRANCH   7   9
ATOM      9  C   UNL     1       2.042   4.797  19.141  0.00  0.00    +0.000 A 
ATOM     10  C   UNL     1       1.682   3.905  18.113  0.00  0.00    +0.000 A 
ATOM     11  C   UNL     1       0.990   2.721  18.383  0.00  0.00    +0.000 A 
ATOM     12  C   UNL     1       0.632   2.401  19.688  0.00  0.00    +0.000 A 
ATOM     13  C   UNL     1       0.950   3.274  20.723  0.00  0.00    +0.000 A 
ATOM     14  C   UNL     1       1.639   4.459  20.453  0.00  0.00    +0.000 A 
ENDBRANCH   7   9
ENDBRANCH   1   7
BRANCH   4  15
ATOM     15  C   UNL     1       7.403   4.750  17.364  0.00  0.00    +0.000 C 
BRANCH  15  16
ATOM     16  N   UNL     1       7.099   4.756  15.951  0.00  0.00    +0.000 N 
ATOM     17  N   UNL     1       7.634   5.672  15.126  0.00  0.00    +0.000 NA
ATOM     18  N   UNL     1       7.221   5.321  13.920  0.00  0.00    +0.000 NA
ATOM     19  C   UNL     1       6.478   4.170  14.064  0.00  0.00    +0.000 A 
ATOM     20  N   UNL     1       6.398   3.769  15.348  0.00  0.00    +0.000 NA
BRANCH  19  21
ATOM     21  C   UNL     1       5.893   3.484  12.918  0.00  0.00    +0.000 A 
ATOM     22  C   UNL     1       4.628   3.867  12.445  0.00  0.00    +0.000 A 
ATOM     23  C   UNL     1       4.053   3.236  11.340  0.00  0.00    +0.000 A 
ATOM     24  C   UNL     1       4.737   2.210  10.693  0.00  0.00    +0.000 A 
ATOM     25  C   UNL     1       5.992   1.813  11.152  0.00  0.00    +0.000 A 
ATOM     26  C   UNL     1       6.569   2.445  12.259  0.00  0.00    +0.000 A 
ENDBRANCH  19  21
ENDBRANCH  15  16
ENDBRANCH   4  15
TORSDOF 5
ENDMDL
MODEL 2
REMARK VINA RESULT:      -8.7      3.767      6.544
REMARK  Name = 
REMARK  7 active torsions:
REMARK  status: ('A' for Active; 'I' for Inactive)
REMARK    1  A    between atoms: C_1  and  C_2
REMARK    2  A    between atoms: C_2  and  C_3
REMARK    3  A    between atoms: C_2  and  C_4
REMARK    4  A    between atoms: C_2  and  C_10
REMARK    5  A    between atoms: C_13  and  C_14
REMARK    6  A    between atoms: C_14  and  N_15
REMARK    7  A    between atoms: C_18  and  C_19
REMARK                            x       y       z     vdW  Elec       q    Type
REMARK                         _______ _______ _______ _____ _____    ______ ____
ROOT
ATOM      1  C   UNL     1       4.111   4.364  18.186  0.00  0.00    +0.000 A 
ATOM      2  N   UNL     1       4.495   3.845  17.008  0.00  0.00    +0.000 NA
ATOM      3  O   UNL     1       5.866   4.092  16.971  0.00  0.00    +0.000 OA
ATOM      4  C   UNL     1       6.179   4.720  18.139  0.00  0.00    +0.000 A 
ATOM      5  N   UNL     1       5.151   4.855  18.946  0.00  0.00    +0.000 NA
ENDROOT
BRANCH   1   7
ATOM      6  C   UNL     1       2.549   3.532  19.931  0.00  0.00    +0.000 C 
ATOM      7  C   UNL     1       2.670   4.397  18.656  0.00  0.00    +0.000 C 
ATOM      8  C   UNL     1       1.685   3.816  17.617  0.00  0.00    +0.000 C 
BRANCH   7   9
ATOM      9  C   UNL     1       2.372   5.896  18.873  0.00  0.00    +0.000 A 
ATOM     10  C   UNL     1       2.080   6.427  20.144  0.00  0.00    +0.000 A 
ATOM     11  C   UNL     1       1.858   7.796  20.328  0.00  0.00    +0.000 A 
ATOM     12  C   UNL     1       1.916   8.667  19.245  0.00  0.00    +0.000 A 
ATOM     13  C   UNL     1       2.177   8.169  17.974  0.00  0.00    +0.000 A 
ATOM     14  C   UNL     1       2.395   6.801  17.788  0.00  0.00    +0.000 A 
ENDBRANCH   7   9
ENDBRANCH   1   7
BRANCH   4  15
ATOM     15  C   UNL     1       7.582   5.131  18.318  0.00  0.00    +0.000 C 
BRANCH  15  16
ATOM     16  N   UNL     1       7.713   6.533  17.990  0.00  0.00    +0.000 N 
ATOM     17  N   UNL     1       7.000   7.087  16.996  0.00  0.00    +0.000 NA
ATOM     18  N   UNL     1       7.299   8.374  17.045  0.00  0.00    +0.000 NA
ATOM     19  C   UNL     1       8.158   8.552  18.106  0.00  0.00    +0.000 A 
ATOM     20  N   UNL     1       8.427   7.397  18.747  0.00  0.00    +0.000 NA
BRANCH  19  21
ATOM     21  C   UNL     1       8.664   9.870  18.474  0.00  0.00    +0.000 A 
ATOM     22  C   UNL     1       8.475  10.957  17.606  0.00  0.00    +0.000 A 
ATOM     23  C   UNL     1       8.936  12.232  17.942  0.00  0.00    +0.000 A 
ATOM     24  C   UNL     1       9.595  12.436  19.151  0.00  0.00    +0.000 A 
ATOM     25  C   UNL     1       9.797  11.366  20.022  0.00  0.00    +0.000 A 
ATOM     26  C   UNL     1       9.334  10.089  19.687  0.00  0.00    +0.000 A 
ENDBRANCH  19  21
ENDBRANCH  15  16
ENDBRANCH   4  15
TORSDOF 5
ENDMDL
MODEL 3
REMARK VINA RESULT:      -8.7      3.818      6.521
REMARK  Name = 
REMARK  7 active torsions:
REMARK  status: ('A' for Active; 'I' for Inactive)
REMARK    1  A    between atoms: C_1  and  C_2
REMARK    2  A    between atoms: C_2  and  C_3
REMARK    3  A    between atoms: C_2  and  C_4
REMARK    4  A    between atoms: C_2  and  C_10
REMARK    5  A    between atoms: C_13  and  C_14
REMARK    6  A    between atoms: C_14  and  N_15
REMARK    7  A    between atoms: C_18  and  C_19
REMARK                            x       y       z     vdW  Elec       q    Type
REMARK                         _______ _______ _______ _____ _____    ______ ____
ROOT
ATOM      1  C   UNL     1       4.004   4.659  18.729  0.00  0.00    +0.000 A 
ATOM      2  N   UNL     1       4.204   3.950  17.606  0.00  0.00    +0.000 NA
ATOM      3  O   UNL     1       5.573   4.075  17.378  0.00  0.00    +0.000 OA
ATOM      4  C   UNL     1       6.069   4.833  18.396  0.00  0.00    +0.000 A 
ATOM      5  N   UNL     1       5.160   5.164  19.285  0.00  0.00    +0.000 NA
ENDROOT
BRANCH   1   7
ATOM      6  C   UNL     1       2.685   4.405  20.820  0.00  0.00    +0.000 C 
ATOM      7  C   UNL     1       2.638   4.877  19.350  0.00  0.00    +0.000 C 
ATOM      8  C   UNL     1       1.524   4.067  18.648  0.00  0.00    +0.000 C 
BRANCH   7   9
ATOM      9  C   UNL     1       2.373   6.386  19.172  0.00  0.00    +0.000 A 
ATOM     10  C   UNL     1       2.537   7.038  17.935  0.00  0.00    +0.000 A 
ATOM     11  C   UNL     1       2.249   8.398  17.783  0.00  0.00    +0.000 A 
ATOM     12  C   UNL     1       1.795   9.143  18.866  0.00  0.00    +0.000 A 
ATOM     13  C   UNL     1       1.647   8.534  20.107  0.00  0.00    +0.000 A 
ATOM     14  C   UNL     1       1.939   7.176  20.261  0.00  0.00    +0.000 A 
ENDBRANCH   7   9
ENDBRANCH   1   7
BRANCH   4  15
ATOM     15  C   UNL     1       7.507   5.148  18.352  0.00  0.00    +0.000 C 
BRANCH  15  16
ATOM     16  N   UNL     1       7.679   6.542  18.011  0.00  0.00    +0.000 N 
ATOM     17  N   UNL     1       7.023   7.095  16.978  0.00  0.00    +0.000 NA
ATOM     18  N   UNL     1       7.343   8.376  17.022  0.00  0.00    +0.000 NA
ATOM     19  C   UNL     1       8.156   8.554  18.120  0.00  0.00    +0.000 A 
ATOM     20  N   UNL     1       8.374   7.404  18.788  0.00  0.00    +0.000 NA
BRANCH  19  21
ATOM     21  C   UNL     1       8.669   9.868  18.492  0.00  0.00    +0.000 A 
ATOM     22  C   UNL     1       8.468  10.964  17.639  0.00  0.00    +0.000 A 
ATOM     23  C   UNL     1       8.935  12.235  17.980  0.00  0.00    +0.000 A 
ATOM     24  C   UNL     1       9.614  12.426  19.180  0.00  0.00    +0.000 A 
ATOM     25  C   UNL     1       9.828  11.348  20.038  0.00  0.00    +0.000 A 
ATOM     26  C   UNL     1       9.359  10.074  19.697  0.00  0.00    +0.000 A 
ENDBRANCH  19  21
ENDBRANCH  15  16
ENDBRANCH   4  15
TORSDOF 5
ENDMDL
MODEL 4
REMARK VINA RESULT:      -8.5      0.853      2.792
REMARK  Name = 
REMARK  7 active torsions:
REMARK  status: ('A' for Active; 'I' for Inactive)
REMARK    1  A    between atoms: C_1  and  C_2
REMARK    2  A    between atoms: C_2  and  C_3
REMARK    3  A    between atoms: C_2  and  C_4
REMARK    4  A    between atoms: C_2  and  C_10
REMARK    5  A    between atoms: C_13  and  C_14
REMARK    6  A    between atoms: C_14  and  N_15
REMARK    7  A    between atoms: C_18  and  C_19
REMARK                            x       y       z     vdW  Elec       q    Type
REMARK                         _______ _______ _______ _____ _____    ______ ____
ROOT
ATOM      1  C   UNL     1       4.334   4.980  18.883  0.00  0.00    +0.000 A 
ATOM      2  N   UNL     1       5.152   5.312  19.895  0.00  0.00    +0.000 NA
ATOM      3  O   UNL     1       6.426   5.195  19.342  0.00  0.00    +0.000 OA
ATOM      4  C   UNL     1       6.252   4.821  18.043  0.00  0.00    +0.000 A 
ATOM      5  N   UNL     1       4.989   4.736  17.694  0.00  0.00    +0.000 NA
ENDROOT
BRANCH   1   7
ATOM      6  C   UNL     1       2.493   4.031  20.255  0.00  0.00    +0.000 C 
ATOM      7  C   UNL     1       2.827   4.894  19.017  0.00  0.00    +0.000 C 
ATOM      8  C   UNL     1       2.153   4.222  17.800  0.00  0.00    +0.000 C 
BRANCH   7   9
ATOM      9  C   UNL     1       2.367   6.363  19.121  0.00  0.00    +0.000 A 
ATOM     10  C   UNL     1       1.866   6.911  20.317  0.00  0.00    +0.000 A 
ATOM     11  C   UNL     1       1.497   8.257  20.404  0.00  0.00    +0.000 A 
ATOM     12  C   UNL     1       1.612   9.087  19.295  0.00  0.00    +0.000 A 
ATOM     13  C   UNL     1       2.078   8.570  18.092  0.00  0.00    +0.000 A 
ATOM     14  C   UNL     1       2.443   7.224  18.003  0.00  0.00    +0.000 A 
ENDBRANCH   7   9
ENDBRANCH   1   7
BRANCH   4  15
ATOM     15  C   UNL     1       7.471   4.586  17.251  0.00  0.00    +0.000 C 
BRANCH  15  16
ATOM     16  N   UNL     1       7.140   4.634  15.844  0.00  0.00    +0.000 N 
ATOM     17  N   UNL     1       7.660   5.573  15.037  0.00  0.00    +0.000 NA
ATOM     18  N   UNL     1       7.224   5.259  13.830  0.00  0.00    +0.000 NA
ATOM     19  C   UNL     1       6.483   4.105  13.953  0.00  0.00    +0.000 A 
ATOM     20  N   UNL     1       6.427   3.665  15.226  0.00  0.00    +0.000 NA
BRANCH  19  21
ATOM     21  C   UNL     1       5.876   3.452  12.798  0.00  0.00    +0.000 A 
ATOM     22  C   UNL     1       6.561   2.417  12.142  0.00  0.00    +0.000 A 
ATOM     23  C   UNL     1       5.994   1.765  11.044  0.00  0.00    +0.000 A 
ATOM     24  C   UNL     1       4.735   2.143  10.586  0.00  0.00    +0.000 A 
ATOM     25  C   UNL     1       4.044   3.173  11.222  0.00  0.00    +0.000 A 
ATOM     26  C   UNL     1       4.610   3.826  12.323  0.00  0.00    +0.000 A 
ENDBRANCH  19  21
ENDBRANCH  15  16
ENDBRANCH   4  15
TORSDOF 5
ENDMDL
MODEL 5
REMARK VINA RESULT:      -8.4      1.461      3.121
REMARK  Name = 
REMARK  7 active torsions:
REMARK  status: ('A' for Active; 'I' for Inactive)
REMARK    1  A    between atoms: C_1  and  C_2
REMARK    2  A    between atoms: C_2  and  C_3
REMARK    3  A    between atoms: C_2  and  C_4
REMARK    4  A    between atoms: C_2  and  C_10
REMARK    5  A    between atoms: C_13  and  C_14
REMARK    6  A    between atoms: C_14  and  N_15
REMARK    7  A    between atoms: C_18  and  C_19
REMARK                            x       y       z     vdW  Elec       q    Type
REMARK                         _______ _______ _______ _____ _____    ______ ____
ROOT
ATOM      1  C   UNL     1       3.466   4.120  19.602  0.00  0.00    +0.000 A 
ATOM      2  N   UNL     1       3.995   2.901  19.792  0.00  0.00    +0.000 NA
ATOM      3  O   UNL     1       5.361   3.100  19.603  0.00  0.00    +0.000 OA
ATOM      4  C   UNL     1       5.526   4.426  19.334  0.00  0.00    +0.000 A 
ATOM      5  N   UNL     1       4.404   5.107  19.383  0.00  0.00    +0.000 NA
ENDROOT
BRANCH   1   7
ATOM      6  C   UNL     1       1.406   3.858  20.966  0.00  0.00    +0.000 C 
ATOM      7  C   UNL     1       1.977   4.403  19.638  0.00  0.00    +0.000 C 
ATOM      8  C   UNL     1       1.206   3.709  18.492  0.00  0.00    +0.000 C 
BRANCH   7   9
ATOM      9  C   UNL     1       1.874   5.935  19.481  0.00  0.00    +0.000 A 
ATOM     10  C   UNL     1       1.571   6.782  20.563  0.00  0.00    +0.000 A 
ATOM     11  C   UNL     1       1.527   8.171  20.411  0.00  0.00    +0.000 A 
ATOM     12  C   UNL     1       1.777   8.749  19.171  0.00  0.00    +0.000 A 
ATOM     13  C   UNL     1       2.052   7.937  18.077  0.00  0.00    +0.000 A 
ATOM     14  C   UNL     1       2.093   6.548  18.227  0.00  0.00    +0.000 A 
ENDBRANCH   7   9
ENDBRANCH   1   7
BRANCH   4  15
ATOM     15  C   UNL     1       6.897   4.881  19.048  0.00  0.00    +0.000 C 
BRANCH  15  16
ATOM     16  N   UNL     1       7.003   5.221  17.647  0.00  0.00    +0.000 N 
ATOM     17  N   UNL     1       7.607   6.353  17.248  0.00  0.00    +0.000 NA
ATOM     18  N   UNL     1       7.604   6.288  15.928  0.00  0.00    +0.000 NA
ATOM     19  C   UNL     1       7.027   5.087  15.581  0.00  0.00    +0.000 A 
ATOM     20  N   UNL     1       6.651   4.369  16.658  0.00  0.00    +0.000 NA
BRANCH  19  21
ATOM     21  C   UNL     1       6.893   4.670  14.190  0.00  0.00    +0.000 A 
ATOM     22  C   UNL     1       5.881   3.768  13.825  0.00  0.00    +0.000 A 
ATOM     23  C   UNL     1       5.722   3.366  12.497  0.00  0.00    +0.000 A 
ATOM     24  C   UNL     1       6.576   3.860  11.515  0.00  0.00    +0.000 A 
ATOM     25  C   UNL     1       7.591   4.752  11.860  0.00  0.00    +0.000 A 
ATOM     26  C   UNL     1       7.750   5.156  13.190  0.00  0.00    +0.000 A 
ENDBRANCH  19  21
ENDBRANCH  15  16
ENDBRANCH   4  15
TORSDOF 5
ENDMDL
MODEL 6
REMARK VINA RESULT:      -8.4      1.443      2.965
REMARK  Name = 
REMARK  7 active torsions:
REMARK  status: ('A' for Active; 'I' for Inactive)
REMARK    1  A    between atoms: C_1  and  C_2
REMARK    2  A    between atoms: C_2  and  C_3
REMARK    3  A    between atoms: C_2  and  C_4
REMARK    4  A    between atoms: C_2  and  C_10
REMARK    5  A    between atoms: C_13  and  C_14
REMARK    6  A    between atoms: C_14  and  N_15
REMARK    7  A    between atoms: C_18  and  C_19
REMARK                            x       y       z     vdW  Elec       q    Type
REMARK                         _______ _______ _______ _____ _____    ______ ____
ROOT
ATOM      1  C   UNL     1       3.529   4.473  19.542  0.00  0.00    +0.000 A 
ATOM      2  N   UNL     1       4.096   3.313  19.913  0.00  0.00    +0.000 NA
ATOM      3  O   UNL     1       5.458   3.535  19.719  0.00  0.00    +0.000 OA
ATOM      4  C   UNL     1       5.582   4.814  19.267  0.00  0.00    +0.000 A 
ATOM      5  N   UNL     1       4.437   5.453  19.200  0.00  0.00    +0.000 NA
ENDROOT
BRANCH   1   7
ATOM      6  C   UNL     1       1.402   3.991  20.732  0.00  0.00    +0.000 C 
ATOM      7  C   UNL     1       2.031   4.702  19.513  0.00  0.00    +0.000 C 
ATOM      8  C   UNL     1       1.358   4.119  18.250  0.00  0.00    +0.000 C 
BRANCH   7   9
ATOM      9  C   UNL     1       1.877   6.237  19.521  0.00  0.00    +0.000 A 
ATOM     10  C   UNL     1       2.070   7.018  18.366  0.00  0.00    +0.000 A 
ATOM     11  C   UNL     1       1.882   8.403  18.382  0.00  0.00    +0.000 A 
ATOM     12  C   UNL     1       1.503   9.045  19.556  0.00  0.00    +0.000 A 
ATOM     13  C   UNL     1       1.330   8.305  20.721  0.00  0.00    +0.000 A 
ATOM     14  C   UNL     1       1.522   6.921  20.706  0.00  0.00    +0.000 A 
ENDBRANCH   7   9
ENDBRANCH   1   7
BRANCH   4  15
ATOM     15  C   UNL     1       6.942   5.275  18.941  0.00  0.00    +0.000 C 
BRANCH  15  16
ATOM     16  N   UNL     1       7.040   5.504  17.517  0.00  0.00    +0.000 N 
ATOM     17  N   UNL     1       7.648   6.596  17.026  0.00  0.00    +0.000 NA
ATOM     18  N   UNL     1       7.633   6.428  15.714  0.00  0.00    +0.000 NA
ATOM     19  C   UNL     1       7.046   5.207  15.468  0.00  0.00    +0.000 A 
ATOM     20  N   UNL     1       6.674   4.578  16.601  0.00  0.00    +0.000 NA
BRANCH  19  21
ATOM     21  C   UNL     1       6.899   4.683  14.114  0.00  0.00    +0.000 A 
ATOM     22  C   UNL     1       5.875   3.765  13.828  0.00  0.00    +0.000 A 
ATOM     23  C   UNL     1       5.703   3.261  12.537  0.00  0.00    +0.000 A 
ATOM     24  C   UNL     1       6.555   3.667  11.514  0.00  0.00    +0.000 A 
ATOM     25  C   UNL     1       7.581   4.574  11.781  0.00  0.00    +0.000 A 
ATOM     26  C   UNL     1       7.753   5.080  13.075  0.00  0.00    +0.000 A 
ENDBRANCH  19  21
ENDBRANCH  15  16
ENDBRANCH   4  15
TORSDOF 5
ENDMDL
MODEL 7
REMARK VINA RESULT:      -8.2      0.807      2.627
REMARK  Name = 
REMARK  7 active torsions:
REMARK  status: ('A' for Active; 'I' for Inactive)
REMARK    1  A    between atoms: C_1  and  C_2
REMARK    2  A    between atoms: C_2  and  C_3
REMARK    3  A    between atoms: C_2  and  C_4
REMARK    4  A    between atoms: C_2  and  C_10
REMARK    5  A    between atoms: C_13  and  C_14
REMARK    6  A    between atoms: C_14  and  N_15
REMARK    7  A    between atoms: C_18  and  C_19
REMARK                            x       y       z     vdW  Elec       q    Type
REMARK                         _______ _______ _______ _____ _____    ______ ____
ROOT
ATOM      1  C   UNL     1       4.029   4.745  18.917  0.00  0.00    +0.000 A 
ATOM      2  N   UNL     1       4.743   4.388  19.997  0.00  0.00    +0.000 NA
ATOM      3  O   UNL     1       6.059   4.400  19.541  0.00  0.00    +0.000 OA
ATOM      4  C   UNL     1       6.013   4.781  18.233  0.00  0.00    +0.000 A 
ATOM      5  N   UNL     1       4.799   5.065  17.819  0.00  0.00    +0.000 NA
ENDROOT
BRANCH   1   7
ATOM      6  C   UNL     1       1.969   3.889  20.013  0.00  0.00    +0.000 C 
ATOM      7  C   UNL     1       2.514   4.810  18.899  0.00  0.00    +0.000 C 
ATOM      8  C   UNL     1       1.908   4.318  17.565  0.00  0.00    +0.000 C 
BRANCH   7   9
ATOM      9  C   UNL     1       2.193   6.306  19.095  0.00  0.00    +0.000 A 
ATOM     10  C   UNL     1       1.847   6.842  20.350  0.00  0.00    +0.000 A 
ATOM     11  C   UNL     1       1.604   8.209  20.517  0.00  0.00    +0.000 A 
ATOM     12  C   UNL     1       1.692   9.074  19.432  0.00  0.00    +0.000 A 
ATOM     13  C   UNL     1       2.006   8.571  18.174  0.00  0.00    +0.000 A 
ATOM     14  C   UNL     1       2.245   7.205  18.006  0.00  0.00    +0.000 A 
ENDBRANCH   7   9
ENDBRANCH   1   7
BRANCH   4  15
ATOM     15  C   UNL     1       7.294   4.825  17.507  0.00  0.00    +0.000 C 
BRANCH  15  16
ATOM     16  N   UNL     1       7.035   4.824  16.085  0.00  0.00    +0.000 N 
ATOM     17  N   UNL     1       7.614   5.722  15.270  0.00  0.00    +0.000 NA
ATOM     18  N   UNL     1       7.232   5.368  14.055  0.00  0.00    +0.000 NA
ATOM     19  C   UNL     1       6.464   4.233  14.185  0.00  0.00    +0.000 A 
ATOM     20  N   UNL     1       6.336   3.844  15.469  0.00  0.00    +0.000 NA
BRANCH  19  21
ATOM     21  C   UNL     1       5.903   3.547  13.026  0.00  0.00    +0.000 A 
ATOM     22  C   UNL     1       4.625   3.895  12.559  0.00  0.00    +0.000 A 
ATOM     23  C   UNL     1       4.073   3.264  11.442  0.00  0.00    +0.000 A 
ATOM     24  C   UNL     1       4.790   2.273  10.779  0.00  0.00    +0.000 A 
ATOM     25  C   UNL     1       6.058   1.911  11.232  0.00  0.00    +0.000 A 
ATOM     26  C   UNL     1       6.613   2.543  12.351  0.00  0.00    +0.000 A 
ENDBRANCH  19  21
ENDBRANCH  15  16
ENDBRANCH   4  15
TORSDOF 5
ENDMDL
MODEL 8
REMARK VINA RESULT:      -8.2      4.009      6.849
REMARK  Name = 
REMARK  7 active torsions:
REMARK  status: ('A' for Active; 'I' for Inactive)
REMARK    1  A    between atoms: C_1  and  C_2
REMARK    2  A    between atoms: C_2  and  C_3
REMARK    3  A    between atoms: C_2  and  C_4
REMARK    4  A    between atoms: C_2  and  C_10
REMARK    5  A    between atoms: C_13  and  C_14
REMARK    6  A    between atoms: C_14  and  N_15
REMARK    7  A    between atoms: C_18  and  C_19
REMARK                            x       y       z     vdW  Elec       q    Type
REMARK                         _______ _______ _______ _____ _____    ______ ____
ROOT
ATOM      1  C   UNL     1       4.107   5.270  19.104  0.00  0.00    +0.000 A 
ATOM      2  N   UNL     1       4.779   4.778  20.158  0.00  0.00    +0.000 NA
ATOM      3  O   UNL     1       6.116   4.907  19.787  0.00  0.00    +0.000 OA
ATOM      4  C   UNL     1       6.122   5.481  18.551  0.00  0.00    +0.000 A 
ATOM      5  N   UNL     1       4.920   5.781  18.114  0.00  0.00    +0.000 NA
ENDROOT
BRANCH   1   7
ATOM      6  C   UNL     1       2.019   4.466  20.185  0.00  0.00    +0.000 C 
ATOM      7  C   UNL     1       2.595   5.284  19.007  0.00  0.00    +0.000 C 
ATOM      8  C   UNL     1       2.071   4.636  17.705  0.00  0.00    +0.000 C 
BRANCH   7   9
ATOM      9  C   UNL     1       2.222   6.781  19.028  0.00  0.00    +0.000 A 
ATOM     10  C   UNL     1       2.231   7.574  17.865  0.00  0.00    +0.000 A 
ATOM     11  C   UNL     1       1.847   8.918  17.896  0.00  0.00    +0.000 A 
ATOM     12  C   UNL     1       1.451   9.506  19.092  0.00  0.00    +0.000 A 
ATOM     13  C   UNL     1       1.456   8.756  20.263  0.00  0.00    +0.000 A 
ATOM     14  C   UNL     1       1.844   7.413  20.233  0.00  0.00    +0.000 A 
ENDBRANCH   7   9
ENDBRANCH   1   7
BRANCH   4  15
ATOM     15  C   UNL     1       7.436   5.682  17.917  0.00  0.00    +0.000 C 
BRANCH  15  16
ATOM     16  N   UNL     1       7.716   7.097  17.839  0.00  0.00    +0.000 N 
ATOM     17  N   UNL     1       7.017   7.904  17.024  0.00  0.00    +0.000 NA
ATOM     18  N   UNL     1       7.472   9.118  17.280  0.00  0.00    +0.000 NA
ATOM     19  C   UNL     1       8.410   8.998  18.281  0.00  0.00    +0.000 A 
ATOM     20  N   UNL     1       8.575   7.720  18.678  0.00  0.00    +0.000 NA
BRANCH  19  21
ATOM     21  C   UNL     1       9.094  10.159  18.838  0.00  0.00    +0.000 A 
ATOM     22  C   UNL     1       9.683  11.101  17.979  0.00  0.00    +0.000 A 
ATOM     23  C   UNL     1      10.330  12.230  18.487  0.00  0.00    +0.000 A 
ATOM     24  C   UNL     1      10.399  12.430  19.863  0.00  0.00    +0.000 A 
ATOM     25  C   UNL     1       9.825  11.502  20.731  0.00  0.00    +0.000 A 
ATOM     26  C   UNL     1       9.176  10.372  20.223  0.00  0.00    +0.000 A 
ENDBRANCH  19  21
ENDBRANCH  15  16
ENDBRANCH   4  15
TORSDOF 5
ENDMDL
MODEL 9
REMARK VINA RESULT:      -8.1      4.091      6.581
REMARK  Name = 
REMARK  7 active torsions:
REMARK  status: ('A' for Active; 'I' for Inactive)
REMARK    1  A    between atoms: C_1  and  C_2
REMARK    2  A    between atoms: C_2  and  C_3
REMARK    3  A    between atoms: C_2  and  C_4
REMARK    4  A    between atoms: C_2  and  C_10
REMARK    5  A    between atoms: C_13  and  C_14
REMARK    6  A    between atoms: C_14  and  N_15
REMARK    7  A    between atoms: C_18  and  C_19
REMARK                            x       y       z     vdW  Elec       q    Type
REMARK                         _______ _______ _______ _____ _____    ______ ____
ROOT
ATOM      1  C   UNL     1       4.201   5.743  19.157  0.00  0.00    +0.000 A 
ATOM      2  N   UNL     1       4.774   4.937  20.066  0.00  0.00    +0.000 NA
ATOM      3  O   UNL     1       6.122   4.949  19.713  0.00  0.00    +0.000 OA
ATOM      4  C   UNL     1       6.235   5.775  18.635  0.00  0.00    +0.000 A 
ATOM      5  N   UNL     1       5.097   6.336  18.293  0.00  0.00    +0.000 NA
ENDROOT
BRANCH   1   7
ATOM      6  C   UNL     1       2.415   6.852  17.833  0.00  0.00    +0.000 C 
ATOM      7  C   UNL     1       2.708   5.997  19.086  0.00  0.00    +0.000 C 
ATOM      8  C   UNL     1       2.174   6.781  20.306  0.00  0.00    +0.000 C 
BRANCH   7   9
ATOM      9  C   UNL     1       2.080   4.588  19.058  0.00  0.00    +0.000 A 
ATOM     10  C   UNL     1       1.205   4.136  20.064  0.00  0.00    +0.000 A 
ATOM     11  C   UNL     1       0.609   2.872  19.997  0.00  0.00    +0.000 A 
ATOM     12  C   UNL     1       0.879   2.026  18.928  0.00  0.00    +0.000 A 
ATOM     13  C   UNL     1       1.760   2.434  17.932  0.00  0.00    +0.000 A 
ATOM     14  C   UNL     1       2.358   3.695  17.999  0.00  0.00    +0.000 A 
ENDBRANCH   7   9
ENDBRANCH   1   7
BRANCH   4  15
ATOM     15  C   UNL     1       7.575   5.917  18.043  0.00  0.00    +0.000 C 
BRANCH  15  16
ATOM     16  N   UNL     1       7.901   7.321  17.934  0.00  0.00    +0.000 N 
ATOM     17  N   UNL     1       7.297   8.110  17.030  0.00  0.00    +0.000 NA
ATOM     18  N   UNL     1       7.763   9.322  17.276  0.00  0.00    +0.000 NA
ATOM     19  C   UNL     1       8.609   9.220  18.359  0.00  0.00    +0.000 A 
ATOM     20  N   UNL     1       8.703   7.957  18.818  0.00  0.00    +0.000 NA
BRANCH  19  21
ATOM     21  C   UNL     1       9.276  10.387  18.927  0.00  0.00    +0.000 A 
ATOM     22  C   UNL     1       9.285  10.577  20.318  0.00  0.00    +0.000 A 
ATOM     23  C   UNL     1       9.931  11.677  20.887  0.00  0.00    +0.000 A 
ATOM     24  C   UNL     1      10.574  12.604  20.071  0.00  0.00    +0.000 A 
ATOM     25  C   UNL     1      10.570  12.433  18.688  0.00  0.00    +0.000 A 
ATOM     26  C   UNL     1       9.924  11.331  18.116  0.00  0.00    +0.000 A 
ENDBRANCH  19  21
ENDBRANCH  15  16
ENDBRANCH   4  15
TORSDOF 5
ENDMDL
