MODEL 1
REMARK VINA RESULT:      -7.1      0.000      0.000
REMARK  Name = 
REMARK  6 active torsions:
REMARK  status: ('A' for Active; 'I' for Inactive)
REMARK    1  A    between atoms: C_1  and  C_2
REMARK    2  A    between atoms: C_2  and  C_3
REMARK    3  A    between atoms: N_9  and  C_10
REMARK    4  A    between atoms: C_19  and  C_21
REMARK    5  A    between atoms: C_21  and  C_22
REMARK    6  A    between atoms: C_27  and  O_28
REMARK                            x       y       z     vdW  Elec       q    Type
REMARK                         _______ _______ _______ _____ _____    ______ ____
ROOT
ATOM      1  C   UNL     1       1.136  11.517  21.146  0.00  0.00    +0.000 C 
ATOM      2  C   UNL     1      -0.322  11.035  21.266  0.00  0.00    +0.000 C 
ATOM      3  C   UNL     1      -0.587  10.641  22.739  0.00  0.00    +0.000 C 
ATOM      4  C   UNL     1      -1.224  12.244  20.921  0.00  0.00    +0.000 C 
ATOM      5  C   UNL     1      -2.240  12.042  19.852  0.00  0.00    +0.000 A 
ATOM      6  C   UNL     1      -2.150  11.350  18.658  0.00  0.00    +0.000 A 
ATOM      7  C   UNL     1      -3.441  11.448  18.102  0.00  0.00    +0.000 A 
ATOM      8  N   UNL     1      -4.302  12.070  18.905  0.00  0.00    +0.000 NA
ATOM      9  N   UNL     1      -3.545  12.499  19.941  0.00  0.00    +0.000 N 
ATOM     10  C   UNL     1      -0.975  10.667  18.070  0.00  0.00    +0.000 C 
ATOM     11  N   UNL     1      -0.161   9.893  19.014  0.00  0.00    +0.000 N 
ATOM     12  C   UNL     1       1.047   9.441  18.516  0.00  0.00    +0.000 C 
ATOM     13  O   UNL     1       1.384   9.724  17.352  0.00  0.00    +0.000 OA
ATOM     14  C   UNL     1      -0.569   9.760  20.418  0.00  0.00    +0.000 C 
ENDROOT
BRANCH   9  15
ATOM     15  C   UNL     1      -4.108  13.300  20.959  0.00  0.00    +0.000 A 
ATOM     16  C   UNL     1      -3.968  14.695  20.900  0.00  0.00    +0.000 A 
ATOM     17  C   UNL     1      -4.445  15.472  21.953  0.00  0.00    +0.000 A 
ATOM     18  C   UNL     1      -5.035  14.851  23.052  0.00  0.00    +0.000 A 
ATOM     19  F   UNL     1      -5.443  15.596  24.085  0.00  0.00    +0.000 F 
ATOM     20  C   UNL     1      -5.198  13.473  23.103  0.00  0.00    +0.000 A 
ATOM     21  C   UNL     1      -4.748  12.691  22.043  0.00  0.00    +0.000 A 
ENDBRANCH   9  15
BRANCH  12  22
ATOM     22  C   UNL     1       1.933   8.577  19.408  0.00  0.00    +0.000 C 
BRANCH  22  23
ATOM     23  C   UNL     1       2.402   7.251  18.777  0.00  0.00    +0.000 C 
ATOM     24  C   UNL     1       3.537   7.456  17.757  0.00  0.00    +0.000 C 
ATOM     25  C   UNL     1       4.126   6.152  17.233  0.00  0.00    +0.000 C 
ATOM     26  C   UNL     1       4.496   5.202  18.367  0.00  0.00    +0.000 C 
ATOM     27  C   UNL     1       3.289   4.913  19.248  0.00  0.00    +0.000 C 
ATOM     28  C   UNL     1       2.732   6.200  19.854  0.00  0.00    +0.000 C 
BRANCH  28  29
ATOM     29  O   UNL     1       1.548   5.889  20.594  0.00  0.00    +0.000 OA
ATOM     30  H   UNL     1       1.100   6.726  20.808  0.00  0.00    +0.000 HD
ENDBRANCH  28  29
ENDBRANCH  22  23
ENDBRANCH  12  22
TORSDOF 4
ENDMDL
MODEL 2
REMARK VINA RESULT:      -7.0      4.022      9.011
REMARK  Name = 
REMARK  6 active torsions:
REMARK  status: ('A' for Active; 'I' for Inactive)
REMARK    1  A    between atoms: C_1  and  C_2
REMARK    2  A    between atoms: C_2  and  C_3
REMARK    3  A    between atoms: N_9  and  C_10
REMARK    4  A    between atoms: C_19  and  C_21
REMARK    5  A    between atoms: C_21  and  C_22
REMARK    6  A    between atoms: C_27  and  O_28
REMARK                            x       y       z     vdW  Elec       q    Type
REMARK                         _______ _______ _______ _____ _____    ______ ____
ROOT
ATOM      1  C   UNL     1      -1.209  13.995  19.842  0.00  0.00    +0.000 C 
ATOM      2  C   UNL     1      -1.556  12.493  19.852  0.00  0.00    +0.000 C 
ATOM      3  C   UNL     1      -2.083  12.104  18.450  0.00  0.00    +0.000 C 
ATOM      4  C   UNL     1      -0.232  11.729  20.099  0.00  0.00    +0.000 C 
ATOM      5  C   UNL     1      -0.214  10.766  21.234  0.00  0.00    +0.000 A 
ATOM      6  C   UNL     1      -0.774  10.866  22.494  0.00  0.00    +0.000 A 
ATOM      7  C   UNL     1      -0.488   9.625  23.099  0.00  0.00    +0.000 A 
ATOM      8  N   UNL     1       0.122   8.777  22.273  0.00  0.00    +0.000 NA
ATOM      9  N   UNL     1       0.357   9.506  21.158  0.00  0.00    +0.000 N 
ATOM     10  C   UNL     1      -1.500  12.006  23.098  0.00  0.00    +0.000 C 
ATOM     11  N   UNL     1      -2.451  12.686  22.211  0.00  0.00    +0.000 N 
ATOM     12  C   UNL     1      -2.961  13.875  22.697  0.00  0.00    +0.000 C 
ATOM     13  O   UNL     1      -2.586  14.307  23.802  0.00  0.00    +0.000 OA
ATOM     14  C   UNL     1      -2.698  12.183  20.854  0.00  0.00    +0.000 C 
ENDROOT
BRANCH   9  15
ATOM     15  C   UNL     1       1.092   8.958  20.083  0.00  0.00    +0.000 A 
ATOM     16  C   UNL     1       1.786   7.752  20.262  0.00  0.00    +0.000 A 
ATOM     17  C   UNL     1       2.582   7.265  19.228  0.00  0.00    +0.000 A 
ATOM     18  C   UNL     1       2.690   7.991  18.044  0.00  0.00    +0.000 A 
ATOM     19  F   UNL     1       3.497   7.548  17.074  0.00  0.00    +0.000 F 
ATOM     20  C   UNL     1       1.985   9.173  17.853  0.00  0.00    +0.000 A 
ATOM     21  C   UNL     1       1.166   9.653  18.871  0.00  0.00    +0.000 A 
ENDBRANCH   9  15
BRANCH  12  22
ATOM     22  C   UNL     1      -4.001  14.622  21.868  0.00  0.00    +0.000 C 
BRANCH  22  23
ATOM     23  C   UNL     1      -5.469  14.277  22.194  0.00  0.00    +0.000 C 
ATOM     24  C   UNL     1      -5.990  13.088  21.365  0.00  0.00    +0.000 C 
ATOM     25  C   UNL     1      -7.383  12.626  21.775  0.00  0.00    +0.000 C 
ATOM     26  C   UNL     1      -7.486  12.406  23.281  0.00  0.00    +0.000 C 
ATOM     27  C   UNL     1      -7.111  13.671  24.040  0.00  0.00    +0.000 C 
ATOM     28  C   UNL     1      -5.684  14.106  23.710  0.00  0.00    +0.000 C 
BRANCH  28  29
ATOM     29  O   UNL     1      -5.412  15.344  24.372  0.00  0.00    +0.000 OA
ATOM     30  H   UNL     1      -4.798  15.163  25.105  0.00  0.00    +0.000 HD
ENDBRANCH  28  29
ENDBRANCH  22  23
ENDBRANCH  12  22
TORSDOF 4
ENDMDL
MODEL 3
REMARK VINA RESULT:      -6.9      3.919      9.090
REMARK  Name = 
REMARK  6 active torsions:
REMARK  status: ('A' for Active; 'I' for Inactive)
REMARK    1  A    between atoms: C_1  and  C_2
REMARK    2  A    between atoms: C_2  and  C_3
REMARK    3  A    between atoms: N_9  and  C_10
REMARK    4  A    between atoms: C_19  and  C_21
REMARK    5  A    between atoms: C_21  and  C_22
REMARK    6  A    between atoms: C_27  and  O_28
REMARK                            x       y       z     vdW  Elec       q    Type
REMARK                         _______ _______ _______ _____ _____    ______ ____
ROOT
ATOM      1  C   UNL     1      -0.747   9.194  22.163  0.00  0.00    +0.000 C 
ATOM      2  C   UNL     1       0.719   9.227  21.689  0.00  0.00    +0.000 C 
ATOM      3  C   UNL     1       1.635   9.032  22.921  0.00  0.00    +0.000 C 
ATOM      4  C   UNL     1       0.913   8.013  20.748  0.00  0.00    +0.000 C 
ATOM      5  C   UNL     1       1.458   8.295  19.392  0.00  0.00    +0.000 A 
ATOM      6  C   UNL     1       1.195   9.341  18.527  0.00  0.00    +0.000 A 
ATOM      7  C   UNL     1       2.054   9.110  17.434  0.00  0.00    +0.000 A 
ATOM      8  N   UNL     1       2.856   8.063  17.619  0.00  0.00    +0.000 NA
ATOM      9  N   UNL     1       2.434   7.521  18.785  0.00  0.00    +0.000 N 
ATOM     10  C   UNL     1       0.230  10.451  18.683  0.00  0.00    +0.000 C 
ATOM     11  N   UNL     1       0.171  11.050  20.022  0.00  0.00    +0.000 N 
ATOM     12  C   UNL     1      -0.876  11.929  20.228  0.00  0.00    +0.000 C 
ATOM     13  O   UNL     1      -1.698  12.141  19.319  0.00  0.00    +0.000 OA
ATOM     14  C   UNL     1       1.086  10.604  21.080  0.00  0.00    +0.000 C 
ENDROOT
BRANCH   9  15
ATOM     15  C   UNL     1       2.995   6.314  19.260  0.00  0.00    +0.000 A 
ATOM     16  C   UNL     1       4.282   5.938  18.848  0.00  0.00    +0.000 A 
ATOM     17  C   UNL     1       4.791   4.706  19.247  0.00  0.00    +0.000 A 
ATOM     18  C   UNL     1       4.009   3.860  20.030  0.00  0.00    +0.000 A 
ATOM     19  F   UNL     1       4.480   2.654  20.366  0.00  0.00    +0.000 F 
ATOM     20  C   UNL     1       2.744   4.238  20.461  0.00  0.00    +0.000 A 
ATOM     21  C   UNL     1       2.237   5.481  20.090  0.00  0.00    +0.000 A 
ENDBRANCH   9  15
BRANCH  12  22
ATOM     22  C   UNL     1      -0.982  12.643  21.572  0.00  0.00    +0.000 C 
BRANCH  22  23
ATOM     23  C   UNL     1      -2.418  12.832  22.101  0.00  0.00    +0.000 C 
ATOM     24  C   UNL     1      -2.590  12.296  23.535  0.00  0.00    +0.000 C 
ATOM     25  C   UNL     1      -3.954  12.609  24.140  0.00  0.00    +0.000 C 
ATOM     26  C   UNL     1      -4.312  14.084  23.997  0.00  0.00    +0.000 C 
ATOM     27  C   UNL     1      -4.279  14.511  22.537  0.00  0.00    +0.000 C 
ATOM     28  C   UNL     1      -2.895  14.287  21.931  0.00  0.00    +0.000 C 
BRANCH  28  29
ATOM     29  O   UNL     1      -2.939  14.614  20.539  0.00  0.00    +0.000 OA
ATOM     30  H   UNL     1      -2.463  15.454  20.414  0.00  0.00    +0.000 HD
ENDBRANCH  28  29
ENDBRANCH  22  23
ENDBRANCH  12  22
TORSDOF 4
ENDMDL
MODEL 4
REMARK VINA RESULT:      -6.9      1.492      1.615
REMARK  Name = 
REMARK  6 active torsions:
REMARK  status: ('A' for Active; 'I' for Inactive)
REMARK    1  A    between atoms: C_1  and  C_2
REMARK    2  A    between atoms: C_2  and  C_3
REMARK    3  A    between atoms: N_9  and  C_10
REMARK    4  A    between atoms: C_19  and  C_21
REMARK    5  A    between atoms: C_21  and  C_22
REMARK    6  A    between atoms: C_27  and  O_28
REMARK                            x       y       z     vdW  Elec       q    Type
REMARK                         _______ _______ _______ _____ _____    ______ ____
ROOT
ATOM      1  C   UNL     1       2.027  10.051  21.692  0.00  0.00    +0.000 C 
ATOM      2  C   UNL     1       0.489   9.945  21.683  0.00  0.00    +0.000 C 
ATOM      3  C   UNL     1       0.041   9.235  22.982  0.00  0.00    +0.000 C 
ATOM      4  C   UNL     1      -0.060  11.392  21.711  0.00  0.00    +0.000 C 
ATOM      5  C   UNL     1      -1.023  11.767  20.639  0.00  0.00    +0.000 A 
ATOM      6  C   UNL     1      -1.030  11.440  19.296  0.00  0.00    +0.000 A 
ATOM      7  C   UNL     1      -2.218  12.018  18.805  0.00  0.00    +0.000 A 
ATOM      8  N   UNL     1      -2.948  12.588  19.763  0.00  0.00    +0.000 NA
ATOM      9  N   UNL     1      -2.176  12.499  20.870  0.00  0.00    +0.000 N 
ATOM     10  C   UNL     1      -0.027  10.672  18.524  0.00  0.00    +0.000 C 
ATOM     11  N   UNL     1       0.506   9.481  19.196  0.00  0.00    +0.000 N 
ATOM     12  C   UNL     1       1.593   8.894  18.576  0.00  0.00    +0.000 C 
ATOM     13  O   UNL     1       2.064   9.396  17.539  0.00  0.00    +0.000 OA
ATOM     14  C   UNL     1      -0.011   9.068  20.506  0.00  0.00    +0.000 C 
ENDROOT
BRANCH   9  15
ATOM     15  C   UNL     1      -2.587  13.098  22.082  0.00  0.00    +0.000 A 
ATOM     16  C   UNL     1      -2.160  14.399  22.392  0.00  0.00    +0.000 A 
ATOM     17  C   UNL     1      -2.492  14.947  23.627  0.00  0.00    +0.000 A 
ATOM     18  C   UNL     1      -3.225  14.191  24.540  0.00  0.00    +0.000 A 
ATOM     19  F   UNL     1      -3.496  14.701  25.746  0.00  0.00    +0.000 F 
ATOM     20  C   UNL     1      -3.670  12.913  24.228  0.00  0.00    +0.000 A 
ATOM     21  C   UNL     1      -3.365  12.367  22.985  0.00  0.00    +0.000 A 
ENDBRANCH   9  15
BRANCH  12  22
ATOM     22  C   UNL     1       2.178   7.617  19.172  0.00  0.00    +0.000 C 
BRANCH  22  23
ATOM     23  C   UNL     1       2.724   6.605  18.144  0.00  0.00    +0.000 C 
ATOM     24  C   UNL     1       4.070   7.051  17.542  0.00  0.00    +0.000 C 
ATOM     25  C   UNL     1       4.709   6.000  16.641  0.00  0.00    +0.000 C 
ATOM     26  C   UNL     1       4.770   4.635  17.319  0.00  0.00    +0.000 C 
ATOM     27  C   UNL     1       3.383   4.180  17.748  0.00  0.00    +0.000 C 
ATOM     28  C   UNL     1       2.755   5.177  18.721  0.00  0.00    +0.000 C 
BRANCH  28  29
ATOM     29  O   UNL     1       1.422   4.755  19.021  0.00  0.00    +0.000 OA
ATOM     30  H   UNL     1       1.477   4.001  19.633  0.00  0.00    +0.000 HD
ENDBRANCH  28  29
ENDBRANCH  22  23
ENDBRANCH  12  22
TORSDOF 4
ENDMDL
MODEL 5
REMARK VINA RESULT:      -6.8      4.038      8.976
REMARK  Name = 
REMARK  6 active torsions:
REMARK  status: ('A' for Active; 'I' for Inactive)
REMARK    1  A    between atoms: C_1  and  C_2
REMARK    2  A    between atoms: C_2  and  C_3
REMARK    3  A    between atoms: N_9  and  C_10
REMARK    4  A    between atoms: C_19  and  C_21
REMARK    5  A    between atoms: C_21  and  C_22
REMARK    6  A    between atoms: C_27  and  O_28
REMARK                            x       y       z     vdW  Elec       q    Type
REMARK                         _______ _______ _______ _____ _____    ______ ____
ROOT
ATOM      1  C   UNL     1      -0.632   9.648  22.623  0.00  0.00    +0.000 C 
ATOM      2  C   UNL     1       0.802   9.518  22.073  0.00  0.00    +0.000 C 
ATOM      3  C   UNL     1       1.751   9.204  23.254  0.00  0.00    +0.000 C 
ATOM      4  C   UNL     1       0.805   8.302  21.115  0.00  0.00    +0.000 C 
ATOM      5  C   UNL     1       1.309   8.536  19.734  0.00  0.00    +0.000 A 
ATOM      6  C   UNL     1       1.124   9.616  18.891  0.00  0.00    +0.000 A 
ATOM      7  C   UNL     1       1.894   9.303  17.753  0.00  0.00    +0.000 A 
ATOM      8  N   UNL     1       2.577   8.168  17.889  0.00  0.00    +0.000 NA
ATOM      9  N   UNL     1       2.156   7.663  19.072  0.00  0.00    +0.000 N 
ATOM     10  C   UNL     1       0.303  10.829  19.106  0.00  0.00    +0.000 C 
ATOM     11  N   UNL     1       0.383  11.413  20.450  0.00  0.00    +0.000 N 
ATOM     12  C   UNL     1      -0.543  12.404  20.717  0.00  0.00    +0.000 C 
ATOM     13  O   UNL     1      -1.381  12.720  19.853  0.00  0.00    +0.000 OA
ATOM     14  C   UNL     1       1.294  10.852  21.455  0.00  0.00    +0.000 C 
ENDROOT
BRANCH   9  15
ATOM     15  C   UNL     1       2.597   6.394  19.509  0.00  0.00    +0.000 A 
ATOM     16  C   UNL     1       3.778   5.851  18.980  0.00  0.00    +0.000 A 
ATOM     17  C   UNL     1       4.158   4.563  19.346  0.00  0.00    +0.000 A 
ATOM     18  C   UNL     1       3.351   3.829  20.214  0.00  0.00    +0.000 A 
ATOM     19  F   UNL     1       3.691   2.572  20.521  0.00  0.00    +0.000 F 
ATOM     20  C   UNL     1       2.195   4.372  20.759  0.00  0.00    +0.000 A 
ATOM     21  C   UNL     1       1.821   5.669  20.419  0.00  0.00    +0.000 A 
ENDBRANCH   9  15
BRANCH  12  22
ATOM     22  C   UNL     1      -0.497  13.108  22.069  0.00  0.00    +0.000 C 
BRANCH  22  23
ATOM     23  C   UNL     1      -1.866  13.549  22.625  0.00  0.00    +0.000 C 
ATOM     24  C   UNL     1      -2.800  12.355  22.899  0.00  0.00    +0.000 C 
ATOM     25  C   UNL     1      -4.099  12.747  23.592  0.00  0.00    +0.000 C 
ATOM     26  C   UNL     1      -3.845  13.612  24.822  0.00  0.00    +0.000 C 
ATOM     27  C   UNL     1      -3.054  14.859  24.454  0.00  0.00    +0.000 C 
ATOM     28  C   UNL     1      -1.707  14.490  23.834  0.00  0.00    +0.000 C 
BRANCH  28  29
ATOM     29  O   UNL     1      -1.044  15.688  23.421  0.00  0.00    +0.000 OA
ATOM     30  H   UNL     1      -1.720  16.377  23.296  0.00  0.00    +0.000 HD
ENDBRANCH  28  29
ENDBRANCH  22  23
ENDBRANCH  12  22
TORSDOF 4
ENDMDL
MODEL 6
REMARK VINA RESULT:      -6.8      3.843      8.903
REMARK  Name = 
REMARK  6 active torsions:
REMARK  status: ('A' for Active; 'I' for Inactive)
REMARK    1  A    between atoms: C_1  and  C_2
REMARK    2  A    between atoms: C_2  and  C_3
REMARK    3  A    between atoms: N_9  and  C_10
REMARK    4  A    between atoms: C_19  and  C_21
REMARK    5  A    between atoms: C_21  and  C_22
REMARK    6  A    between atoms: C_27  and  O_28
REMARK                            x       y       z     vdW  Elec       q    Type
REMARK                         _______ _______ _______ _____ _____    ______ ____
ROOT
ATOM      1  C   UNL     1      -0.800  12.671  18.329  0.00  0.00    +0.000 C 
ATOM      2  C   UNL     1      -1.029  11.221  18.800  0.00  0.00    +0.000 C 
ATOM      3  C   UNL     1      -1.678  10.427  17.642  0.00  0.00    +0.000 C 
ATOM      4  C   UNL     1       0.368  10.614  19.076  0.00  0.00    +0.000 C 
ATOM      5  C   UNL     1       0.587  10.016  20.422  0.00  0.00    +0.000 A 
ATOM      6  C   UNL     1       0.166  10.447  21.666  0.00  0.00    +0.000 A 
ATOM      7  C   UNL     1       0.611   9.443  22.549  0.00  0.00    +0.000 A 
ATOM      8  N   UNL     1       1.188   8.421  21.919  0.00  0.00    +0.000 NA
ATOM      9  N   UNL     1       1.240   8.811  20.626  0.00  0.00    +0.000 N 
ATOM     10  C   UNL     1      -0.572  11.681  22.018  0.00  0.00    +0.000 C 
ATOM     11  N   UNL     1      -1.666  12.040  21.108  0.00  0.00    +0.000 N 
ATOM     12  C   UNL     1      -2.207  13.297  21.306  0.00  0.00    +0.000 C 
ATOM     13  O   UNL     1      -1.744  14.041  22.190  0.00  0.00    +0.000 OA
ATOM     14  C   UNL     1      -2.024  11.162  19.987  0.00  0.00    +0.000 C 
ENDROOT
BRANCH   9  15
ATOM     15  C   UNL     1       1.889   8.010  19.659  0.00  0.00    +0.000 A 
ATOM     16  C   UNL     1       2.243   6.690  19.978  0.00  0.00    +0.000 A 
ATOM     17  C   UNL     1       2.963   5.938  19.054  0.00  0.00    +0.000 A 
ATOM     18  C   UNL     1       3.336   6.512  17.841  0.00  0.00    +0.000 A 
ATOM     19  F   UNL     1       4.073   5.804  16.979  0.00  0.00    +0.000 F 
ATOM     20  C   UNL     1       2.966   7.810  17.511  0.00  0.00    +0.000 A 
ATOM     21  C   UNL     1       2.223   8.561  18.417  0.00  0.00    +0.000 A 
ENDBRANCH   9  15
BRANCH  12  22
ATOM     22  C   UNL     1      -3.388  13.733  20.444  0.00  0.00    +0.000 C 
BRANCH  22  23
ATOM     23  C   UNL     1      -4.678  12.910  20.636  0.00  0.00    +0.000 C 
ATOM     24  C   UNL     1      -5.374  13.215  21.975  0.00  0.00    +0.000 C 
ATOM     25  C   UNL     1      -6.730  12.533  22.123  0.00  0.00    +0.000 C 
ATOM     26  C   UNL     1      -7.620  12.774  20.908  0.00  0.00    +0.000 C 
ATOM     27  C   UNL     1      -6.936  12.303  19.633  0.00  0.00    +0.000 C 
ATOM     28  C   UNL     1      -5.613  13.036  19.418  0.00  0.00    +0.000 C 
BRANCH  28  29
ATOM     29  O   UNL     1      -4.966  12.494  18.263  0.00  0.00    +0.000 OA
ATOM     30  H   UNL     1      -4.332  13.157  17.937  0.00  0.00    +0.000 HD
ENDBRANCH  28  29
ENDBRANCH  22  23
ENDBRANCH  12  22
TORSDOF 4
ENDMDL
MODEL 7
REMARK VINA RESULT:      -6.8      2.182      3.661
REMARK  Name = 
REMARK  6 active torsions:
REMARK  status: ('A' for Active; 'I' for Inactive)
REMARK    1  A    between atoms: C_1  and  C_2
REMARK    2  A    between atoms: C_2  and  C_3
REMARK    3  A    between atoms: N_9  and  C_10
REMARK    4  A    between atoms: C_19  and  C_21
REMARK    5  A    between atoms: C_21  and  C_22
REMARK    6  A    between atoms: C_27  and  O_28
REMARK                            x       y       z     vdW  Elec       q    Type
REMARK                         _______ _______ _______ _____ _____    ______ ____
ROOT
ATOM      1  C   UNL     1       0.282   9.280  17.727  0.00  0.00    +0.000 C 
ATOM      2  C   UNL     1       0.762  10.194  18.872  0.00  0.00    +0.000 C 
ATOM      3  C   UNL     1       1.228  11.538  18.262  0.00  0.00    +0.000 C 
ATOM      4  C   UNL     1      -0.469  10.473  19.768  0.00  0.00    +0.000 C 
ATOM      5  C   UNL     1      -0.327  10.170  21.219  0.00  0.00    +0.000 A 
ATOM      6  C   UNL     1       0.303   9.113  21.849  0.00  0.00    +0.000 A 
ATOM      7  C   UNL     1       0.170   9.400  23.222  0.00  0.00    +0.000 A 
ATOM      8  N   UNL     1      -0.416  10.574  23.449  0.00  0.00    +0.000 NA
ATOM      9  N   UNL     1      -0.787  11.006  22.223  0.00  0.00    +0.000 N 
ATOM     10  C   UNL     1       0.963   7.934  21.244  0.00  0.00    +0.000 C 
ATOM     11  N   UNL     1       1.789   8.213  20.063  0.00  0.00    +0.000 N 
ATOM     12  C   UNL     1       2.222   7.097  19.372  0.00  0.00    +0.000 C 
ATOM     13  O   UNL     1       1.883   5.961  19.750  0.00  0.00    +0.000 OA
ATOM     14  C   UNL     1       1.990   9.591  19.601  0.00  0.00    +0.000 C 
ENDROOT
BRANCH   9  15
ATOM     15  C   UNL     1      -1.539  12.194  22.077  0.00  0.00    +0.000 A 
ATOM     16  C   UNL     1      -0.945  13.322  21.491  0.00  0.00    +0.000 A 
ATOM     17  C   UNL     1      -1.661  14.515  21.433  0.00  0.00    +0.000 A 
ATOM     18  C   UNL     1      -2.944  14.573  21.974  0.00  0.00    +0.000 A 
ATOM     19  F   UNL     1      -3.607  15.734  21.965  0.00  0.00    +0.000 F 
ATOM     20  C   UNL     1      -3.545  13.452  22.533  0.00  0.00    +0.000 A 
ATOM     21  C   UNL     1      -2.846  12.248  22.570  0.00  0.00    +0.000 A 
ENDBRANCH   9  15
BRANCH  12  22
ATOM     22  C   UNL     1       3.135   7.288  18.165  0.00  0.00    +0.000 C 
BRANCH  22  23
ATOM     23  C   UNL     1       4.061   6.097  17.850  0.00  0.00    +0.000 C 
ATOM     24  C   UNL     1       3.276   4.827  17.472  0.00  0.00    +0.000 C 
ATOM     25  C   UNL     1       4.164   3.680  17.006  0.00  0.00    +0.000 C 
ATOM     26  C   UNL     1       5.147   4.127  15.928  0.00  0.00    +0.000 C 
ATOM     27  C   UNL     1       6.004   5.283  16.423  0.00  0.00    +0.000 C 
ATOM     28  C   UNL     1       5.139   6.478  16.816  0.00  0.00    +0.000 C 
BRANCH  28  29
ATOM     29  O   UNL     1       5.979   7.500  17.360  0.00  0.00    +0.000 OA
ATOM     30  H   UNL     1       5.679   7.683  18.267  0.00  0.00    +0.000 HD
ENDBRANCH  28  29
ENDBRANCH  22  23
ENDBRANCH  12  22
TORSDOF 4
ENDMDL
MODEL 8
REMARK VINA RESULT:      -6.7      1.637      2.158
REMARK  Name = 
REMARK  6 active torsions:
REMARK  status: ('A' for Active; 'I' for Inactive)
REMARK    1  A    between atoms: C_1  and  C_2
REMARK    2  A    between atoms: C_2  and  C_3
REMARK    3  A    between atoms: N_9  and  C_10
REMARK    4  A    between atoms: C_19  and  C_21
REMARK    5  A    between atoms: C_21  and  C_22
REMARK    6  A    between atoms: C_27  and  O_28
REMARK                            x       y       z     vdW  Elec       q    Type
REMARK                         _______ _______ _______ _____ _____    ______ ____
ROOT
ATOM      1  C   UNL     1       1.858   9.346  22.226  0.00  0.00    +0.000 C 
ATOM      2  C   UNL     1       0.370   9.467  21.842  0.00  0.00    +0.000 C 
ATOM      3  C   UNL     1      -0.482   8.901  23.004  0.00  0.00    +0.000 C 
ATOM      4  C   UNL     1       0.062  10.978  21.710  0.00  0.00    +0.000 C 
ATOM      5  C   UNL     1      -0.546  11.431  20.429  0.00  0.00    +0.000 A 
ATOM      6  C   UNL     1      -0.281  11.036  19.131  0.00  0.00    +0.000 A 
ATOM      7  C   UNL     1      -1.212  11.755  18.354  0.00  0.00    +0.000 A 
ATOM      8  N   UNL     1      -2.052  12.477  19.094  0.00  0.00    +0.000 NA
ATOM      9  N   UNL     1      -1.592  12.336  20.358  0.00  0.00    +0.000 N 
ATOM     10  C   UNL     1       0.745  10.089  18.641  0.00  0.00    +0.000 C 
ATOM     11  N   UNL     1       0.911   8.871  19.444  0.00  0.00    +0.000 N 
ATOM     12  C   UNL     1       2.010   8.098  19.119  0.00  0.00    +0.000 C 
ATOM     13  O   UNL     1       2.788   8.469  18.221  0.00  0.00    +0.000 OA
ATOM     14  C   UNL     1       0.037   8.610  20.594  0.00  0.00    +0.000 C 
ENDROOT
BRANCH   9  15
ATOM     15  C   UNL     1      -2.183  13.054  21.422  0.00  0.00    +0.000 A 
ATOM     16  C   UNL     1      -3.318  12.533  22.063  0.00  0.00    +0.000 A 
ATOM     17  C   UNL     1      -3.949  13.287  23.048  0.00  0.00    +0.000 A 
ATOM     18  C   UNL     1      -3.456  14.551  23.367  0.00  0.00    +0.000 A 
ATOM     19  F   UNL     1      -4.096  15.295  24.275  0.00  0.00    +0.000 F 
ATOM     20  C   UNL     1      -2.319  15.060  22.752  0.00  0.00    +0.000 A 
ATOM     21  C   UNL     1      -1.666  14.301  21.785  0.00  0.00    +0.000 A 
ENDBRANCH   9  15
BRANCH  12  22
ATOM     22  C   UNL     1       2.228   6.784  19.862  0.00  0.00    +0.000 C 
BRANCH  22  23
ATOM     23  C   UNL     1       2.154   5.517  18.985  0.00  0.00    +0.000 C 
ATOM     24  C   UNL     1       3.396   5.349  18.090  0.00  0.00    +0.000 C 
ATOM     25  C   UNL     1       3.422   4.028  17.329  0.00  0.00    +0.000 C 
ATOM     26  C   UNL     1       3.174   2.839  18.251  0.00  0.00    +0.000 C 
ATOM     27  C   UNL     1       1.850   2.991  18.988  0.00  0.00    +0.000 C 
ATOM     28  C   UNL     1       1.834   4.267  19.827  0.00  0.00    +0.000 C 
BRANCH  28  29
ATOM     29  O   UNL     1       0.542   4.412  20.424  0.00  0.00    +0.000 OA
ATOM     30  H   UNL     1       0.433   3.702  21.079  0.00  0.00    +0.000 HD
ENDBRANCH  28  29
ENDBRANCH  22  23
ENDBRANCH  12  22
TORSDOF 4
ENDMDL
MODEL 9
REMARK VINA RESULT:      -6.7      2.232      3.495
REMARK  Name = 
REMARK  6 active torsions:
REMARK  status: ('A' for Active; 'I' for Inactive)
REMARK    1  A    between atoms: C_1  and  C_2
REMARK    2  A    between atoms: C_2  and  C_3
REMARK    3  A    between atoms: N_9  and  C_10
REMARK    4  A    between atoms: C_19  and  C_21
REMARK    5  A    between atoms: C_21  and  C_22
REMARK    6  A    between atoms: C_27  and  O_28
REMARK                            x       y       z     vdW  Elec       q    Type
REMARK                         _______ _______ _______ _____ _____    ______ ____
ROOT
ATOM      1  C   UNL     1       0.513   9.521  17.687  0.00  0.00    +0.000 C 
ATOM      2  C   UNL     1       0.989  10.328  18.910  0.00  0.00    +0.000 C 
ATOM      3  C   UNL     1       1.550  11.682  18.414  0.00  0.00    +0.000 C 
ATOM      4  C   UNL     1      -0.263  10.613  19.774  0.00  0.00    +0.000 C 
ATOM      5  C   UNL     1      -0.200  10.205  21.205  0.00  0.00    +0.000 A 
ATOM      6  C   UNL     1       0.347   9.076  21.784  0.00  0.00    +0.000 A 
ATOM      7  C   UNL     1       0.169   9.276  23.168  0.00  0.00    +0.000 A 
ATOM      8  N   UNL     1      -0.364  10.463  23.453  0.00  0.00    +0.000 NA
ATOM      9  N   UNL     1      -0.659  10.996  22.245  0.00  0.00    +0.000 N 
ATOM     10  C   UNL     1       0.969   7.906  21.125  0.00  0.00    +0.000 C 
ATOM     11  N   UNL     1       1.859   8.218  20.000  0.00  0.00    +0.000 N 
ATOM     12  C   UNL     1       2.263   7.128  19.251  0.00  0.00    +0.000 C 
ATOM     13  O   UNL     1       1.850   5.990  19.535  0.00  0.00    +0.000 OA
ATOM     14  C   UNL     1       2.152   9.611  19.643  0.00  0.00    +0.000 C 
ENDROOT
BRANCH   9  15
ATOM     15  C   UNL     1      -1.341  12.230  22.153  0.00  0.00    +0.000 A 
ATOM     16  C   UNL     1      -0.617  13.429  22.229  0.00  0.00    +0.000 A 
ATOM     17  C   UNL     1      -1.305  14.640  22.229  0.00  0.00    +0.000 A 
ATOM     18  C   UNL     1      -2.697  14.640  22.173  0.00  0.00    +0.000 A 
ATOM     19  F   UNL     1      -3.356  15.802  22.227  0.00  0.00    +0.000 F 
ATOM     20  C   UNL     1      -3.416  13.456  22.072  0.00  0.00    +0.000 A 
ATOM     21  C   UNL     1      -2.736  12.242  22.044  0.00  0.00    +0.000 A 
ENDBRANCH   9  15
BRANCH  12  22
ATOM     22  C   UNL     1       3.236   7.351  18.097  0.00  0.00    +0.000 C 
BRANCH  22  23
ATOM     23  C   UNL     1       4.069   6.116  17.696  0.00  0.00    +0.000 C 
ATOM     24  C   UNL     1       4.664   6.245  16.281  0.00  0.00    +0.000 C 
ATOM     25  C   UNL     1       5.617   5.112  15.918  0.00  0.00    +0.000 C 
ATOM     26  C   UNL     1       6.668   4.888  17.000  0.00  0.00    +0.000 C 
ATOM     27  C   UNL     1       6.012   4.607  18.344  0.00  0.00    +0.000 C 
ATOM     28  C   UNL     1       5.117   5.769  18.771  0.00  0.00    +0.000 C 
BRANCH  28  29
ATOM     29  O   UNL     1       4.452   5.420  19.988  0.00  0.00    +0.000 OA
ATOM     30  H   UNL     1       4.752   6.035  20.680  0.00  0.00    +0.000 HD
ENDBRANCH  28  29
ENDBRANCH  22  23
ENDBRANCH  12  22
TORSDOF 4
ENDMDL
