MODEL 1
REMARK VINA RESULT:      -9.1      0.000      0.000
REMARK  Name = 
REMARK  4 active torsions:
REMARK  status: ('A' for Active; 'I' for Inactive)
REMARK    1  A    between atoms: C_7  and  N_8
REMARK    2  A    between atoms: N_8  and  C_9
REMARK    3  A    between atoms: C_9  and  C_10
REMARK    4  A    between atoms: C_13  and  C_14
REMARK                            x       y       z     vdW  Elec       q    Type
REMARK                         _______ _______ _______ _____ _____    ______ ____
ROOT
ATOM      1  N   UNL     1       7.481   4.845  18.150  0.00  0.00    +0.000 N 
ATOM      2  H   UNL     1       8.134   4.509  17.443  0.00  0.00    +0.000 HD
ENDROOT
BRANCH   1   9
ATOM      3  O   UNL     1       0.315   2.297  18.494  0.00  0.00    +0.000 OA
ATOM      4  C   UNL     1       1.381   2.900  18.581  0.00  0.00    +0.000 C 
ATOM      5  C   UNL     1       1.838   3.633  19.838  0.00  0.00    +0.000 C 
ATOM      6  O   UNL     1       3.235   3.759  20.069  0.00  0.00    +0.000 OA
ATOM      7  C   UNL     1       3.966   3.925  18.920  0.00  0.00    +0.000 A 
ATOM      8  C   UNL     1       5.286   4.355  19.089  0.00  0.00    +0.000 A 
ATOM      9  C   UNL     1       6.142   4.528  17.992  0.00  0.00    +0.000 A 
ATOM     10  C   UNL     1       5.611   4.251  16.712  0.00  0.00    +0.000 A 
ATOM     11 CL   UNL     1       6.587   4.447  15.293  0.00  0.00    +0.000 Cl
ATOM     12  C   UNL     1       4.298   3.792  16.535  0.00  0.00    +0.000 A 
ATOM     13  C   UNL     1       3.486   3.613  17.650  0.00  0.00    +0.000 A 
ATOM     14  N   UNL     1       2.213   3.056  17.501  0.00  0.00    +0.000 N 
ATOM     15  H   UNL     1       1.905   2.669  16.620  0.00  0.00    +0.000 HD
ENDBRANCH   1   9
BRANCH   1  16
ATOM     16  C   UNL     1       7.997   5.876  19.043  0.00  0.00    +0.000 C 
BRANCH  16  17
ATOM     17  C   UNL     1       8.046   7.257  18.460  0.00  0.00    +0.000 A 
ATOM     18  N   UNL     1       7.425   7.732  17.396  0.00  0.00    +0.000 NA
ATOM     19  C   UNL     1       7.797   9.050  17.366  0.00  0.00    +0.000 A 
ATOM     20  C   UNL     1       8.633   9.343  18.423  0.00  0.00    +0.000 A 
ATOM     21  O   UNL     1       8.809   8.179  19.129  0.00  0.00    +0.000 OA
BRANCH  20  22
ATOM     22  C   UNL     1       9.259  10.551  18.946  0.00  0.00    +0.000 A 
ATOM     23  C   UNL     1       9.575  10.689  20.307  0.00  0.00    +0.000 A 
ATOM     24  C   UNL     1      10.089  11.891  20.809  0.00  0.00    +0.000 A 
ATOM     25  C   UNL     1      10.297  12.971  19.954  0.00  0.00    +0.000 A 
ATOM     26  C   UNL     1      10.015  12.835  18.598  0.00  0.00    +0.000 A 
ATOM     27 CL   UNL     1      10.267  14.166  17.536  0.00  0.00    +0.000 Cl
ATOM     28  C   UNL     1       9.511  11.636  18.092  0.00  0.00    +0.000 A 
ENDBRANCH  20  22
ENDBRANCH  16  17
ENDBRANCH   1  16
TORSDOF 4
ENDMDL
MODEL 2
REMARK VINA RESULT:      -8.7      2.401      2.972
REMARK  Name = 
REMARK  4 active torsions:
REMARK  status: ('A' for Active; 'I' for Inactive)
REMARK    1  A    between atoms: C_7  and  N_8
REMARK    2  A    between atoms: N_8  and  C_9
REMARK    3  A    between atoms: C_9  and  C_10
REMARK    4  A    between atoms: C_13  and  C_14
REMARK                            x       y       z     vdW  Elec       q    Type
REMARK                         _______ _______ _______ _____ _____    ______ ____
ROOT
ATOM      1  N   UNL     1       4.512   6.673  16.718  0.00  0.00    +0.000 N 
ATOM      2  H   UNL     1       3.999   7.414  16.241  0.00  0.00    +0.000 HD
ENDROOT
BRANCH   1   9
ATOM      3  O   UNL     1       1.407   2.432  22.226  0.00  0.00    +0.000 OA
ATOM      4  C   UNL     1       2.128   3.052  21.450  0.00  0.00    +0.000 C 
ATOM      5  C   UNL     1       3.488   2.550  20.975  0.00  0.00    +0.000 C 
ATOM      6  O   UNL     1       3.948   2.972  19.698  0.00  0.00    +0.000 OA
ATOM      7  C   UNL     1       3.585   4.257  19.383  0.00  0.00    +0.000 A 
ATOM      8  C   UNL     1       4.250   4.834  18.296  0.00  0.00    +0.000 A 
ATOM      9  C   UNL     1       3.942   6.130  17.858  0.00  0.00    +0.000 A 
ATOM     10  C   UNL     1       2.933   6.824  18.564  0.00  0.00    +0.000 A 
ATOM     11 CL   UNL     1       2.491   8.437  18.106  0.00  0.00    +0.000 Cl
ATOM     12  C   UNL     1       2.242   6.244  19.636  0.00  0.00    +0.000 A 
ATOM     13  C   UNL     1       2.562   4.948  20.028  0.00  0.00    +0.000 A 
ATOM     14  N   UNL     1       1.811   4.317  21.022  0.00  0.00    +0.000 N 
ATOM     15  H   UNL     1       0.965   4.730  21.388  0.00  0.00    +0.000 HD
ENDBRANCH   1   9
BRANCH   1  16
ATOM     16  C   UNL     1       5.907   6.517  16.324  0.00  0.00    +0.000 C 
BRANCH  16  17
ATOM     17  C   UNL     1       6.908   7.075  17.291  0.00  0.00    +0.000 A 
ATOM     18  N   UNL     1       7.645   6.438  18.183  0.00  0.00    +0.000 NA
ATOM     19  C   UNL     1       8.404   7.431  18.744  0.00  0.00    +0.000 A 
ATOM     20  C   UNL     1       8.109   8.650  18.170  0.00  0.00    +0.000 A 
ATOM     21  O   UNL     1       7.129   8.427  17.236  0.00  0.00    +0.000 OA
BRANCH  20  22
ATOM     22  C   UNL     1       8.632  10.006  18.289  0.00  0.00    +0.000 A 
ATOM     23  C   UNL     1       8.084  11.075  17.563  0.00  0.00    +0.000 A 
ATOM     24  C   UNL     1       8.658  12.351  17.616  0.00  0.00    +0.000 A 
ATOM     25  C   UNL     1       9.787  12.575  18.400  0.00  0.00    +0.000 A 
ATOM     26  C   UNL     1      10.321  11.529  19.147  0.00  0.00    +0.000 A 
ATOM     27 CL   UNL     1      11.719  11.798  20.115  0.00  0.00    +0.000 Cl
ATOM     28  C   UNL     1       9.747  10.258  19.103  0.00  0.00    +0.000 A 
ENDBRANCH  20  22
ENDBRANCH  16  17
ENDBRANCH   1  16
TORSDOF 4
ENDMDL
MODEL 3
REMARK VINA RESULT:      -8.5      5.637      8.120
REMARK  Name = 
REMARK  4 active torsions:
REMARK  status: ('A' for Active; 'I' for Inactive)
REMARK    1  A    between atoms: C_7  and  N_8
REMARK    2  A    between atoms: N_8  and  C_9
REMARK    3  A    between atoms: C_9  and  C_10
REMARK    4  A    between atoms: C_13  and  C_14
REMARK                            x       y       z     vdW  Elec       q    Type
REMARK                         _______ _______ _______ _____ _____    ______ ____
ROOT
ATOM      1  N   UNL     1       2.005   7.182  20.922  0.00  0.00    +0.000 N 
ATOM      2  H   UNL     1       2.943   7.205  21.321  0.00  0.00    +0.000 HD
ENDROOT
BRANCH   1   9
ATOM      3  O   UNL     1      -2.869  12.990  21.611  0.00  0.00    +0.000 OA
ATOM      4  C   UNL     1      -1.974  12.155  21.707  0.00  0.00    +0.000 C 
ATOM      5  C   UNL     1      -1.448  11.628  23.037  0.00  0.00    +0.000 C 
ATOM      6  O   UNL     1      -0.905  10.315  23.069  0.00  0.00    +0.000 OA
ATOM      7  C   UNL     1      -0.229   9.975  21.925  0.00  0.00    +0.000 A 
ATOM      8  C   UNL     1       0.578   8.835  22.004  0.00  0.00    +0.000 A 
ATOM      9  C   UNL     1       1.291   8.369  20.891  0.00  0.00    +0.000 A 
ATOM     10  C   UNL     1       1.159   9.102  19.689  0.00  0.00    +0.000 A 
ATOM     11 CL   UNL     1       2.011   8.612  18.261  0.00  0.00    +0.000 Cl
ATOM     12  C   UNL     1       0.330  10.228  19.593  0.00  0.00    +0.000 A 
ATOM     13  C   UNL     1      -0.377  10.647  20.714  0.00  0.00    +0.000 A 
ATOM     14  N   UNL     1      -1.288  11.701  20.608  0.00  0.00    +0.000 N 
ATOM     15  H   UNL     1      -1.538  12.096  19.712  0.00  0.00    +0.000 HD
ENDBRANCH   1   9
BRANCH   1  16
ATOM     16  C   UNL     1       1.430   5.855  20.742  0.00  0.00    +0.000 C 
BRANCH  16  17
ATOM     17  C   UNL     1       1.967   5.081  19.575  0.00  0.00    +0.000 A 
ATOM     18  N   UNL     1       1.415   4.075  18.921  0.00  0.00    +0.000 NA
ATOM     19  C   UNL     1       2.320   3.797  17.931  0.00  0.00    +0.000 A 
ATOM     20  C   UNL     1       3.401   4.650  18.009  0.00  0.00    +0.000 A 
ATOM     21  O   UNL     1       3.183   5.477  19.083  0.00  0.00    +0.000 OA
BRANCH  20  22
ATOM     22  C   UNL     1       4.596   4.886  17.207  0.00  0.00    +0.000 A 
ATOM     23  C   UNL     1       4.934   4.058  16.124  0.00  0.00    +0.000 A 
ATOM     24  C   UNL     1       6.133   4.242  15.424  0.00  0.00    +0.000 A 
ATOM     25  C   UNL     1       7.008   5.259  15.797  0.00  0.00    +0.000 A 
ATOM     26  C   UNL     1       6.669   6.104  16.850  0.00  0.00    +0.000 A 
ATOM     27 CL   UNL     1       7.748   7.361  17.318  0.00  0.00    +0.000 Cl
ATOM     28  C   UNL     1       5.471   5.930  17.545  0.00  0.00    +0.000 A 
ENDBRANCH  20  22
ENDBRANCH  16  17
ENDBRANCH   1  16
TORSDOF 4
ENDMDL
MODEL 4
REMARK VINA RESULT:      -8.5      6.245      8.331
REMARK  Name = 
REMARK  4 active torsions:
REMARK  status: ('A' for Active; 'I' for Inactive)
REMARK    1  A    between atoms: C_7  and  N_8
REMARK    2  A    between atoms: N_8  and  C_9
REMARK    3  A    between atoms: C_9  and  C_10
REMARK    4  A    between atoms: C_13  and  C_14
REMARK                            x       y       z     vdW  Elec       q    Type
REMARK                         _______ _______ _______ _____ _____    ______ ____
ROOT
ATOM      1  N   UNL     1       2.150   7.422  17.751  0.00  0.00    +0.000 N 
ATOM      2  H   UNL     1       1.240   7.330  17.299  0.00  0.00    +0.000 HD
ENDROOT
BRANCH   1   9
ATOM      3  O   UNL     1       5.379   1.415  21.135  0.00  0.00    +0.000 OA
ATOM      4  C   UNL     1       4.653   2.232  20.577  0.00  0.00    +0.000 C 
ATOM      5  C   UNL     1       3.166   2.385  20.876  0.00  0.00    +0.000 C 
ATOM      6  O   UNL     1       2.571   3.662  20.679  0.00  0.00    +0.000 OA
ATOM      7  C   UNL     1       3.091   4.348  19.612  0.00  0.00    +0.000 A 
ATOM      8  C   UNL     1       2.358   5.457  19.179  0.00  0.00    +0.000 A 
ATOM      9  C   UNL     1       2.805   6.258  18.118  0.00  0.00    +0.000 A 
ATOM     10  C   UNL     1       4.026   5.892  17.507  0.00  0.00    +0.000 A 
ATOM     11 CL   UNL     1       4.656   6.811  16.179  0.00  0.00    +0.000 Cl
ATOM     12  C   UNL     1       4.781   4.798  17.952  0.00  0.00    +0.000 A 
ATOM     13  C   UNL     1       4.314   4.041  19.020  0.00  0.00    +0.000 A 
ATOM     14  N   UNL     1       5.105   3.015  19.544  0.00  0.00    +0.000 N 
ATOM     15  H   UNL     1       6.061   2.879  19.246  0.00  0.00    +0.000 HD
ENDBRANCH   1   9
BRANCH   1  16
ATOM     16  C   UNL     1       2.481   8.757  18.235  0.00  0.00    +0.000 C 
BRANCH  16  17
ATOM     17  C   UNL     1       1.311   9.576  18.694  0.00  0.00    +0.000 A 
ATOM     18  N   UNL     1       1.192  10.318  19.780  0.00  0.00    +0.000 NA
ATOM     19  C   UNL     1      -0.056  10.869  19.659  0.00  0.00    +0.000 A 
ATOM     20  C   UNL     1      -0.662  10.449  18.494  0.00  0.00    +0.000 A 
ATOM     21  O   UNL     1       0.216   9.599  17.869  0.00  0.00    +0.000 OA
BRANCH  20  22
ATOM     22  C   UNL     1      -1.911  10.754  17.805  0.00  0.00    +0.000 A 
ATOM     23  C   UNL     1      -2.978  11.392  18.458  0.00  0.00    +0.000 A 
ATOM     24  C   UNL     1      -4.202  11.592  17.810  0.00  0.00    +0.000 A 
ATOM     25  C   UNL     1      -4.375  11.160  16.498  0.00  0.00    +0.000 A 
ATOM     26  C   UNL     1      -3.315  10.553  15.831  0.00  0.00    +0.000 A 
ATOM     27 CL   UNL     1      -3.522  10.012  14.210  0.00  0.00    +0.000 Cl
ATOM     28  C   UNL     1      -2.089  10.359  16.470  0.00  0.00    +0.000 A 
ENDBRANCH  20  22
ENDBRANCH  16  17
ENDBRANCH   1  16
TORSDOF 4
ENDMDL
MODEL 5
REMARK VINA RESULT:      -8.5      5.293      7.362
REMARK  Name = 
REMARK  4 active torsions:
REMARK  status: ('A' for Active; 'I' for Inactive)
REMARK    1  A    between atoms: C_7  and  N_8
REMARK    2  A    between atoms: N_8  and  C_9
REMARK    3  A    between atoms: C_9  and  C_10
REMARK    4  A    between atoms: C_13  and  C_14
REMARK                            x       y       z     vdW  Elec       q    Type
REMARK                         _______ _______ _______ _____ _____    ______ ____
ROOT
ATOM      1  N   UNL     1       3.173   4.188  18.517  0.00  0.00    +0.000 N 
ATOM      2  H   UNL     1       2.776   3.718  17.704  0.00  0.00    +0.000 HD
ENDROOT
BRANCH   1   9
ATOM      3  O   UNL     1       1.092  11.351  20.039  0.00  0.00    +0.000 OA
ATOM      4  C   UNL     1       1.283  10.227  19.586  0.00  0.00    +0.000 C 
ATOM      5  C   UNL     1       1.433   9.930  18.098  0.00  0.00    +0.000 C 
ATOM      6  O   UNL     1       2.218   8.807  17.715  0.00  0.00    +0.000 OA
ATOM      7  C   UNL     1       2.115   7.748  18.581  0.00  0.00    +0.000 A 
ATOM      8  C   UNL     1       2.608   6.525  18.115  0.00  0.00    +0.000 A 
ATOM      9  C   UNL     1       2.589   5.378  18.921  0.00  0.00    +0.000 A 
ATOM     10  C   UNL     1       2.049   5.513  20.220  0.00  0.00    +0.000 A 
ATOM     11 CL   UNL     1       1.969   4.149  21.287  0.00  0.00    +0.000 Cl
ATOM     12  C   UNL     1       1.578   6.741  20.705  0.00  0.00    +0.000 A 
ATOM     13  C   UNL     1       1.633   7.861  19.883  0.00  0.00    +0.000 A 
ATOM     14  N   UNL     1       1.269   9.113  20.387  0.00  0.00    +0.000 N 
ATOM     15  H   UNL     1       1.076   9.251  21.369  0.00  0.00    +0.000 HD
ENDBRANCH   1   9
BRANCH   1  16
ATOM     16  C   UNL     1       4.487   3.716  18.937  0.00  0.00    +0.000 C 
BRANCH  16  17
ATOM     17  C   UNL     1       5.633   4.189  18.094  0.00  0.00    +0.000 A 
ATOM     18  N   UNL     1       6.806   4.661  18.476  0.00  0.00    +0.000 NA
ATOM     19  C   UNL     1       7.464   4.885  17.297  0.00  0.00    +0.000 A 
ATOM     20  C   UNL     1       6.671   4.535  16.224  0.00  0.00    +0.000 A 
ATOM     21  O   UNL     1       5.477   4.095  16.736  0.00  0.00    +0.000 OA
BRANCH  20  22
ATOM     22  C   UNL     1       6.851   4.470  14.778  0.00  0.00    +0.000 A 
ATOM     23  C   UNL     1       7.799   5.267  14.116  0.00  0.00    +0.000 A 
ATOM     24  C   UNL     1       7.894   5.261  12.719  0.00  0.00    +0.000 A 
ATOM     25  C   UNL     1       7.043   4.456  11.966  0.00  0.00    +0.000 A 
ATOM     26  C   UNL     1       6.120   3.640  12.614  0.00  0.00    +0.000 A 
ATOM     27 CL   UNL     1       5.063   2.645  11.690  0.00  0.00    +0.000 Cl
ATOM     28  C   UNL     1       6.028   3.636  14.007  0.00  0.00    +0.000 A 
ENDBRANCH  20  22
ENDBRANCH  16  17
ENDBRANCH   1  16
TORSDOF 4
ENDMDL
MODEL 6
REMARK VINA RESULT:      -8.4      5.133      8.040
REMARK  Name = 
REMARK  4 active torsions:
REMARK  status: ('A' for Active; 'I' for Inactive)
REMARK    1  A    between atoms: C_7  and  N_8
REMARK    2  A    between atoms: N_8  and  C_9
REMARK    3  A    between atoms: C_9  and  C_10
REMARK    4  A    between atoms: C_13  and  C_14
REMARK                            x       y       z     vdW  Elec       q    Type
REMARK                         _______ _______ _______ _____ _____    ______ ____
ROOT
ATOM      1  N   UNL     1       2.395   6.710  20.534  0.00  0.00    +0.000 N 
ATOM      2  H   UNL     1       3.253   6.720  21.084  0.00  0.00    +0.000 HD
ENDROOT
BRANCH   1   9
ATOM      3  O   UNL     1      -2.174  12.781  20.061  0.00  0.00    +0.000 OA
ATOM      4  C   UNL     1      -1.351  11.917  20.347  0.00  0.00    +0.000 C 
ATOM      5  C   UNL     1      -1.036  11.490  21.777  0.00  0.00    +0.000 C 
ATOM      6  O   UNL     1      -0.581  10.160  21.993  0.00  0.00    +0.000 OA
ATOM      7  C   UNL     1       0.218   9.685  20.984  0.00  0.00    +0.000 A 
ATOM      8  C   UNL     1       0.938   8.521  21.268  0.00  0.00    +0.000 A 
ATOM      9  C   UNL     1       1.763   7.921  20.305  0.00  0.00    +0.000 A 
ATOM     10  C   UNL     1       1.833   8.546  19.040  0.00  0.00    +0.000 A 
ATOM     11 CL   UNL     1       2.835   7.888  17.787  0.00  0.00    +0.000 Cl
ATOM     12  C   UNL     1       1.092   9.697  18.737  0.00  0.00    +0.000 A 
ATOM     13  C   UNL     1       0.270  10.250  19.712  0.00  0.00    +0.000 A 
ATOM     14  N   UNL     1      -0.555  11.333  19.394  0.00  0.00    +0.000 N 
ATOM     15  H   UNL     1      -0.660  11.655  18.442  0.00  0.00    +0.000 HD
ENDBRANCH   1   9
BRANCH   1  16
ATOM     16  C   UNL     1       1.785   5.399  20.344  0.00  0.00    +0.000 C 
BRANCH  16  17
ATOM     17  C   UNL     1       2.252   4.649  19.132  0.00  0.00    +0.000 A 
ATOM     18  N   UNL     1       1.591   3.781  18.387  0.00  0.00    +0.000 NA
ATOM     19  C   UNL     1       2.484   3.457  17.400  0.00  0.00    +0.000 A 
ATOM     20  C   UNL     1       3.667   4.144  17.570  0.00  0.00    +0.000 A 
ATOM     21  O   UNL     1       3.526   4.910  18.701  0.00  0.00    +0.000 OA
BRANCH  20  22
ATOM     22  C   UNL     1       4.909   4.273  16.818  0.00  0.00    +0.000 A 
ATOM     23  C   UNL     1       6.069   4.816  17.395  0.00  0.00    +0.000 A 
ATOM     24  C   UNL     1       7.225   5.020  16.631  0.00  0.00    +0.000 A 
ATOM     25  C   UNL     1       7.237   4.680  15.281  0.00  0.00    +0.000 A 
ATOM     26  C   UNL     1       6.103   4.113  14.707  0.00  0.00    +0.000 A 
ATOM     27 CL   UNL     1       6.110   3.694  13.037  0.00  0.00    +0.000 Cl
ATOM     28  C   UNL     1       4.951   3.900  15.466  0.00  0.00    +0.000 A 
ENDBRANCH  20  22
ENDBRANCH  16  17
ENDBRANCH   1  16
TORSDOF 4
ENDMDL
MODEL 7
REMARK VINA RESULT:      -8.4      6.794      8.827
REMARK  Name = 
REMARK  4 active torsions:
REMARK  status: ('A' for Active; 'I' for Inactive)
REMARK    1  A    between atoms: C_7  and  N_8
REMARK    2  A    between atoms: N_8  and  C_9
REMARK    3  A    between atoms: C_9  and  C_10
REMARK    4  A    between atoms: C_13  and  C_14
REMARK                            x       y       z     vdW  Elec       q    Type
REMARK                         _______ _______ _______ _____ _____    ______ ____
ROOT
ATOM      1  N   UNL     1       1.846   8.246  20.946  0.00  0.00    +0.000 N 
ATOM      2  H   UNL     1       2.652   8.854  21.090  0.00  0.00    +0.000 HD
ENDROOT
BRANCH   1   9
ATOM      3  O   UNL     1       3.497   1.461  17.915  0.00  0.00    +0.000 OA
ATOM      4  C   UNL     1       3.013   2.441  18.471  0.00  0.00    +0.000 C 
ATOM      5  C   UNL     1       2.173   2.363  19.742  0.00  0.00    +0.000 C 
ATOM      6  O   UNL     1       2.175   3.485  20.616  0.00  0.00    +0.000 OA
ATOM      7  C   UNL     1       2.251   4.688  19.961  0.00  0.00    +0.000 A 
ATOM      8  C   UNL     1       1.954   5.821  20.725  0.00  0.00    +0.000 A 
ATOM      9  C   UNL     1       2.029   7.109  20.176  0.00  0.00    +0.000 A 
ATOM     10  C   UNL     1       2.416   7.209  18.820  0.00  0.00    +0.000 A 
ATOM     11 CL   UNL     1       2.525   8.757  18.048  0.00  0.00    +0.000 Cl
ATOM     12  C   UNL     1       2.742   6.081  18.056  0.00  0.00    +0.000 A 
ATOM     13  C   UNL     1       2.675   4.822  18.642  0.00  0.00    +0.000 A 
ATOM     14  N   UNL     1       3.100   3.698  17.927  0.00  0.00    +0.000 N 
ATOM     15  H   UNL     1       3.566   3.785  17.035  0.00  0.00    +0.000 HD
ENDBRANCH   1   9
BRANCH   1  16
ATOM     16  C   UNL     1       0.553   8.822  21.295  0.00  0.00    +0.000 C 
BRANCH  16  17
ATOM     17  C   UNL     1       0.077   9.917  20.387  0.00  0.00    +0.000 A 
ATOM     18  N   UNL     1       0.560  11.137  20.234  0.00  0.00    +0.000 NA
ATOM     19  C   UNL     1      -0.227  11.674  19.250  0.00  0.00    +0.000 A 
ATOM     20  C   UNL     1      -1.167  10.758  18.826  0.00  0.00    +0.000 A 
ATOM     21  O   UNL     1      -0.983   9.620  19.570  0.00  0.00    +0.000 OA
BRANCH  20  22
ATOM     22  C   UNL     1      -2.186  10.725  17.783  0.00  0.00    +0.000 A 
ATOM     23  C   UNL     1      -1.991  10.025  16.582  0.00  0.00    +0.000 A 
ATOM     24  C   UNL     1      -2.940  10.082  15.554  0.00  0.00    +0.000 A 
ATOM     25  C   UNL     1      -4.099  10.836  15.716  0.00  0.00    +0.000 A 
ATOM     26  C   UNL     1      -4.317  11.509  16.914  0.00  0.00    +0.000 A 
ATOM     27 CL   UNL     1      -5.745  12.447  17.120  0.00  0.00    +0.000 Cl
ATOM     28  C   UNL     1      -3.378  11.449  17.945  0.00  0.00    +0.000 A 
ENDBRANCH  20  22
ENDBRANCH  16  17
ENDBRANCH   1  16
TORSDOF 4
ENDMDL
MODEL 8
REMARK VINA RESULT:      -8.4      5.673      8.393
REMARK  Name = 
REMARK  4 active torsions:
REMARK  status: ('A' for Active; 'I' for Inactive)
REMARK    1  A    between atoms: C_7  and  N_8
REMARK    2  A    between atoms: N_8  and  C_9
REMARK    3  A    between atoms: C_9  and  C_10
REMARK    4  A    between atoms: C_13  and  C_14
REMARK                            x       y       z     vdW  Elec       q    Type
REMARK                         _______ _______ _______ _____ _____    ______ ____
ROOT
ATOM      1  N   UNL     1       2.080   7.495  20.455  0.00  0.00    +0.000 N 
ATOM      2  H   UNL     1       3.089   7.610  20.363  0.00  0.00    +0.000 HD
ENDROOT
BRANCH   1   9
ATOM      3  O   UNL     1      -3.039  12.945  21.886  0.00  0.00    +0.000 OA
ATOM      4  C   UNL     1      -2.102  12.151  21.869  0.00  0.00    +0.000 C 
ATOM      5  C   UNL     1      -1.509  11.516  23.122  0.00  0.00    +0.000 C 
ATOM      6  O   UNL     1      -0.904  10.235  23.000  0.00  0.00    +0.000 OA
ATOM      7  C   UNL     1      -0.250  10.051  21.808  0.00  0.00    +0.000 A 
ATOM      8  C   UNL     1       0.612   8.952  21.745  0.00  0.00    +0.000 A 
ATOM      9  C   UNL     1       1.310   8.640  20.569  0.00  0.00    +0.000 A 
ATOM     10  C   UNL     1       1.104   9.486  19.456  0.00  0.00    +0.000 A 
ATOM     11 CL   UNL     1       1.932   9.192  17.961  0.00  0.00    +0.000 Cl
ATOM     12  C   UNL     1       0.221  10.573  19.502  0.00  0.00    +0.000 A 
ATOM     13  C   UNL     1      -0.469  10.837  20.680  0.00  0.00    +0.000 A 
ATOM     14  N   UNL     1      -1.432  11.850  20.710  0.00  0.00    +0.000 N 
ATOM     15  H   UNL     1      -1.729  12.323  19.868  0.00  0.00    +0.000 HD
ENDBRANCH   1   9
BRANCH   1  16
ATOM     16  C   UNL     1       1.628   6.147  20.780  0.00  0.00    +0.000 C 
BRANCH  16  17
ATOM     17  C   UNL     1       2.339   5.044  20.053  0.00  0.00    +0.000 A 
ATOM     18  N   UNL     1       2.026   3.763  19.977  0.00  0.00    +0.000 NA
ATOM     19  C   UNL     1       2.988   3.244  19.152  0.00  0.00    +0.000 A 
ATOM     20  C   UNL     1       3.859   4.231  18.741  0.00  0.00    +0.000 A 
ATOM     21  O   UNL     1       3.451   5.399  19.334  0.00  0.00    +0.000 OA
BRANCH  20  22
ATOM     22  C   UNL     1       4.990   4.300  17.823  0.00  0.00    +0.000 A 
ATOM     23  C   UNL     1       6.283   4.621  18.266  0.00  0.00    +0.000 A 
ATOM     24  C   UNL     1       7.338   4.776  17.359  0.00  0.00    +0.000 A 
ATOM     25  C   UNL     1       7.114   4.607  15.995  0.00  0.00    +0.000 A 
ATOM     26  C   UNL     1       5.843   4.258  15.547  0.00  0.00    +0.000 A 
ATOM     27 CL   UNL     1       5.557   4.051  13.862  0.00  0.00    +0.000 Cl
ATOM     28  C   UNL     1       4.790   4.095  16.449  0.00  0.00    +0.000 A 
ENDBRANCH  20  22
ENDBRANCH  16  17
ENDBRANCH   1  16
TORSDOF 4
ENDMDL
MODEL 9
REMARK VINA RESULT:      -8.2      6.560      8.648
REMARK  Name = 
REMARK  4 active torsions:
REMARK  status: ('A' for Active; 'I' for Inactive)
REMARK    1  A    between atoms: C_7  and  N_8
REMARK    2  A    between atoms: N_8  and  C_9
REMARK    3  A    between atoms: C_9  and  C_10
REMARK    4  A    between atoms: C_13  and  C_14
REMARK                            x       y       z     vdW  Elec       q    Type
REMARK                         _______ _______ _______ _____ _____    ______ ____
ROOT
ATOM      1  N   UNL     1       1.988   8.131  20.463  0.00  0.00    +0.000 N 
ATOM      2  H   UNL     1       2.657   8.876  20.270  0.00  0.00    +0.000 HD
ENDROOT
BRANCH   1   9
ATOM      3  O   UNL     1       3.674   0.992  18.427  0.00  0.00    +0.000 OA
ATOM      4  C   UNL     1       3.176   2.043  18.818  0.00  0.00    +0.000 C 
ATOM      5  C   UNL     1       2.234   2.139  20.013  0.00  0.00    +0.000 C 
ATOM      6  O   UNL     1       2.199   3.359  20.742  0.00  0.00    +0.000 OA
ATOM      7  C   UNL     1       2.363   4.471  19.955  0.00  0.00    +0.000 A 
ATOM      8  C   UNL     1       2.040   5.695  20.548  0.00  0.00    +0.000 A 
ATOM      9  C   UNL     1       2.197   6.904  19.854  0.00  0.00    +0.000 A 
ATOM     10  C   UNL     1       2.695   6.828  18.534  0.00  0.00    +0.000 A 
ATOM     11 CL   UNL     1       2.913   8.267  17.591  0.00  0.00    +0.000 Cl
ATOM     12  C   UNL     1       3.048   5.608  17.942  0.00  0.00    +0.000 A 
ATOM     13  C   UNL     1       2.897   4.432  18.669  0.00  0.00    +0.000 A 
ATOM     14  N   UNL     1       3.344   3.221  18.134  0.00  0.00    +0.000 N 
ATOM     15  H   UNL     1       3.882   3.187  17.280  0.00  0.00    +0.000 HD
ENDBRANCH   1   9
BRANCH   1  16
ATOM     16  C   UNL     1       0.739   8.553  21.087  0.00  0.00    +0.000 C 
BRANCH  16  17
ATOM     17  C   UNL     1       0.143   9.812  20.531  0.00  0.00    +0.000 A 
ATOM     18  N   UNL     1       0.527  11.063  20.711  0.00  0.00    +0.000 NA
ATOM     19  C   UNL     1      -0.341  11.783  19.934  0.00  0.00    +0.000 A 
ATOM     20  C   UNL     1      -1.229  10.945  19.295  0.00  0.00    +0.000 A 
ATOM     21  O   UNL     1      -0.928   9.665  19.688  0.00  0.00    +0.000 OA
BRANCH  20  22
ATOM     22  C   UNL     1      -2.290  11.115  18.308  0.00  0.00    +0.000 A 
ATOM     23  C   UNL     1      -3.523  11.697  18.643  0.00  0.00    +0.000 A 
ATOM     24  C   UNL     1      -4.564  11.767  17.709  0.00  0.00    +0.000 A 
ATOM     25  C   UNL     1      -4.382  11.259  16.425  0.00  0.00    +0.000 A 
ATOM     26  C   UNL     1      -3.154  10.708  16.073  0.00  0.00    +0.000 A 
ATOM     27 CL   UNL     1      -2.924  10.075  14.489  0.00  0.00    +0.000 Cl
ATOM     28  C   UNL     1      -2.111  10.643  16.999  0.00  0.00    +0.000 A 
ENDBRANCH  20  22
ENDBRANCH  16  17
ENDBRANCH   1  16
TORSDOF 4
ENDMDL
