MODEL 1
REMARK VINA RESULT:      -7.9      0.000      0.000
REMARK  Name = 
REMARK  4 active torsions:
REMARK  status: ('A' for Active; 'I' for Inactive)
REMARK    1  A    between atoms: C_1  and  C_2
REMARK    2  A    between atoms: C_5  and  C_6
REMARK    3  A    between atoms: C_9  and  C_10
REMARK    4  A    between atoms: C_18  and  C_19
REMARK                            x       y       z     vdW  Elec       q    Type
REMARK                         _______ _______ _______ _____ _____    ______ ____
ROOT
ATOM      1  C   UNL     1       6.880   6.317  16.891  0.00  0.00    +0.000 C 
ATOM      2  O   UNL     1       7.531   5.817  15.982  0.00  0.00    +0.000 OA
ATOM      3  N   UNL     1       5.625   5.878  17.299  0.00  0.00    +0.000 N 
ATOM      4  C   UNL     1       5.002   4.690  16.740  0.00  0.00    +0.000 C 
ATOM      5  C   UNL     1       5.293   3.641  17.815  0.00  0.00    +0.000 C 
ATOM      6  C   UNL     1       5.412   4.456  19.113  0.00  0.00    +0.000 C 
ATOM      7  C   UNL     1       5.192   5.914  18.691  0.00  0.00    +0.000 C 
ATOM      8  C   UNL     1       3.748   6.424  18.670  0.00  0.00    +0.000 C 
ATOM      9  C   UNL     1       2.782   5.516  17.875  0.00  0.00    +0.000 C 
ATOM     10  C   UNL     1       3.483   4.943  16.600  0.00  0.00    +0.000 C 
ENDROOT
BRANCH   1  14
ATOM     11  C   UNL     1       8.846   9.574  18.829  0.00  0.00    +0.000 A 
ATOM     12  C   UNL     1       9.005   8.269  19.308  0.00  0.00    +0.000 A 
ATOM     13  C   UNL     1       8.280   7.221  18.748  0.00  0.00    +0.000 A 
ATOM     14  C   UNL     1       7.442   7.461  17.653  0.00  0.00    +0.000 A 
ATOM     15  C   UNL     1       7.247   8.760  17.182  0.00  0.00    +0.000 A 
ATOM     16  C   UNL     1       7.949   9.817  17.774  0.00  0.00    +0.000 A 
BRANCH  11  21
ATOM     17  C   UNL     1      12.017  13.343  19.320  0.00  0.00    +0.000 C 
ATOM     18  C   UNL     1      11.010  12.324  19.672  0.00  0.00    +0.000 A 
ATOM     19  N   UNL     1      10.366  12.179  20.807  0.00  0.00    +0.000 NA
ATOM     20  N   UNL     1       9.483  11.134  20.659  0.00  0.00    +0.000 NA
ATOM     21  C   UNL     1       9.622  10.644  19.446  0.00  0.00    +0.000 A 
ATOM     22  N   UNL     1      10.583  11.367  18.796  0.00  0.00    +0.000 N 
ATOM     23  H   UNL     1      10.869  11.257  17.834  0.00  0.00    +0.000 HD
ENDBRANCH  11  21
ENDBRANCH   1  14
BRANCH   9  24
ATOM     24  C   UNL     1       1.998   4.499  18.709  0.00  0.00    +0.000 A 
ATOM     25  C   UNL     1       1.468   3.309  18.177  0.00  0.00    +0.000 A 
ATOM     26  C   UNL     1       0.835   2.362  18.984  0.00  0.00    +0.000 A 
ATOM     27  C   UNL     1       0.730   2.574  20.351  0.00  0.00    +0.000 A 
ATOM     28  C   UNL     1       1.263   3.730  20.910  0.00  0.00    +0.000 A 
ATOM     29  C   UNL     1       1.897   4.678  20.099  0.00  0.00    +0.000 A 
ENDBRANCH   9  24
TORSDOF 3
ENDMDL
MODEL 2
REMARK VINA RESULT:      -7.5      7.207      9.907
REMARK  Name = 
REMARK  4 active torsions:
REMARK  status: ('A' for Active; 'I' for Inactive)
REMARK    1  A    between atoms: C_1  and  C_2
REMARK    2  A    between atoms: C_5  and  C_6
REMARK    3  A    between atoms: C_9  and  C_10
REMARK    4  A    between atoms: C_18  and  C_19
REMARK                            x       y       z     vdW  Elec       q    Type
REMARK                         _______ _______ _______ _____ _____    ______ ____
ROOT
ATOM      1  C   UNL     1       1.293  11.363  19.216  0.00  0.00    +0.000 C 
ATOM      2  O   UNL     1       1.867  12.089  18.412  0.00  0.00    +0.000 OA
ATOM      3  N   UNL     1       0.435  11.812  20.215  0.00  0.00    +0.000 N 
ATOM      4  C   UNL     1       0.048  13.208  20.332  0.00  0.00    +0.000 C 
ATOM      5  C   UNL     1      -1.334  13.212  19.677  0.00  0.00    +0.000 C 
ATOM      6  C   UNL     1      -1.857  11.783  19.892  0.00  0.00    +0.000 C 
ATOM      7  C   UNL     1      -0.735  11.056  20.645  0.00  0.00    +0.000 C 
ATOM      8  C   UNL     1      -0.753  11.141  22.174  0.00  0.00    +0.000 C 
ATOM      9  C   UNL     1      -0.871  12.586  22.713  0.00  0.00    +0.000 C 
ATOM     10  C   UNL     1      -0.040  13.575  21.831  0.00  0.00    +0.000 C 
ENDROOT
BRANCH   1  14
ATOM     11  C   UNL     1       2.251   7.204  19.091  0.00  0.00    +0.000 A 
ATOM     12  C   UNL     1       2.322   7.979  17.928  0.00  0.00    +0.000 A 
ATOM     13  C   UNL     1       1.906   9.307  17.941  0.00  0.00    +0.000 A 
ATOM     14  C   UNL     1       1.482   9.892  19.140  0.00  0.00    +0.000 A 
ATOM     15  C   UNL     1       1.375   9.127  20.302  0.00  0.00    +0.000 A 
ATOM     16  C   UNL     1       1.758   7.781  20.274  0.00  0.00    +0.000 A 
BRANCH  11  21
ATOM     17  C   UNL     1       2.356   2.390  17.946  0.00  0.00    +0.000 C 
ATOM     18  C   UNL     1       2.761   3.688  18.519  0.00  0.00    +0.000 A 
ATOM     19  N   UNL     1       3.883   3.988  19.133  0.00  0.00    +0.000 NA
ATOM     20  N   UNL     1       3.847   5.328  19.442  0.00  0.00    +0.000 NA
ATOM     21  C   UNL     1       2.695   5.817  19.033  0.00  0.00    +0.000 A 
ATOM     22  N   UNL     1       1.981   4.806  18.452  0.00  0.00    +0.000 N 
ATOM     23  H   UNL     1       1.082   4.890  18.000  0.00  0.00    +0.000 HD
ENDBRANCH  11  21
ENDBRANCH   1  14
BRANCH   9  24
ATOM     24  C   UNL     1      -2.289  13.045  23.060  0.00  0.00    +0.000 A 
ATOM     25  C   UNL     1      -3.246  12.209  23.664  0.00  0.00    +0.000 A 
ATOM     26  C   UNL     1      -4.500  12.686  24.047  0.00  0.00    +0.000 A 
ATOM     27  C   UNL     1      -4.826  14.020  23.850  0.00  0.00    +0.000 A 
ATOM     28  C   UNL     1      -3.894  14.877  23.275  0.00  0.00    +0.000 A 
ATOM     29  C   UNL     1      -2.637  14.397  22.891  0.00  0.00    +0.000 A 
ENDBRANCH   9  24
TORSDOF 3
ENDMDL
MODEL 3
REMARK VINA RESULT:      -7.4      8.022     10.596
REMARK  Name = 
REMARK  4 active torsions:
REMARK  status: ('A' for Active; 'I' for Inactive)
REMARK    1  A    between atoms: C_1  and  C_2
REMARK    2  A    between atoms: C_5  and  C_6
REMARK    3  A    between atoms: C_9  and  C_10
REMARK    4  A    between atoms: C_18  and  C_19
REMARK                            x       y       z     vdW  Elec       q    Type
REMARK                         _______ _______ _______ _____ _____    ______ ____
ROOT
ATOM      1  C   UNL     1       0.906  11.891  20.255  0.00  0.00    +0.000 C 
ATOM      2  O   UNL     1       1.609  12.605  19.550  0.00  0.00    +0.000 OA
ATOM      3  N   UNL     1      -0.068  12.357  21.132  0.00  0.00    +0.000 N 
ATOM      4  C   UNL     1      -0.422  13.764  21.216  0.00  0.00    +0.000 C 
ATOM      5  C   UNL     1      -1.699  13.823  20.376  0.00  0.00    +0.000 C 
ATOM      6  C   UNL     1      -2.292  12.411  20.494  0.00  0.00    +0.000 C 
ATOM      7  C   UNL     1      -1.310  11.638  21.384  0.00  0.00    +0.000 C 
ATOM      8  C   UNL     1      -1.538  11.706  22.897  0.00  0.00    +0.000 C 
ATOM      9  C   UNL     1      -1.683  13.148  23.436  0.00  0.00    +0.000 C 
ATOM     10  C   UNL     1      -0.706  14.119  22.694  0.00  0.00    +0.000 C 
ENDROOT
BRANCH   1  14
ATOM     11  C   UNL     1       1.761   7.710  20.094  0.00  0.00    +0.000 A 
ATOM     12  C   UNL     1       1.718   8.467  18.918  0.00  0.00    +0.000 A 
ATOM     13  C   UNL     1       1.332   9.804  18.955  0.00  0.00    +0.000 A 
ATOM     14  C   UNL     1       1.055  10.415  20.183  0.00  0.00    +0.000 A 
ATOM     15  C   UNL     1       1.062   9.669  21.363  0.00  0.00    +0.000 A 
ATOM     16  C   UNL     1       1.413   8.315  21.315  0.00  0.00    +0.000 A 
BRANCH  11  21
ATOM     17  C   UNL     1       2.464   2.979  21.366  0.00  0.00    +0.000 C 
ATOM     18  C   UNL     1       2.468   4.212  20.556  0.00  0.00    +0.000 A 
ATOM     19  N   UNL     1       2.796   4.350  19.292  0.00  0.00    +0.000 NA
ATOM     20  N   UNL     1       2.592   5.666  18.946  0.00  0.00    +0.000 NA
ATOM     21  C   UNL     1       2.167   6.313  20.011  0.00  0.00    +0.000 A 
ATOM     22  N   UNL     1       2.084   5.426  21.048  0.00  0.00    +0.000 N 
ATOM     23  H   UNL     1       1.740   5.621  21.977  0.00  0.00    +0.000 HD
ENDBRANCH  11  21
ENDBRANCH   1  14
BRANCH   9  24
ATOM     24  C   UNL     1      -3.121  13.652  23.591  0.00  0.00    +0.000 A 
ATOM     25  C   UNL     1      -3.488  15.001  23.430  0.00  0.00    +0.000 A 
ATOM     26  C   UNL     1      -4.821  15.411  23.491  0.00  0.00    +0.000 A 
ATOM     27  C   UNL     1      -5.826  14.478  23.700  0.00  0.00    +0.000 A 
ATOM     28  C   UNL     1      -5.497  13.134  23.843  0.00  0.00    +0.000 A 
ATOM     29  C   UNL     1      -4.160  12.725  23.780  0.00  0.00    +0.000 A 
ENDBRANCH   9  24
TORSDOF 3
ENDMDL
MODEL 4
REMARK VINA RESULT:      -7.3      6.665      9.592
REMARK  Name = 
REMARK  4 active torsions:
REMARK  status: ('A' for Active; 'I' for Inactive)
REMARK    1  A    between atoms: C_1  and  C_2
REMARK    2  A    between atoms: C_5  and  C_6
REMARK    3  A    between atoms: C_9  and  C_10
REMARK    4  A    between atoms: C_18  and  C_19
REMARK                            x       y       z     vdW  Elec       q    Type
REMARK                         _______ _______ _______ _____ _____    ______ ____
ROOT
ATOM      1  C   UNL     1       1.651  10.243  18.814  0.00  0.00    +0.000 C 
ATOM      2  O   UNL     1       2.286  10.772  17.909  0.00  0.00    +0.000 OA
ATOM      3  N   UNL     1       0.822  10.923  19.700  0.00  0.00    +0.000 N 
ATOM      4  C   UNL     1       0.543  12.343  19.563  0.00  0.00    +0.000 C 
ATOM      5  C   UNL     1      -0.830  12.334  18.887  0.00  0.00    +0.000 C 
ATOM      6  C   UNL     1      -1.463  11.009  19.338  0.00  0.00    +0.000 C 
ATOM      7  C   UNL     1      -0.406  10.344  20.230  0.00  0.00    +0.000 C 
ATOM      8  C   UNL     1      -0.430  10.698  21.720  0.00  0.00    +0.000 C 
ATOM      9  C   UNL     1      -0.442  12.220  21.995  0.00  0.00    +0.000 C 
ATOM     10  C   UNL     1       0.470  12.974  20.972  0.00  0.00    +0.000 C 
ENDROOT
BRANCH   1  14
ATOM     11  C   UNL     1       2.291   6.066  19.423  0.00  0.00    +0.000 A 
ATOM     12  C   UNL     1       2.383   6.614  18.138  0.00  0.00    +0.000 A 
ATOM     13  C   UNL     1       2.068   7.951  17.920  0.00  0.00    +0.000 A 
ATOM     14  C   UNL     1       1.727   8.772  19.001  0.00  0.00    +0.000 A 
ATOM     15  C   UNL     1       1.599   8.237  20.283  0.00  0.00    +0.000 A 
ATOM     16  C   UNL     1       1.879   6.881  20.492  0.00  0.00    +0.000 A 
BRANCH  11  21
ATOM     17  C   UNL     1       3.639   1.420  18.374  0.00  0.00    +0.000 C 
ATOM     18  C   UNL     1       3.240   2.604  19.158  0.00  0.00    +0.000 A 
ATOM     19  N   UNL     1       3.191   2.732  20.465  0.00  0.00    +0.000 NA
ATOM     20  N   UNL     1       2.822   4.028  20.746  0.00  0.00    +0.000 NA
ATOM     21  C   UNL     1       2.627   4.659  19.608  0.00  0.00    +0.000 A 
ATOM     22  N   UNL     1       2.875   3.788  18.584  0.00  0.00    +0.000 N 
ATOM     23  H   UNL     1       2.859   4.002  17.598  0.00  0.00    +0.000 HD
ENDBRANCH  11  21
ENDBRANCH   1  14
BRANCH   9  24
ATOM     24  C   UNL     1      -1.823  12.837  22.226  0.00  0.00    +0.000 A 
ATOM     25  C   UNL     1      -2.841  12.201  22.958  0.00  0.00    +0.000 A 
ATOM     26  C   UNL     1      -4.059  12.831  23.224  0.00  0.00    +0.000 A 
ATOM     27  C   UNL     1      -4.284  14.123  22.775  0.00  0.00    +0.000 A 
ATOM     28  C   UNL     1      -3.289  14.788  22.065  0.00  0.00    +0.000 A 
ATOM     29  C   UNL     1      -2.070  14.154  21.801  0.00  0.00    +0.000 A 
ENDBRANCH   9  24
TORSDOF 3
ENDMDL
MODEL 5
REMARK VINA RESULT:      -7.3      6.521      9.840
REMARK  Name = 
REMARK  4 active torsions:
REMARK  status: ('A' for Active; 'I' for Inactive)
REMARK    1  A    between atoms: C_1  and  C_2
REMARK    2  A    between atoms: C_5  and  C_6
REMARK    3  A    between atoms: C_9  and  C_10
REMARK    4  A    between atoms: C_18  and  C_19
REMARK                            x       y       z     vdW  Elec       q    Type
REMARK                         _______ _______ _______ _____ _____    ______ ____
ROOT
ATOM      1  C   UNL     1       0.020  10.386  19.306  0.00  0.00    +0.000 C 
ATOM      2  O   UNL     1      -1.111  10.019  19.603  0.00  0.00    +0.000 OA
ATOM      3  N   UNL     1       0.410  11.714  19.169  0.00  0.00    +0.000 N 
ATOM      4  C   UNL     1      -0.484  12.818  19.478  0.00  0.00    +0.000 C 
ATOM      5  C   UNL     1      -0.016  13.227  20.876  0.00  0.00    +0.000 C 
ATOM      6  C   UNL     1       1.463  12.813  20.913  0.00  0.00    +0.000 C 
ATOM      7  C   UNL     1       1.738  12.187  19.540  0.00  0.00    +0.000 C 
ATOM      8  C   UNL     1       2.178  13.132  18.418  0.00  0.00    +0.000 C 
ATOM      9  C   UNL     1       1.249  14.356  18.240  0.00  0.00    +0.000 C 
ATOM     10  C   UNL     1      -0.247  13.952  18.453  0.00  0.00    +0.000 C 
ENDROOT
BRANCH   1  14
ATOM     11  C   UNL     1       2.772   7.208  18.559  0.00  0.00    +0.000 A 
ATOM     12  C   UNL     1       2.208   7.369  19.830  0.00  0.00    +0.000 A 
ATOM     13  C   UNL     1       1.398   8.467  20.107  0.00  0.00    +0.000 A 
ATOM     14  C   UNL     1       1.086   9.376  19.089  0.00  0.00    +0.000 A 
ATOM     15  C   UNL     1       1.663   9.249  17.825  0.00  0.00    +0.000 A 
ATOM     16  C   UNL     1       2.509   8.165  17.563  0.00  0.00    +0.000 A 
BRANCH  11  21
ATOM     17  C   UNL     1       5.716   4.006  16.198  0.00  0.00    +0.000 C 
ATOM     18  C   UNL     1       4.935   4.631  17.283  0.00  0.00    +0.000 A 
ATOM     19  N   UNL     1       4.897   4.294  18.552  0.00  0.00    +0.000 NA
ATOM     20  N   UNL     1       4.081   5.193  19.200  0.00  0.00    +0.000 NA
ATOM     21  C   UNL     1       3.618   6.047  18.313  0.00  0.00    +0.000 A 
ATOM     22  N   UNL     1       4.131   5.717  17.089  0.00  0.00    +0.000 N 
ATOM     23  H   UNL     1       3.995   6.223  16.226  0.00  0.00    +0.000 HD
ENDBRANCH  11  21
ENDBRANCH   1  14
BRANCH   9  24
ATOM     24  C   UNL     1       1.695  15.632  18.959  0.00  0.00    +0.000 A 
ATOM     25  C   UNL     1       0.798  16.605  19.433  0.00  0.00    +0.000 A 
ATOM     26  C   UNL     1       1.233  17.713  20.162  0.00  0.00    +0.000 A 
ATOM     27  C   UNL     1       2.581  17.869  20.450  0.00  0.00    +0.000 A 
ATOM     28  C   UNL     1       3.492  16.912  20.013  0.00  0.00    +0.000 A 
ATOM     29  C   UNL     1       3.052  15.802  19.283  0.00  0.00    +0.000 A 
ENDBRANCH   9  24
TORSDOF 3
ENDMDL
MODEL 6
REMARK VINA RESULT:      -7.3      6.748     10.089
REMARK  Name = 
REMARK  4 active torsions:
REMARK  status: ('A' for Active; 'I' for Inactive)
REMARK    1  A    between atoms: C_1  and  C_2
REMARK    2  A    between atoms: C_5  and  C_6
REMARK    3  A    between atoms: C_9  and  C_10
REMARK    4  A    between atoms: C_18  and  C_19
REMARK                            x       y       z     vdW  Elec       q    Type
REMARK                         _______ _______ _______ _____ _____    ______ ____
ROOT
ATOM      1  C   UNL     1      -0.140  10.549  19.042  0.00  0.00    +0.000 C 
ATOM      2  O   UNL     1      -1.317  10.216  18.975  0.00  0.00    +0.000 OA
ATOM      3  N   UNL     1       0.308  11.864  19.118  0.00  0.00    +0.000 N 
ATOM      4  C   UNL     1      -0.609  12.986  19.235  0.00  0.00    +0.000 C 
ATOM      5  C   UNL     1      -0.555  13.287  20.734  0.00  0.00    +0.000 C 
ATOM      6  C   UNL     1       0.839  12.805  21.164  0.00  0.00    +0.000 C 
ATOM      7  C   UNL     1       1.483  12.252  19.887  0.00  0.00    +0.000 C 
ATOM      8  C   UNL     1       2.253  13.243  19.008  0.00  0.00    +0.000 C 
ATOM      9  C   UNL     1       1.448  14.516  18.660  0.00  0.00    +0.000 C 
ATOM     10  C   UNL     1      -0.056  14.168  18.405  0.00  0.00    +0.000 C 
ENDROOT
BRANCH   1  14
ATOM     11  C   UNL     1       2.592   7.267  19.008  0.00  0.00    +0.000 A 
ATOM     12  C   UNL     1       1.923   7.616  20.187  0.00  0.00    +0.000 A 
ATOM     13  C   UNL     1       1.118   8.750  20.230  0.00  0.00    +0.000 A 
ATOM     14  C   UNL     1       0.917   9.506  19.068  0.00  0.00    +0.000 A 
ATOM     15  C   UNL     1       1.600   9.191  17.893  0.00  0.00    +0.000 A 
ATOM     16  C   UNL     1       2.439   8.072  17.866  0.00  0.00    +0.000 A 
BRANCH  11  21
ATOM     17  C   UNL     1       4.097   2.633  19.877  0.00  0.00    +0.000 C 
ATOM     18  C   UNL     1       4.097   4.018  19.371  0.00  0.00    +0.000 A 
ATOM     19  N   UNL     1       4.955   4.581  18.550  0.00  0.00    +0.000 NA
ATOM     20  N   UNL     1       4.525   5.866  18.310  0.00  0.00    +0.000 NA
ATOM     21  C   UNL     1       3.428   6.073  19.007  0.00  0.00    +0.000 A 
ATOM     22  N   UNL     1       3.133   4.928  19.694  0.00  0.00    +0.000 N 
ATOM     23  H   UNL     1       2.320   4.769  20.272  0.00  0.00    +0.000 HD
ENDBRANCH  11  21
ENDBRANCH   1  14
BRANCH   9  24
ATOM     24  C   UNL     1       1.700  15.724  19.566  0.00  0.00    +0.000 A 
ATOM     25  C   UNL     1       2.880  15.899  20.310  0.00  0.00    +0.000 A 
ATOM     26  C   UNL     1       3.114  17.055  21.056  0.00  0.00    +0.000 A 
ATOM     27  C   UNL     1       2.175  18.076  21.066  0.00  0.00    +0.000 A 
ATOM     28  C   UNL     1       1.007  17.943  20.324  0.00  0.00    +0.000 A 
ATOM     29  C   UNL     1       0.775  16.783  19.576  0.00  0.00    +0.000 A 
ENDBRANCH   9  24
TORSDOF 3
ENDMDL
MODEL 7
REMARK VINA RESULT:      -7.2      8.800     11.188
REMARK  Name = 
REMARK  4 active torsions:
REMARK  status: ('A' for Active; 'I' for Inactive)
REMARK    1  A    between atoms: C_1  and  C_2
REMARK    2  A    between atoms: C_5  and  C_6
REMARK    3  A    between atoms: C_9  and  C_10
REMARK    4  A    between atoms: C_18  and  C_19
REMARK                            x       y       z     vdW  Elec       q    Type
REMARK                         _______ _______ _______ _____ _____    ______ ____
ROOT
ATOM      1  C   UNL     1       0.270  12.605  21.174  0.00  0.00    +0.000 C 
ATOM      2  O   UNL     1       1.035  13.441  20.710  0.00  0.00    +0.000 OA
ATOM      3  N   UNL     1      -0.857  12.900  21.936  0.00  0.00    +0.000 N 
ATOM      4  C   UNL     1      -1.298  14.266  22.165  0.00  0.00    +0.000 C 
ATOM      5  C   UNL     1      -2.425  14.414  21.141  0.00  0.00    +0.000 C 
ATOM      6  C   UNL     1      -2.950  12.982  20.951  0.00  0.00    +0.000 C 
ATOM      7  C   UNL     1      -2.081  12.112  21.869  0.00  0.00    +0.000 C 
ATOM      8  C   UNL     1      -2.552  11.940  23.316  0.00  0.00    +0.000 C 
ATOM      9  C   UNL     1      -2.862  13.276  24.029  0.00  0.00    +0.000 C 
ATOM     10  C   UNL     1      -1.835  14.379  23.610  0.00  0.00    +0.000 C 
ENDROOT
BRANCH   1  14
ATOM     11  C   UNL     1       1.386   8.548  20.449  0.00  0.00    +0.000 A 
ATOM     12  C   UNL     1       1.212   9.434  19.380  0.00  0.00    +0.000 A 
ATOM     13  C   UNL     1       0.742  10.724  19.604  0.00  0.00    +0.000 A 
ATOM     14  C   UNL     1       0.511  11.163  20.913  0.00  0.00    +0.000 A 
ATOM     15  C   UNL     1       0.649  10.285  21.989  0.00  0.00    +0.000 A 
ATOM     16  C   UNL     1       1.084   8.976  21.754  0.00  0.00    +0.000 A 
BRANCH  11  21
ATOM     17  C   UNL     1       2.267   3.706  20.977  0.00  0.00    +0.000 C 
ATOM     18  C   UNL     1       2.259   5.057  20.384  0.00  0.00    +0.000 A 
ATOM     19  N   UNL     1       2.669   5.421  19.191  0.00  0.00    +0.000 NA
ATOM     20  N   UNL     1       2.415   6.766  19.051  0.00  0.00    +0.000 NA
ATOM     21  C   UNL     1       1.878   7.204  20.170  0.00  0.00    +0.000 A 
ATOM     22  N   UNL     1       1.771   6.153  21.037  0.00  0.00    +0.000 N 
ATOM     23  H   UNL     1       1.350   6.172  21.954  0.00  0.00    +0.000 HD
ENDBRANCH  11  21
ENDBRANCH   1  14
BRANCH   9  24
ATOM     24  C   UNL     1      -4.332  13.705  24.014  0.00  0.00    +0.000 A 
ATOM     25  C   UNL     1      -4.745  15.040  23.852  0.00  0.00    +0.000 A 
ATOM     26  C   UNL     1      -6.094  15.384  23.754  0.00  0.00    +0.000 A 
ATOM     27  C   UNL     1      -7.068  14.398  23.801  0.00  0.00    +0.000 A 
ATOM     28  C   UNL     1      -6.690  13.066  23.940  0.00  0.00    +0.000 A 
ATOM     29  C   UNL     1      -5.337  12.723  24.037  0.00  0.00    +0.000 A 
ENDBRANCH   9  24
TORSDOF 3
ENDMDL
MODEL 8
REMARK VINA RESULT:      -7.2      6.907      9.932
REMARK  Name = 
REMARK  4 active torsions:
REMARK  status: ('A' for Active; 'I' for Inactive)
REMARK    1  A    between atoms: C_1  and  C_2
REMARK    2  A    between atoms: C_5  and  C_6
REMARK    3  A    between atoms: C_9  and  C_10
REMARK    4  A    between atoms: C_18  and  C_19
REMARK                            x       y       z     vdW  Elec       q    Type
REMARK                         _______ _______ _______ _____ _____    ______ ____
ROOT
ATOM      1  C   UNL     1       0.062  10.147  20.454  0.00  0.00    +0.000 C 
ATOM      2  O   UNL     1      -0.670   9.694  21.326  0.00  0.00    +0.000 OA
ATOM      3  N   UNL     1       0.061  11.471  20.030  0.00  0.00    +0.000 N 
ATOM      4  C   UNL     1      -0.754  12.488  20.673  0.00  0.00    +0.000 C 
ATOM      5  C   UNL     1       0.260  13.183  21.583  0.00  0.00    +0.000 C 
ATOM      6  C   UNL     1       1.607  12.974  20.874  0.00  0.00    +0.000 C 
ATOM      7  C   UNL     1       1.274  12.165  19.613  0.00  0.00    +0.000 C 
ATOM      8  C   UNL     1       0.897  12.956  18.357  0.00  0.00    +0.000 C 
ATOM      9  C   UNL     1      -0.215  14.004  18.596  0.00  0.00    +0.000 C 
ATOM     10  C   UNL     1      -1.290  13.454  19.591  0.00  0.00    +0.000 C 
ENDROOT
BRANCH   1  14
ATOM     11  C   UNL     1       2.572   7.332  18.452  0.00  0.00    +0.000 A 
ATOM     12  C   UNL     1       2.331   7.210  19.825  0.00  0.00    +0.000 A 
ATOM     13  C   UNL     1       1.605   8.186  20.501  0.00  0.00    +0.000 A 
ATOM     14  C   UNL     1       1.050   9.258  19.792  0.00  0.00    +0.000 A 
ATOM     15  C   UNL     1       1.306   9.413  18.429  0.00  0.00    +0.000 A 
ATOM     16  C   UNL     1       2.071   8.450  17.761  0.00  0.00    +0.000 A 
BRANCH  11  21
ATOM     17  C   UNL     1       6.121   5.146  15.782  0.00  0.00    +0.000 C 
ATOM     18  C   UNL     1       4.915   5.309  16.617  0.00  0.00    +0.000 A 
ATOM     19  N   UNL     1       4.167   4.371  17.151  0.00  0.00    +0.000 NA
ATOM     20  N   UNL     1       3.188   4.988  17.896  0.00  0.00    +0.000 NA
ATOM     21  C   UNL     1       3.340   6.290  17.782  0.00  0.00    +0.000 A 
ATOM     22  N   UNL     1       4.418   6.529  16.976  0.00  0.00    +0.000 N 
ATOM     23  H   UNL     1       4.809   7.431  16.749  0.00  0.00    +0.000 HD
ENDBRANCH  11  21
ENDBRANCH   1  14
BRANCH   9  24
ATOM     24  C   UNL     1       0.271  15.429  18.873  0.00  0.00    +0.000 A 
ATOM     25  C   UNL     1       1.596  15.848  18.658  0.00  0.00    +0.000 A 
ATOM     26  C   UNL     1       1.983  17.177  18.838  0.00  0.00    +0.000 A 
ATOM     27  C   UNL     1       1.049  18.127  19.224  0.00  0.00    +0.000 A 
ATOM     28  C   UNL     1      -0.274  17.748  19.425  0.00  0.00    +0.000 A 
ATOM     29  C   UNL     1      -0.660  16.415  19.243  0.00  0.00    +0.000 A 
ENDBRANCH   9  24
TORSDOF 3
ENDMDL
MODEL 9
REMARK VINA RESULT:      -7.0      6.670      9.517
REMARK  Name = 
REMARK  4 active torsions:
REMARK  status: ('A' for Active; 'I' for Inactive)
REMARK    1  A    between atoms: C_1  and  C_2
REMARK    2  A    between atoms: C_5  and  C_6
REMARK    3  A    between atoms: C_9  and  C_10
REMARK    4  A    between atoms: C_18  and  C_19
REMARK                            x       y       z     vdW  Elec       q    Type
REMARK                         _______ _______ _______ _____ _____    ______ ____
ROOT
ATOM      1  C   UNL     1       1.619  10.018  18.760  0.00  0.00    +0.000 C 
ATOM      2  O   UNL     1       2.267  10.433  17.806  0.00  0.00    +0.000 OA
ATOM      3  N   UNL     1       0.772  10.797  19.540  0.00  0.00    +0.000 N 
ATOM      4  C   UNL     1       0.488  12.186  19.221  0.00  0.00    +0.000 C 
ATOM      5  C   UNL     1      -0.873  12.084  18.529  0.00  0.00    +0.000 C 
ATOM      6  C   UNL     1      -1.507  10.821  19.132  0.00  0.00    +0.000 C 
ATOM      7  C   UNL     1      -0.463  10.280  20.118  0.00  0.00    +0.000 C 
ATOM      8  C   UNL     1      -0.515  10.817  21.551  0.00  0.00    +0.000 C 
ATOM      9  C   UNL     1      -0.539  12.361  21.633  0.00  0.00    +0.000 C 
ATOM     10  C   UNL     1       0.387  12.989  20.539  0.00  0.00    +0.000 C 
ENDROOT
BRANCH   1  14
ATOM     11  C   UNL     1       2.256   5.964  19.942  0.00  0.00    +0.000 A 
ATOM     12  C   UNL     1       2.500   6.361  18.622  0.00  0.00    +0.000 A 
ATOM     13  C   UNL     1       2.190   7.652  18.206  0.00  0.00    +0.000 A 
ATOM     14  C   UNL     1       1.698   8.582  19.130  0.00  0.00    +0.000 A 
ATOM     15  C   UNL     1       1.419   8.196  20.442  0.00  0.00    +0.000 A 
ATOM     16  C   UNL     1       1.697   6.885  20.845  0.00  0.00    +0.000 A 
BRANCH  11  21
ATOM     17  C   UNL     1       4.658   1.643  20.181  0.00  0.00    +0.000 C 
ATOM     18  C   UNL     1       3.658   2.691  20.462  0.00  0.00    +0.000 A 
ATOM     19  N   UNL     1       2.725   2.693  21.387  0.00  0.00    +0.000 NA
ATOM     20  N   UNL     1       2.068   3.900  21.317  0.00  0.00    +0.000 NA
ATOM     21  C   UNL     1       2.594   4.602  20.335  0.00  0.00    +0.000 A 
ATOM     22  N   UNL     1       3.596   3.865  19.769  0.00  0.00    +0.000 N 
ATOM     23  H   UNL     1       4.214   4.163  19.028  0.00  0.00    +0.000 HD
ENDBRANCH  11  21
ENDBRANCH   1  14
BRANCH   9  24
ATOM     24  C   UNL     1      -1.927  12.993  21.762  0.00  0.00    +0.000 A 
ATOM     25  C   UNL     1      -2.340  14.109  21.011  0.00  0.00    +0.000 A 
ATOM     26  C   UNL     1      -3.643  14.605  21.090  0.00  0.00    +0.000 A 
ATOM     27  C   UNL     1      -4.573  13.987  21.913  0.00  0.00    +0.000 A 
ATOM     28  C   UNL     1      -4.201  12.869  22.652  0.00  0.00    +0.000 A 
ATOM     29  C   UNL     1      -2.895  12.373  22.571  0.00  0.00    +0.000 A 
ENDBRANCH   9  24
TORSDOF 3
ENDMDL
