MODEL 1
REMARK VINA RESULT:      -8.7      0.000      0.000
REMARK  Name = 
REMARK  4 active torsions:
REMARK  status: ('A' for Active; 'I' for Inactive)
REMARK    1  A    between atoms: C_1  and  C_2
REMARK    2  A    between atoms: C_4  and  N_5
REMARK    3  A    between atoms: C_6  and  C_8
REMARK    4  A    between atoms: C_16  and  C_17
REMARK                            x       y       z     vdW  Elec       q    Type
REMARK                         _______ _______ _______ _____ _____    ______ ____
ROOT
ATOM      1  C   UNL     1       1.806   4.042  21.187  0.00  0.00    +0.000 C 
ATOM      2  C   UNL     1       1.787   5.376  20.509  0.00  0.00    +0.000 A 
ATOM      3  C   UNL     1       1.180   6.530  21.107  0.00  0.00    +0.000 A 
ATOM      4  C   UNL     1       1.337   7.662  20.349  0.00  0.00    +0.000 A 
ATOM      5  S   UNL     1       2.341   7.383  19.023  0.00  0.00    +0.000 S 
ATOM      6  C   UNL     1       2.315   5.679  19.250  0.00  0.00    +0.000 A 
ENDROOT
BRANCH   6   7
ATOM      7  C   UNL     1       2.978   4.756  18.310  0.00  0.00    +0.000 C 
ATOM      8  O   UNL     1       2.364   4.365  17.312  0.00  0.00    +0.000 OA
ATOM      9  N   UNL     1       4.298   4.310  18.515  0.00  0.00    +0.000 N 
ATOM     10  C   UNL     1       5.288   4.849  19.469  0.00  0.00    +0.000 C 
ATOM     11  C   UNL     1       6.588   5.411  18.867  0.00  0.00    +0.000 C 
ATOM     12  O   UNL     1       7.306   4.505  18.029  0.00  0.00    +0.000 OA
ATOM     13  C   UNL     1       6.781   4.502  16.763  0.00  0.00    +0.000 A 
ATOM     14  C   UNL     1       7.482   5.142  15.744  0.00  0.00    +0.000 A 
ATOM     15  C   UNL     1       7.009   5.070  14.434  0.00  0.00    +0.000 A 
ATOM     16  C   UNL     1       5.866   4.324  14.147  0.00  0.00    +0.000 A 
ATOM     17  C   UNL     1       5.160   3.696  15.177  0.00  0.00    +0.000 A 
ATOM     18  C   UNL     1       5.597   3.807  16.503  0.00  0.00    +0.000 A 
ATOM     19  C   UNL     1       4.793   3.243  17.641  0.00  0.00    +0.000 C 
ENDBRANCH   6   7
BRANCH   4  20
ATOM     20  N   UNL     1       0.814   8.904  20.654  0.00  0.00    +0.000 N 
ATOM     21  C   UNL     1       1.019   9.625  21.820  0.00  0.00    +0.000 C 
ATOM     22  O   UNL     1       1.762   9.339  22.746  0.00  0.00    +0.000 OA
ATOM     23  H   UNL     1       0.316   9.351  19.895  0.00  0.00    +0.000 HD
BRANCH  21  24
ATOM     24  C   UNL     1       0.269  10.914  21.886  0.00  0.00    +0.000 A 
ATOM     25  C   UNL     1       0.613  12.024  21.095  0.00  0.00    +0.000 A 
ATOM     26  C   UNL     1      -0.121  13.212  21.189  0.00  0.00    +0.000 A 
ATOM     27  C   UNL     1      -1.201  13.292  22.057  0.00  0.00    +0.000 A 
ATOM     28  C   UNL     1      -1.552  12.182  22.826  0.00  0.00    +0.000 A 
ATOM     29  F   UNL     1      -2.596  12.261  23.656  0.00  0.00    +0.000 F 
ATOM     30  C   UNL     1      -0.830  10.998  22.746  0.00  0.00    +0.000 A 
ENDBRANCH  21  24
ENDBRANCH   4  20
TORSDOF 3
ENDMDL
MODEL 2
REMARK VINA RESULT:      -8.6      0.939      1.295
REMARK  Name = 
REMARK  4 active torsions:
REMARK  status: ('A' for Active; 'I' for Inactive)
REMARK    1  A    between atoms: C_1  and  C_2
REMARK    2  A    between atoms: C_4  and  N_5
REMARK    3  A    between atoms: C_6  and  C_8
REMARK    4  A    between atoms: C_16  and  C_17
REMARK                            x       y       z     vdW  Elec       q    Type
REMARK                         _______ _______ _______ _____ _____    ______ ____
ROOT
ATOM      1  C   UNL     1       2.003   4.140  21.209  0.00  0.00    +0.000 C 
ATOM      2  C   UNL     1       1.928   5.452  20.494  0.00  0.00    +0.000 A 
ATOM      3  C   UNL     1       1.320   6.611  21.082  0.00  0.00    +0.000 A 
ATOM      4  C   UNL     1       1.422   7.722  20.286  0.00  0.00    +0.000 A 
ATOM      5  S   UNL     1       2.377   7.424  18.928  0.00  0.00    +0.000 S 
ATOM      6  C   UNL     1       2.397   5.727  19.206  0.00  0.00    +0.000 A 
ENDROOT
BRANCH   6   7
ATOM      7  C   UNL     1       3.042   4.790  18.267  0.00  0.00    +0.000 C 
ATOM      8  O   UNL     1       2.415   4.399  17.277  0.00  0.00    +0.000 OA
ATOM      9  N   UNL     1       4.359   4.331  18.464  0.00  0.00    +0.000 N 
ATOM     10  C   UNL     1       5.363   4.867  19.404  0.00  0.00    +0.000 C 
ATOM     11  C   UNL     1       6.664   5.410  18.787  0.00  0.00    +0.000 C 
ATOM     12  O   UNL     1       7.364   4.490  17.950  0.00  0.00    +0.000 OA
ATOM     13  C   UNL     1       6.828   4.483  16.688  0.00  0.00    +0.000 A 
ATOM     14  C   UNL     1       7.527   5.107  15.659  0.00  0.00    +0.000 A 
ATOM     15  C   UNL     1       7.041   5.031  14.353  0.00  0.00    +0.000 A 
ATOM     16  C   UNL     1       5.888   4.296  14.082  0.00  0.00    +0.000 A 
ATOM     17  C   UNL     1       5.184   3.684  15.122  0.00  0.00    +0.000 A 
ATOM     18  C   UNL     1       5.634   3.799  16.443  0.00  0.00    +0.000 A 
ATOM     19  C   UNL     1       4.834   3.252  17.593  0.00  0.00    +0.000 C 
ENDBRANCH   6   7
BRANCH   4  20
ATOM     20  N   UNL     1       0.885   8.962  20.575  0.00  0.00    +0.000 N 
ATOM     21  C   UNL     1       0.984   9.647  21.775  0.00  0.00    +0.000 C 
ATOM     22  O   UNL     1       1.631   9.326  22.760  0.00  0.00    +0.000 OA
ATOM     23  H   UNL     1       0.467   9.437  19.785  0.00  0.00    +0.000 HD
BRANCH  21  24
ATOM     24  C   UNL     1       0.245  10.944  21.807  0.00  0.00    +0.000 A 
ATOM     25  C   UNL     1      -0.773  11.205  22.740  0.00  0.00    +0.000 A 
ATOM     26  C   UNL     1      -1.437  12.437  22.732  0.00  0.00    +0.000 A 
ATOM     27  C   UNL     1      -1.081  13.410  21.809  0.00  0.00    +0.000 A 
ATOM     28  C   UNL     1      -0.057  13.156  20.897  0.00  0.00    +0.000 A 
ATOM     29  F   UNL     1       0.286  14.097  20.014  0.00  0.00    +0.000 F 
ATOM     30  C   UNL     1       0.608  11.935  20.890  0.00  0.00    +0.000 A 
ENDBRANCH  21  24
ENDBRANCH   4  20
TORSDOF 3
ENDMDL
MODEL 3
REMARK VINA RESULT:      -8.3      1.737      2.004
REMARK  Name = 
REMARK  4 active torsions:
REMARK  status: ('A' for Active; 'I' for Inactive)
REMARK    1  A    between atoms: C_1  and  C_2
REMARK    2  A    between atoms: C_4  and  N_5
REMARK    3  A    between atoms: C_6  and  C_8
REMARK    4  A    between atoms: C_16  and  C_17
REMARK                            x       y       z     vdW  Elec       q    Type
REMARK                         _______ _______ _______ _____ _____    ______ ____
ROOT
ATOM      1  C   UNL     1       2.144   4.529  21.168  0.00  0.00    +0.000 C 
ATOM      2  C   UNL     1       2.073   5.787  20.361  0.00  0.00    +0.000 A 
ATOM      3  C   UNL     1       1.492   6.994  20.874  0.00  0.00    +0.000 A 
ATOM      4  C   UNL     1       1.593   8.044  19.998  0.00  0.00    +0.000 A 
ATOM      5  S   UNL     1       2.520   7.635  18.650  0.00  0.00    +0.000 S 
ATOM      6  C   UNL     1       2.523   5.962  19.049  0.00  0.00    +0.000 A 
ENDROOT
BRANCH   6   7
ATOM      7  C   UNL     1       3.137   4.951  18.169  0.00  0.00    +0.000 C 
ATOM      8  O   UNL     1       2.476   4.473  17.242  0.00  0.00    +0.000 OA
ATOM      9  N   UNL     1       4.465   4.517  18.352  0.00  0.00    +0.000 N 
ATOM     10  C   UNL     1       5.501   5.136  19.203  0.00  0.00    +0.000 C 
ATOM     11  C   UNL     1       6.772   5.630  18.490  0.00  0.00    +0.000 C 
ATOM     12  O   UNL     1       7.446   4.645  17.708  0.00  0.00    +0.000 OA
ATOM     13  C   UNL     1       6.861   4.527  16.474  0.00  0.00    +0.000 A 
ATOM     14  C   UNL     1       7.515   5.064  15.368  0.00  0.00    +0.000 A 
ATOM     15  C   UNL     1       6.979   4.873  14.094  0.00  0.00    +0.000 A 
ATOM     16  C   UNL     1       5.822   4.112  13.932  0.00  0.00    +0.000 A 
ATOM     17  C   UNL     1       5.164   3.588  15.048  0.00  0.00    +0.000 A 
ATOM     18  C   UNL     1       5.664   3.819  16.336  0.00  0.00    +0.000 A 
ATOM     19  C   UNL     1       4.915   3.370  17.559  0.00  0.00    +0.000 C 
ENDBRANCH   6   7
BRANCH   4  20
ATOM     20  N   UNL     1       1.078   9.309  20.207  0.00  0.00    +0.000 N 
ATOM     21  C   UNL     1       0.450  10.112  19.268  0.00  0.00    +0.000 C 
ATOM     22  O   UNL     1       0.161   9.819  18.118  0.00  0.00    +0.000 OA
ATOM     23  H   UNL     1       1.085   9.615  21.171  0.00  0.00    +0.000 HD
BRANCH  21  24
ATOM     24  C   UNL     1       0.054  11.458  19.776  0.00  0.00    +0.000 A 
ATOM     25  C   UNL     1      -0.238  11.693  21.130  0.00  0.00    +0.000 A 
ATOM     26  C   UNL     1      -0.604  12.974  21.561  0.00  0.00    +0.000 A 
ATOM     27  C   UNL     1      -0.666  14.019  20.651  0.00  0.00    +0.000 A 
ATOM     28  C   UNL     1      -0.355  13.788  19.311  0.00  0.00    +0.000 A 
ATOM     29  F   UNL     1      -0.410  14.799  18.439  0.00  0.00    +0.000 F 
ATOM     30  C   UNL     1       0.005  12.521  18.868  0.00  0.00    +0.000 A 
ENDBRANCH  21  24
ENDBRANCH   4  20
TORSDOF 3
ENDMDL
MODEL 4
REMARK VINA RESULT:      -8.3      1.056      1.104
REMARK  Name = 
REMARK  4 active torsions:
REMARK  status: ('A' for Active; 'I' for Inactive)
REMARK    1  A    between atoms: C_1  and  C_2
REMARK    2  A    between atoms: C_4  and  N_5
REMARK    3  A    between atoms: C_6  and  C_8
REMARK    4  A    between atoms: C_16  and  C_17
REMARK                            x       y       z     vdW  Elec       q    Type
REMARK                         _______ _______ _______ _____ _____    ______ ____
ROOT
ATOM      1  C   UNL     1       1.649   4.021  20.950  0.00  0.00    +0.000 C 
ATOM      2  C   UNL     1       1.813   5.382  20.351  0.00  0.00    +0.000 A 
ATOM      3  C   UNL     1       1.293   6.562  20.978  0.00  0.00    +0.000 A 
ATOM      4  C   UNL     1       1.615   7.708  20.298  0.00  0.00    +0.000 A 
ATOM      5  S   UNL     1       2.668   7.391  19.019  0.00  0.00    +0.000 S 
ATOM      6  C   UNL     1       2.449   5.690  19.145  0.00  0.00    +0.000 A 
ENDROOT
BRANCH   6   7
ATOM      7  C   UNL     1       3.071   4.751  18.193  0.00  0.00    +0.000 C 
ATOM      8  O   UNL     1       2.422   4.360  17.217  0.00  0.00    +0.000 OA
ATOM      9  N   UNL     1       4.391   4.290  18.362  0.00  0.00    +0.000 N 
ATOM     10  C   UNL     1       5.416   4.823  19.280  0.00  0.00    +0.000 C 
ATOM     11  C   UNL     1       6.705   5.363  18.634  0.00  0.00    +0.000 C 
ATOM     12  O   UNL     1       7.385   4.440  17.783  0.00  0.00    +0.000 OA
ATOM     13  C   UNL     1       6.822   4.434  16.534  0.00  0.00    +0.000 A 
ATOM     14  C   UNL     1       7.500   5.056  15.489  0.00  0.00    +0.000 A 
ATOM     15  C   UNL     1       6.987   4.979  14.194  0.00  0.00    +0.000 A 
ATOM     16  C   UNL     1       5.826   4.246  13.948  0.00  0.00    +0.000 A 
ATOM     17  C   UNL     1       5.143   3.637  15.004  0.00  0.00    +0.000 A 
ATOM     18  C   UNL     1       5.621   3.752  16.315  0.00  0.00    +0.000 A 
ATOM     19  C   UNL     1       4.845   3.208  17.482  0.00  0.00    +0.000 C 
ENDBRANCH   6   7
BRANCH   4  20
ATOM     20  N   UNL     1       1.207   8.983  20.643  0.00  0.00    +0.000 N 
ATOM     21  C   UNL     1       0.722   9.957  19.785  0.00  0.00    +0.000 C 
ATOM     22  O   UNL     1       0.486   9.842  18.593  0.00  0.00    +0.000 OA
ATOM     23  H   UNL     1       1.177   9.162  21.638  0.00  0.00    +0.000 HD
BRANCH  21  24
ATOM     24  C   UNL     1       0.419  11.261  20.445  0.00  0.00    +0.000 A 
ATOM     25  C   UNL     1       0.813  12.491  19.892  0.00  0.00    +0.000 A 
ATOM     26  C   UNL     1       0.503  13.690  20.546  0.00  0.00    +0.000 A 
ATOM     27  C   UNL     1      -0.207  13.665  21.738  0.00  0.00    +0.000 A 
ATOM     28  C   UNL     1      -0.615  12.444  22.274  0.00  0.00    +0.000 A 
ATOM     29  F   UNL     1      -1.304  12.425  23.418  0.00  0.00    +0.000 F 
ATOM     30  C   UNL     1      -0.311  11.246  21.638  0.00  0.00    +0.000 A 
ENDBRANCH  21  24
ENDBRANCH   4  20
TORSDOF 3
ENDMDL
MODEL 5
REMARK VINA RESULT:      -8.1      1.820      1.847
REMARK  Name = 
REMARK  4 active torsions:
REMARK  status: ('A' for Active; 'I' for Inactive)
REMARK    1  A    between atoms: C_1  and  C_2
REMARK    2  A    between atoms: C_4  and  N_5
REMARK    3  A    between atoms: C_6  and  C_8
REMARK    4  A    between atoms: C_16  and  C_17
REMARK                            x       y       z     vdW  Elec       q    Type
REMARK                         _______ _______ _______ _____ _____    ______ ____
ROOT
ATOM      1  C   UNL     1       2.189   4.705  21.022  0.00  0.00    +0.000 C 
ATOM      2  C   UNL     1       2.145   5.928  20.161  0.00  0.00    +0.000 A 
ATOM      3  C   UNL     1       1.533   7.150  20.598  0.00  0.00    +0.000 A 
ATOM      4  C   UNL     1       1.666   8.163  19.684  0.00  0.00    +0.000 A 
ATOM      5  S   UNL     1       2.655   7.707  18.396  0.00  0.00    +0.000 S 
ATOM      6  C   UNL     1       2.651   6.052  18.864  0.00  0.00    +0.000 A 
ENDROOT
BRANCH   6   7
ATOM      7  C   UNL     1       3.311   5.011  18.055  0.00  0.00    +0.000 C 
ATOM      8  O   UNL     1       2.653   4.389  17.216  0.00  0.00    +0.000 OA
ATOM      9  N   UNL     1       4.679   4.709  18.208  0.00  0.00    +0.000 N 
ATOM     10  C   UNL     1       5.694   5.494  18.937  0.00  0.00    +0.000 C 
ATOM     11  C   UNL     1       6.884   6.016  18.112  0.00  0.00    +0.000 C 
ATOM     12  O   UNL     1       7.605   5.015  17.395  0.00  0.00    +0.000 OA
ATOM     13  C   UNL     1       6.977   4.725  16.211  0.00  0.00    +0.000 A 
ATOM     14  C   UNL     1       7.531   5.199  15.025  0.00  0.00    +0.000 A 
ATOM     15  C   UNL     1       6.957   4.836  13.806  0.00  0.00    +0.000 A 
ATOM     16  C   UNL     1       5.864   3.970  13.782  0.00  0.00    +0.000 A 
ATOM     17  C   UNL     1       5.306   3.510  14.977  0.00  0.00    +0.000 A 
ATOM     18  C   UNL     1       5.842   3.911  16.208  0.00  0.00    +0.000 A 
ATOM     19  C   UNL     1       5.190   3.527  17.507  0.00  0.00    +0.000 C 
ENDBRANCH   6   7
BRANCH   4  20
ATOM     20  N   UNL     1       1.134   9.431  19.817  0.00  0.00    +0.000 N 
ATOM     21  C   UNL     1       0.322  10.087  18.905  0.00  0.00    +0.000 C 
ATOM     22  O   UNL     1      -0.141   9.638  17.869  0.00  0.00    +0.000 OA
ATOM     23  H   UNL     1       1.287   9.863  20.719  0.00  0.00    +0.000 HD
BRANCH  21  24
ATOM     24  C   UNL     1      -0.048  11.478  19.301  0.00  0.00    +0.000 A 
ATOM     25  C   UNL     1       0.903  12.507  19.403  0.00  0.00    +0.000 A 
ATOM     26  C   UNL     1       0.509  13.798  19.775  0.00  0.00    +0.000 A 
ATOM     27  C   UNL     1      -0.828  14.067  20.032  0.00  0.00    +0.000 A 
ATOM     28  C   UNL     1      -1.773  13.049  19.910  0.00  0.00    +0.000 A 
ATOM     29  F   UNL     1      -3.060  13.313  20.153  0.00  0.00    +0.000 F 
ATOM     30  C   UNL     1      -1.395  11.762  19.546  0.00  0.00    +0.000 A 
ENDBRANCH  21  24
ENDBRANCH   4  20
TORSDOF 3
ENDMDL
MODEL 6
REMARK VINA RESULT:      -8.1      3.533     10.259
REMARK  Name = 
REMARK  4 active torsions:
REMARK  status: ('A' for Active; 'I' for Inactive)
REMARK    1  A    between atoms: C_1  and  C_2
REMARK    2  A    between atoms: C_4  and  N_5
REMARK    3  A    between atoms: C_6  and  C_8
REMARK    4  A    between atoms: C_16  and  C_17
REMARK                            x       y       z     vdW  Elec       q    Type
REMARK                         _______ _______ _______ _____ _____    ______ ____
ROOT
ATOM      1  C   UNL     1       0.012   9.003  21.756  0.00  0.00    +0.000 C 
ATOM      2  C   UNL     1       0.637   8.979  20.396  0.00  0.00    +0.000 A 
ATOM      3  C   UNL     1       1.752   8.133  20.081  0.00  0.00    +0.000 A 
ATOM      4  C   UNL     1       2.122   8.216  18.764  0.00  0.00    +0.000 A 
ATOM      5  S   UNL     1       1.046   9.166  17.879  0.00  0.00    +0.000 S 
ATOM      6  C   UNL     1       0.261   9.750  19.293  0.00  0.00    +0.000 A 
ENDROOT
BRANCH   6   7
ATOM      7  C   UNL     1      -0.808  10.764  19.229  0.00  0.00    +0.000 C 
ATOM      8  O   UNL     1      -1.885  10.476  18.698  0.00  0.00    +0.000 OA
ATOM      9  N   UNL     1      -0.637  12.055  19.766  0.00  0.00    +0.000 N 
ATOM     10  C   UNL     1       0.438  12.517  20.665  0.00  0.00    +0.000 C 
ATOM     11  C   UNL     1       0.004  13.041  22.046  0.00  0.00    +0.000 C 
ATOM     12  O   UNL     1      -0.959  14.095  22.015  0.00  0.00    +0.000 OA
ATOM     13  C   UNL     1      -2.223  13.587  21.866  0.00  0.00    +0.000 A 
ATOM     14  C   UNL     1      -3.076  13.577  22.966  0.00  0.00    +0.000 A 
ATOM     15  C   UNL     1      -4.395  13.149  22.810  0.00  0.00    +0.000 A 
ATOM     16  C   UNL     1      -4.861  12.777  21.549  0.00  0.00    +0.000 A 
ATOM     17  C   UNL     1      -3.995  12.777  20.453  0.00  0.00    +0.000 A 
ATOM     18  C   UNL     1      -2.655  13.154  20.609  0.00  0.00    +0.000 A 
ATOM     19  C   UNL     1      -1.675  13.049  19.475  0.00  0.00    +0.000 C 
ENDBRANCH   6   7
BRANCH   4  20
ATOM     20  N   UNL     1       3.192   7.553  18.192  0.00  0.00    +0.000 N 
ATOM     21  C   UNL     1       3.247   6.210  17.854  0.00  0.00    +0.000 C 
ATOM     22  O   UNL     1       2.342   5.393  17.916  0.00  0.00    +0.000 OA
ATOM     23  H   UNL     1       3.960   8.149  17.915  0.00  0.00    +0.000 HD
BRANCH  21  24
ATOM     24  C   UNL     1       4.564   5.767  17.308  0.00  0.00    +0.000 A 
ATOM     25  C   UNL     1       4.733   4.529  16.667  0.00  0.00    +0.000 A 
ATOM     26  C   UNL     1       5.987   4.158  16.168  0.00  0.00    +0.000 A 
ATOM     27  C   UNL     1       7.066   5.021  16.296  0.00  0.00    +0.000 A 
ATOM     28  C   UNL     1       6.892   6.258  16.915  0.00  0.00    +0.000 A 
ATOM     29  F   UNL     1       7.932   7.089  17.030  0.00  0.00    +0.000 F 
ATOM     30  C   UNL     1       5.653   6.638  17.418  0.00  0.00    +0.000 A 
ENDBRANCH  21  24
ENDBRANCH   4  20
TORSDOF 3
ENDMDL
MODEL 7
REMARK VINA RESULT:      -8.1      1.234      1.262
REMARK  Name = 
REMARK  4 active torsions:
REMARK  status: ('A' for Active; 'I' for Inactive)
REMARK    1  A    between atoms: C_1  and  C_2
REMARK    2  A    between atoms: C_4  and  N_5
REMARK    3  A    between atoms: C_6  and  C_8
REMARK    4  A    between atoms: C_16  and  C_17
REMARK                            x       y       z     vdW  Elec       q    Type
REMARK                         _______ _______ _______ _____ _____    ______ ____
ROOT
ATOM      1  C   UNL     1       2.219   4.713  21.101  0.00  0.00    +0.000 C 
ATOM      2  C   UNL     1       2.119   5.918  20.219  0.00  0.00    +0.000 A 
ATOM      3  C   UNL     1       1.474   7.126  20.645  0.00  0.00    +0.000 A 
ATOM      4  C   UNL     1       1.556   8.126  19.711  0.00  0.00    +0.000 A 
ATOM      5  S   UNL     1       2.535   7.679  18.413  0.00  0.00    +0.000 S 
ATOM      6  C   UNL     1       2.596   6.035  18.911  0.00  0.00    +0.000 A 
ENDROOT
BRANCH   6   7
ATOM      7  C   UNL     1       3.275   5.001  18.108  0.00  0.00    +0.000 C 
ATOM      8  O   UNL     1       2.637   4.385  17.249  0.00  0.00    +0.000 OA
ATOM      9  N   UNL     1       4.639   4.699  18.289  0.00  0.00    +0.000 N 
ATOM     10  C   UNL     1       5.637   5.479  19.048  0.00  0.00    +0.000 C 
ATOM     11  C   UNL     1       6.844   6.009  18.254  0.00  0.00    +0.000 C 
ATOM     12  O   UNL     1       7.583   5.015  17.545  0.00  0.00    +0.000 OA
ATOM     13  C   UNL     1       6.982   4.735  16.345  0.00  0.00    +0.000 A 
ATOM     14  C   UNL     1       7.562   5.219  15.175  0.00  0.00    +0.000 A 
ATOM     15  C   UNL     1       7.016   4.866  13.941  0.00  0.00    +0.000 A 
ATOM     16  C   UNL     1       5.925   3.998  13.885  0.00  0.00    +0.000 A 
ATOM     17  C   UNL     1       5.341   3.528  15.064  0.00  0.00    +0.000 A 
ATOM     18  C   UNL     1       5.848   3.919  16.309  0.00  0.00    +0.000 A 
ATOM     19  C   UNL     1       5.168   3.524  17.590  0.00  0.00    +0.000 C 
ENDBRANCH   6   7
BRANCH   4  20
ATOM     20  N   UNL     1       0.984   9.379  19.831  0.00  0.00    +0.000 N 
ATOM     21  C   UNL     1       0.904  10.145  20.983  0.00  0.00    +0.000 C 
ATOM     22  O   UNL     1       1.397   9.898  22.072  0.00  0.00    +0.000 OA
ATOM     23  H   UNL     1       0.688   9.794  18.957  0.00  0.00    +0.000 HD
BRANCH  21  24
ATOM     24  C   UNL     1       0.170  11.434  20.814  0.00  0.00    +0.000 A 
ATOM     25  C   UNL     1       0.742  12.673  21.147  0.00  0.00    +0.000 A 
ATOM     26  C   UNL     1       0.016  13.857  20.969  0.00  0.00    +0.000 A 
ATOM     27  C   UNL     1      -1.270  13.808  20.450  0.00  0.00    +0.000 A 
ATOM     28  C   UNL     1      -1.829  12.579  20.101  0.00  0.00    +0.000 A 
ATOM     29  F   UNL     1      -3.065  12.537  19.596  0.00  0.00    +0.000 F 
ATOM     30  C   UNL     1      -1.120  11.396  20.277  0.00  0.00    +0.000 A 
ENDBRANCH  21  24
ENDBRANCH   4  20
TORSDOF 3
ENDMDL
MODEL 8
REMARK VINA RESULT:      -8.0      5.664      7.829
REMARK  Name = 
REMARK  4 active torsions:
REMARK  status: ('A' for Active; 'I' for Inactive)
REMARK    1  A    between atoms: C_1  and  C_2
REMARK    2  A    between atoms: C_4  and  N_5
REMARK    3  A    between atoms: C_6  and  C_8
REMARK    4  A    between atoms: C_16  and  C_17
REMARK                            x       y       z     vdW  Elec       q    Type
REMARK                         _______ _______ _______ _____ _____    ______ ____
ROOT
ATOM      1  C   UNL     1       8.113   5.191  19.924  0.00  0.00    +0.000 C 
ATOM      2  C   UNL     1       7.888   6.329  18.978  0.00  0.00    +0.000 A 
ATOM      3  C   UNL     1       8.578   7.580  19.107  0.00  0.00    +0.000 A 
ATOM      4  C   UNL     1       8.277   8.456  18.097  0.00  0.00    +0.000 A 
ATOM      5  S   UNL     1       7.311   7.732  16.920  0.00  0.00    +0.000 S 
ATOM      6  C   UNL     1       7.005   6.349  17.895  0.00  0.00    +0.000 A 
ENDROOT
BRANCH   6   7
ATOM      7  C   UNL     1       6.091   5.276  17.462  0.00  0.00    +0.000 C 
ATOM      8  O   UNL     1       6.526   4.128  17.328  0.00  0.00    +0.000 OA
ATOM      9  N   UNL     1       4.729   5.522  17.202  0.00  0.00    +0.000 N 
ATOM     10  C   UNL     1       3.954   6.729  17.551  0.00  0.00    +0.000 C 
ATOM     11  C   UNL     1       2.752   6.527  18.491  0.00  0.00    +0.000 C 
ATOM     12  O   UNL     1       1.796   5.563  18.049  0.00  0.00    +0.000 OA
ATOM     13  C   UNL     1       2.203   4.297  18.379  0.00  0.00    +0.000 A 
ATOM     14  C   UNL     1       1.566   3.640  19.429  0.00  0.00    +0.000 A 
ATOM     15  C   UNL     1       1.904   2.318  19.718  0.00  0.00    +0.000 A 
ATOM     16  C   UNL     1       2.841   1.651  18.930  0.00  0.00    +0.000 A 
ATOM     17  C   UNL     1       3.485   2.321  17.887  0.00  0.00    +0.000 A 
ATOM     18  C   UNL     1       3.192   3.664  17.622  0.00  0.00    +0.000 A 
ATOM     19  C   UNL     1       3.954   4.442  16.585  0.00  0.00    +0.000 C 
ENDBRANCH   6   7
BRANCH   4  20
ATOM     20  N   UNL     1       8.755   9.749  17.994  0.00  0.00    +0.000 N 
ATOM     21  C   UNL     1       9.127  10.580  19.038  0.00  0.00    +0.000 C 
ATOM     22  O   UNL     1       9.183  10.297  20.225  0.00  0.00    +0.000 OA
ATOM     23  H   UNL     1       8.934  10.059  17.047  0.00  0.00    +0.000 HD
BRANCH  21  24
ATOM     24  C   UNL     1       9.548  11.948  18.616  0.00  0.00    +0.000 A 
ATOM     25  C   UNL     1       9.117  13.106  19.285  0.00  0.00    +0.000 A 
ATOM     26  C   UNL     1       9.540  14.369  18.853  0.00  0.00    +0.000 A 
ATOM     27  C   UNL     1      10.399  14.478  17.769  0.00  0.00    +0.000 A 
ATOM     28  C   UNL     1      10.841  13.326  17.119  0.00  0.00    +0.000 A 
ATOM     29  F   UNL     1      11.672  13.435  16.079  0.00  0.00    +0.000 F 
ATOM     30  C   UNL     1      10.425  12.066  17.534  0.00  0.00    +0.000 A 
ENDBRANCH  21  24
ENDBRANCH   4  20
TORSDOF 3
ENDMDL
MODEL 9
REMARK VINA RESULT:      -8.0      3.738     10.276
REMARK  Name = 
REMARK  4 active torsions:
REMARK  status: ('A' for Active; 'I' for Inactive)
REMARK    1  A    between atoms: C_1  and  C_2
REMARK    2  A    between atoms: C_4  and  N_5
REMARK    3  A    between atoms: C_6  and  C_8
REMARK    4  A    between atoms: C_16  and  C_17
REMARK                            x       y       z     vdW  Elec       q    Type
REMARK                         _______ _______ _______ _____ _____    ______ ____
ROOT
ATOM      1  C   UNL     1       0.027   8.897  21.639  0.00  0.00    +0.000 C 
ATOM      2  C   UNL     1       0.720   8.875  20.313  0.00  0.00    +0.000 A 
ATOM      3  C   UNL     1       1.843   8.021  20.050  0.00  0.00    +0.000 A 
ATOM      4  C   UNL     1       2.280   8.107  18.754  0.00  0.00    +0.000 A 
ATOM      5  S   UNL     1       1.258   9.070  17.821  0.00  0.00    +0.000 S 
ATOM      6  C   UNL     1       0.407   9.654  19.196  0.00  0.00    +0.000 A 
ENDROOT
BRANCH   6   7
ATOM      7  C   UNL     1      -0.649  10.677  19.084  0.00  0.00    +0.000 C 
ATOM      8  O   UNL     1      -1.708  10.395  18.515  0.00  0.00    +0.000 OA
ATOM      9  N   UNL     1      -0.486  11.972  19.615  0.00  0.00    +0.000 N 
ATOM     10  C   UNL     1       0.560  12.431  20.551  0.00  0.00    +0.000 C 
ATOM     11  C   UNL     1       0.079  12.972  21.909  0.00  0.00    +0.000 C 
ATOM     12  O   UNL     1      -0.872  14.034  21.833  0.00  0.00    +0.000 OA
ATOM     13  C   UNL     1      -2.134  13.537  21.641  0.00  0.00    +0.000 A 
ATOM     14  C   UNL     1      -3.028  13.545  22.709  0.00  0.00    +0.000 A 
ATOM     15  C   UNL     1      -4.344  13.128  22.506  0.00  0.00    +0.000 A 
ATOM     16  C   UNL     1      -4.766  12.749  21.232  0.00  0.00    +0.000 A 
ATOM     17  C   UNL     1      -3.860  12.731  20.169  0.00  0.00    +0.000 A 
ATOM     18  C   UNL     1      -2.524  13.096  20.373  0.00  0.00    +0.000 A 
ATOM     19  C   UNL     1      -1.502  12.972  19.277  0.00  0.00    +0.000 C 
ENDBRANCH   6   7
BRANCH   4  20
ATOM     20  N   UNL     1       3.371   7.437  18.234  0.00  0.00    +0.000 N 
ATOM     21  C   UNL     1       3.430   6.098  17.881  0.00  0.00    +0.000 C 
ATOM     22  O   UNL     1       2.512   5.293  17.880  0.00  0.00    +0.000 OA
ATOM     23  H   UNL     1       4.162   8.027  18.009  0.00  0.00    +0.000 HD
BRANCH  21  24
ATOM     24  C   UNL     1       4.770   5.646  17.403  0.00  0.00    +0.000 A 
ATOM     25  C   UNL     1       5.967   6.152  17.937  0.00  0.00    +0.000 A 
ATOM     26  C   UNL     1       7.201   5.695  17.458  0.00  0.00    +0.000 A 
ATOM     27  C   UNL     1       7.243   4.730  16.462  0.00  0.00    +0.000 A 
ATOM     28  C   UNL     1       6.053   4.215  15.949  0.00  0.00    +0.000 A 
ATOM     29  F   UNL     1       6.099   3.281  14.994  0.00  0.00    +0.000 F 
ATOM     30  C   UNL     1       4.821   4.662  16.411  0.00  0.00    +0.000 A 
ENDBRANCH  21  24
ENDBRANCH   4  20
TORSDOF 3
ENDMDL
