MODEL 1
REMARK VINA RESULT:      -8.3      0.000      0.000
REMARK  Name = 
REMARK  4 active torsions:
REMARK  status: ('A' for Active; 'I' for Inactive)
REMARK    1  A    between atoms: C_2  and  C_14
REMARK    2  A    between atoms: N_3  and  C_4
REMARK    3  A    between atoms: C_4  and  C_5
REMARK    4  A    between atoms: N_17  and  C_18
REMARK                            x       y       z     vdW  Elec       q    Type
REMARK                         _______ _______ _______ _____ _____    ______ ____
ROOT
ATOM      1  O   UNL     1       7.918   5.539  19.222  0.00  0.00    +0.000 OA
ATOM      2  C   UNL     1       7.736   6.244  18.240  0.00  0.00    +0.000 C 
ATOM      3  N   UNL     1       7.244   5.759  17.048  0.00  0.00    +0.000 N 
ATOM      4  H   UNL     1       7.262   6.335  16.223  0.00  0.00    +0.000 HD
ENDROOT
BRANCH   2   5
ATOM      5  C   UNL     1       8.021   7.665  18.255  0.00  0.00    +0.000 A 
ATOM      6  C   UNL     1       7.513   8.652  17.387  0.00  0.00    +0.000 A 
ATOM      7  N   UNL     1       7.961   9.876  17.670  0.00  0.00    +0.000 NA
ATOM      8  N   UNL     1       8.829   9.691  18.695  0.00  0.00    +0.000 N 
ATOM      9  C   UNL     1       8.864   8.370  19.088  0.00  0.00    +0.000 A 
BRANCH   8  10
ATOM     10  C   UNL     1       9.593  10.763  19.225  0.00  0.00    +0.000 A 
ATOM     11  C   UNL     1      10.508  11.440  18.405  0.00  0.00    +0.000 A 
ATOM     12  C   UNL     1      11.273  12.481  18.928  0.00  0.00    +0.000 A 
ATOM     13  C   UNL     1      11.142  12.845  20.268  0.00  0.00    +0.000 A 
ATOM     14  C   UNL     1      10.237  12.176  21.088  0.00  0.00    +0.000 A 
ATOM     15  C   UNL     1       9.459  11.142  20.570  0.00  0.00    +0.000 A 
ENDBRANCH   8  10
ENDBRANCH   2   5
BRANCH   3  16
ATOM     16  C   UNL     1       6.990   4.355  16.878  0.00  0.00    +0.000 C 
BRANCH  16  17
ATOM     17  C   UNL     1       5.619   4.087  17.378  0.00  0.00    +0.000 A 
ATOM     18  C   UNL     1       4.384   4.264  16.789  0.00  0.00    +0.000 A 
ATOM     19  C   UNL     1       3.391   3.823  17.706  0.00  0.00    +0.000 A 
ATOM     20  C   UNL     1       1.985   3.752  17.667  0.00  0.00    +0.000 A 
ATOM     21  C   UNL     1       1.293   3.247  18.775  0.00  0.00    +0.000 A 
ATOM     22  C   UNL     1       1.982   2.819  19.908  0.00  0.00    +0.000 A 
ATOM     23  C   UNL     1       3.378   2.882  19.970  0.00  0.00    +0.000 A 
ATOM     24  C   UNL     1       4.055   3.387  18.853  0.00  0.00    +0.000 A 
ATOM     25  N   UNL     1       5.402   3.559  18.630  0.00  0.00    +0.000 N 
ATOM     26  H   UNL     1       6.126   3.326  19.296  0.00  0.00    +0.000 HD
ENDBRANCH  16  17
ENDBRANCH   3  16
TORSDOF 4
ENDMDL
MODEL 2
REMARK VINA RESULT:      -8.3      0.163      1.001
REMARK  Name = 
REMARK  4 active torsions:
REMARK  status: ('A' for Active; 'I' for Inactive)
REMARK    1  A    between atoms: C_2  and  C_14
REMARK    2  A    between atoms: N_3  and  C_4
REMARK    3  A    between atoms: C_4  and  C_5
REMARK    4  A    between atoms: N_17  and  C_18
REMARK                            x       y       z     vdW  Elec       q    Type
REMARK                         _______ _______ _______ _____ _____    ______ ____
ROOT
ATOM      1  O   UNL     1       7.697   5.700  19.307  0.00  0.00    +0.000 OA
ATOM      2  C   UNL     1       7.684   6.365  18.280  0.00  0.00    +0.000 C 
ATOM      3  N   UNL     1       7.359   5.838  17.049  0.00  0.00    +0.000 N 
ATOM      4  H   UNL     1       7.517   6.376  16.212  0.00  0.00    +0.000 HD
ENDROOT
BRANCH   2   5
ATOM      5  C   UNL     1       8.007   7.777  18.279  0.00  0.00    +0.000 A 
ATOM      6  C   UNL     1       7.501   8.774  17.421  0.00  0.00    +0.000 A 
ATOM      7  N   UNL     1       7.990   9.986  17.685  0.00  0.00    +0.000 NA
ATOM      8  N   UNL     1       8.883   9.782  18.685  0.00  0.00    +0.000 N 
ATOM      9  C   UNL     1       8.893   8.463  19.083  0.00  0.00    +0.000 A 
BRANCH   8  10
ATOM     10  C   UNL     1       9.691  10.835  19.187  0.00  0.00    +0.000 A 
ATOM     11  C   UNL     1       9.550  11.249  20.519  0.00  0.00    +0.000 A 
ATOM     12  C   UNL     1      10.329  12.296  21.009  0.00  0.00    +0.000 A 
ATOM     13  C   UNL     1      11.241  12.943  20.175  0.00  0.00    +0.000 A 
ATOM     14  C   UNL     1      11.386  12.538  18.851  0.00  0.00    +0.000 A 
ATOM     15  C   UNL     1      10.620  11.483  18.357  0.00  0.00    +0.000 A 
ENDBRANCH   8  10
ENDBRANCH   2   5
BRANCH   3  16
ATOM     16  C   UNL     1       7.090   4.435  16.900  0.00  0.00    +0.000 C 
BRANCH  16  17
ATOM     17  C   UNL     1       5.704   4.195  17.373  0.00  0.00    +0.000 A 
ATOM     18  C   UNL     1       4.483   4.480  16.798  0.00  0.00    +0.000 A 
ATOM     19  C   UNL     1       3.464   4.016  17.673  0.00  0.00    +0.000 A 
ATOM     20  C   UNL     1       2.056   4.019  17.625  0.00  0.00    +0.000 A 
ATOM     21  C   UNL     1       1.333   3.459  18.686  0.00  0.00    +0.000 A 
ATOM     22  C   UNL     1       1.992   2.907  19.782  0.00  0.00    +0.000 A 
ATOM     23  C   UNL     1       3.389   2.894  19.851  0.00  0.00    +0.000 A 
ATOM     24  C   UNL     1       4.098   3.455  18.782  0.00  0.00    +0.000 A 
ATOM     25  N   UNL     1       5.452   3.577  18.577  0.00  0.00    +0.000 N 
ATOM     26  H   UNL     1       6.160   3.255  19.224  0.00  0.00    +0.000 HD
ENDBRANCH  16  17
ENDBRANCH   3  16
TORSDOF 4
ENDMDL
MODEL 3
REMARK VINA RESULT:      -8.2      5.056      7.267
REMARK  Name = 
REMARK  4 active torsions:
REMARK  status: ('A' for Active; 'I' for Inactive)
REMARK    1  A    between atoms: C_2  and  C_14
REMARK    2  A    between atoms: N_3  and  C_4
REMARK    3  A    between atoms: C_4  and  C_5
REMARK    4  A    between atoms: N_17  and  C_18
REMARK                            x       y       z     vdW  Elec       q    Type
REMARK                         _______ _______ _______ _____ _____    ______ ____
ROOT
ATOM      1  O   UNL     1       3.452   4.536  18.478  0.00  0.00    +0.000 OA
ATOM      2  C   UNL     1       3.884   5.679  18.420  0.00  0.00    +0.000 C 
ATOM      3  N   UNL     1       5.198   5.972  18.130  0.00  0.00    +0.000 N 
ATOM      4  H   UNL     1       5.545   6.909  18.252  0.00  0.00    +0.000 HD
ENDROOT
BRANCH   2   5
ATOM      5  C   UNL     1       3.033   6.830  18.650  0.00  0.00    +0.000 A 
ATOM      6  C   UNL     1       2.749   7.880  17.754  0.00  0.00    +0.000 A 
ATOM      7  N   UNL     1       1.917   8.789  18.265  0.00  0.00    +0.000 NA
ATOM      8  N   UNL     1       1.700   8.374  19.537  0.00  0.00    +0.000 N 
ATOM      9  C   UNL     1       2.338   7.179  19.789  0.00  0.00    +0.000 A 
BRANCH   8  10
ATOM     10  C   UNL     1       0.927   9.141  20.447  0.00  0.00    +0.000 A 
ATOM     11  C   UNL     1       0.513   8.575  21.662  0.00  0.00    +0.000 A 
ATOM     12  C   UNL     1      -0.262   9.320  22.549  0.00  0.00    +0.000 A 
ATOM     13  C   UNL     1      -0.639  10.624  22.229  0.00  0.00    +0.000 A 
ATOM     14  C   UNL     1      -0.232  11.193  21.024  0.00  0.00    +0.000 A 
ATOM     15  C   UNL     1       0.554  10.459  20.137  0.00  0.00    +0.000 A 
ENDBRANCH   8  10
ENDBRANCH   2   5
BRANCH   3  16
ATOM     16  C   UNL     1       6.161   4.920  17.954  0.00  0.00    +0.000 C 
BRANCH  16  17
ATOM     17  C   UNL     1       6.284   4.669  16.497  0.00  0.00    +0.000 A 
ATOM     18  C   UNL     1       5.581   3.833  15.654  0.00  0.00    +0.000 A 
ATOM     19  C   UNL     1       6.095   3.998  14.339  0.00  0.00    +0.000 A 
ATOM     20  C   UNL     1       5.783   3.432  13.088  0.00  0.00    +0.000 A 
ATOM     21  C   UNL     1       6.505   3.830  11.956  0.00  0.00    +0.000 A 
ATOM     22  C   UNL     1       7.525   4.774  12.060  0.00  0.00    +0.000 A 
ATOM     23  C   UNL     1       7.854   5.347  13.292  0.00  0.00    +0.000 A 
ATOM     24  C   UNL     1       7.120   4.941  14.414  0.00  0.00    +0.000 A 
ATOM     25  N   UNL     1       7.216   5.330  15.730  0.00  0.00    +0.000 N 
ATOM     26  H   UNL     1       7.880   6.009  16.079  0.00  0.00    +0.000 HD
ENDBRANCH  16  17
ENDBRANCH   3  16
TORSDOF 4
ENDMDL
MODEL 4
REMARK VINA RESULT:      -8.2      1.426      1.766
REMARK  Name = 
REMARK  4 active torsions:
REMARK  status: ('A' for Active; 'I' for Inactive)
REMARK    1  A    between atoms: C_2  and  C_14
REMARK    2  A    between atoms: N_3  and  C_4
REMARK    3  A    between atoms: C_4  and  C_5
REMARK    4  A    between atoms: N_17  and  C_18
REMARK                            x       y       z     vdW  Elec       q    Type
REMARK                         _______ _______ _______ _____ _____    ______ ____
ROOT
ATOM      1  O   UNL     1       5.236   6.786  16.228  0.00  0.00    +0.000 OA
ATOM      2  C   UNL     1       6.180   6.307  16.842  0.00  0.00    +0.000 C 
ATOM      3  N   UNL     1       6.426   4.953  16.901  0.00  0.00    +0.000 N 
ATOM      4  H   UNL     1       7.111   4.592  17.545  0.00  0.00    +0.000 HD
ENDROOT
BRANCH   2   5
ATOM      5  C   UNL     1       7.127   7.137  17.558  0.00  0.00    +0.000 A 
ATOM      6  C   UNL     1       7.990   6.749  18.603  0.00  0.00    +0.000 A 
ATOM      7  N   UNL     1       8.751   7.750  19.048  0.00  0.00    +0.000 NA
ATOM      8  N   UNL     1       8.342   8.830  18.337  0.00  0.00    +0.000 N 
ATOM      9  C   UNL     1       7.382   8.484  17.411  0.00  0.00    +0.000 A 
BRANCH   8  10
ATOM     10  C   UNL     1       8.859  10.127  18.592  0.00  0.00    +0.000 A 
ATOM     11  C   UNL     1       8.621  11.165  17.680  0.00  0.00    +0.000 A 
ATOM     12  C   UNL     1       9.143  12.435  17.919  0.00  0.00    +0.000 A 
ATOM     13  C   UNL     1       9.913  12.676  19.056  0.00  0.00    +0.000 A 
ATOM     14  C   UNL     1      10.154  11.650  19.966  0.00  0.00    +0.000 A 
ATOM     15  C   UNL     1       9.625  10.380  19.742  0.00  0.00    +0.000 A 
ENDBRANCH   8  10
ENDBRANCH   2   5
BRANCH   3  16
ATOM     16  C   UNL     1       5.521   4.016  16.295  0.00  0.00    +0.000 C 
BRANCH  16  17
ATOM     17  C   UNL     1       4.416   3.779  17.257  0.00  0.00    +0.000 A 
ATOM     18  C   UNL     1       3.056   3.988  17.152  0.00  0.00    +0.000 A 
ATOM     19  C   UNL     1       2.450   3.568  18.367  0.00  0.00    +0.000 A 
ATOM     20  C   UNL     1       1.123   3.532  18.837  0.00  0.00    +0.000 A 
ATOM     21  C   UNL     1       0.864   3.040  20.122  0.00  0.00    +0.000 A 
ATOM     22  C   UNL     1       1.904   2.591  20.934  0.00  0.00    +0.000 A 
ATOM     23  C   UNL     1       3.230   2.620  20.488  0.00  0.00    +0.000 A 
ATOM     24  C   UNL     1       3.472   3.112  19.200  0.00  0.00    +0.000 A 
ATOM     25  N   UNL     1       4.651   3.252  18.506  0.00  0.00    +0.000 N 
ATOM     26  H   UNL     1       5.561   2.999  18.868  0.00  0.00    +0.000 HD
ENDBRANCH  16  17
ENDBRANCH   3  16
TORSDOF 4
ENDMDL
MODEL 5
REMARK VINA RESULT:      -8.1      4.779      7.120
REMARK  Name = 
REMARK  4 active torsions:
REMARK  status: ('A' for Active; 'I' for Inactive)
REMARK    1  A    between atoms: C_2  and  C_14
REMARK    2  A    between atoms: N_3  and  C_4
REMARK    3  A    between atoms: C_4  and  C_5
REMARK    4  A    between atoms: N_17  and  C_18
REMARK                            x       y       z     vdW  Elec       q    Type
REMARK                         _______ _______ _______ _____ _____    ______ ____
ROOT
ATOM      1  O   UNL     1       5.259   3.576  19.425  0.00  0.00    +0.000 OA
ATOM      2  C   UNL     1       4.994   4.716  19.069  0.00  0.00    +0.000 C 
ATOM      3  N   UNL     1       5.777   5.428  18.187  0.00  0.00    +0.000 N 
ATOM      4  H   UNL     1       5.614   6.411  18.048  0.00  0.00    +0.000 HD
ENDROOT
BRANCH   2   5
ATOM      5  C   UNL     1       3.817   5.412  19.547  0.00  0.00    +0.000 A 
ATOM      6  C   UNL     1       2.756   4.882  20.310  0.00  0.00    +0.000 A 
ATOM      7  N   UNL     1       1.822   5.787  20.602  0.00  0.00    +0.000 NA
ATOM      8  N   UNL     1       2.232   6.915  19.970  0.00  0.00    +0.000 N 
ATOM      9  C   UNL     1       3.447   6.725  19.349  0.00  0.00    +0.000 A 
BRANCH   8  10
ATOM     10  C   UNL     1       1.441   8.094  19.966  0.00  0.00    +0.000 A 
ATOM     11  C   UNL     1       1.437   8.927  18.838  0.00  0.00    +0.000 A 
ATOM     12  C   UNL     1       0.676  10.095  18.839  0.00  0.00    +0.000 A 
ATOM     13  C   UNL     1      -0.072  10.446  19.962  0.00  0.00    +0.000 A 
ATOM     14  C   UNL     1      -0.072   9.623  21.086  0.00  0.00    +0.000 A 
ATOM     15  C   UNL     1       0.676   8.446  21.089  0.00  0.00    +0.000 A 
ENDBRANCH   8  10
ENDBRANCH   2   5
BRANCH   3  16
ATOM     16  C   UNL     1       7.011   4.879  17.695  0.00  0.00    +0.000 C 
BRANCH  16  17
ATOM     17  C   UNL     1       6.830   4.605  16.249  0.00  0.00    +0.000 A 
ATOM     18  C   UNL     1       5.942   3.788  15.580  0.00  0.00    +0.000 A 
ATOM     19  C   UNL     1       6.189   3.915  14.186  0.00  0.00    +0.000 A 
ATOM     20  C   UNL     1       5.611   3.346  13.034  0.00  0.00    +0.000 A 
ATOM     21  C   UNL     1       6.107   3.700  11.773  0.00  0.00    +0.000 A 
ATOM     22  C   UNL     1       7.162   4.602  11.652  0.00  0.00    +0.000 A 
ATOM     23  C   UNL     1       7.752   5.177  12.782  0.00  0.00    +0.000 A 
ATOM     24  C   UNL     1       7.243   4.815  14.036  0.00  0.00    +0.000 A 
ATOM     25  N   UNL     1       7.614   5.217  15.298  0.00  0.00    +0.000 N 
ATOM     26  H   UNL     1       8.359   5.873  15.493  0.00  0.00    +0.000 HD
ENDBRANCH  16  17
ENDBRANCH   3  16
TORSDOF 4
ENDMDL
MODEL 6
REMARK VINA RESULT:      -8.1      1.648      2.189
REMARK  Name = 
REMARK  4 active torsions:
REMARK  status: ('A' for Active; 'I' for Inactive)
REMARK    1  A    between atoms: C_2  and  C_14
REMARK    2  A    between atoms: N_3  and  C_4
REMARK    3  A    between atoms: C_4  and  C_5
REMARK    4  A    between atoms: N_17  and  C_18
REMARK                            x       y       z     vdW  Elec       q    Type
REMARK                         _______ _______ _______ _____ _____    ______ ____
ROOT
ATOM      1  O   UNL     1       5.265   6.920  16.029  0.00  0.00    +0.000 OA
ATOM      2  C   UNL     1       6.109   6.399  16.745  0.00  0.00    +0.000 C 
ATOM      3  N   UNL     1       6.220   5.035  16.904  0.00  0.00    +0.000 N 
ATOM      4  H   UNL     1       6.817   4.658  17.622  0.00  0.00    +0.000 HD
ENDROOT
BRANCH   2   5
ATOM      5  C   UNL     1       7.074   7.186  17.486  0.00  0.00    +0.000 A 
ATOM      6  C   UNL     1       7.921   6.751  18.525  0.00  0.00    +0.000 A 
ATOM      7  N   UNL     1       8.705   7.720  18.998  0.00  0.00    +0.000 NA
ATOM      8  N   UNL     1       8.328   8.828  18.313  0.00  0.00    +0.000 N 
ATOM      9  C   UNL     1       7.365   8.529  17.374  0.00  0.00    +0.000 A 
BRANCH   8  10
ATOM     10  C   UNL     1       8.878  10.104  18.602  0.00  0.00    +0.000 A 
ATOM     11  C   UNL     1       9.556  10.314  19.811  0.00  0.00    +0.000 A 
ATOM     12  C   UNL     1      10.080  11.571  20.106  0.00  0.00    +0.000 A 
ATOM     13  C   UNL     1       9.922  12.626  19.208  0.00  0.00    +0.000 A 
ATOM     14  C   UNL     1       9.249  12.425  18.006  0.00  0.00    +0.000 A 
ATOM     15  C   UNL     1       8.733  11.167  17.697  0.00  0.00    +0.000 A 
ENDBRANCH   8  10
ENDBRANCH   2   5
BRANCH   3  16
ATOM     16  C   UNL     1       5.279   4.145  16.283  0.00  0.00    +0.000 C 
BRANCH  16  17
ATOM     17  C   UNL     1       4.218   3.855  17.278  0.00  0.00    +0.000 A 
ATOM     18  C   UNL     1       3.650   2.665  17.683  0.00  0.00    +0.000 A 
ATOM     19  C   UNL     1       2.686   2.955  18.687  0.00  0.00    +0.000 A 
ATOM     20  C   UNL     1       1.812   2.168  19.462  0.00  0.00    +0.000 A 
ATOM     21  C   UNL     1       0.970   2.790  20.391  0.00  0.00    +0.000 A 
ATOM     22  C   UNL     1       0.989   4.174  20.551  0.00  0.00    +0.000 A 
ATOM     23  C   UNL     1       1.846   4.976  19.791  0.00  0.00    +0.000 A 
ATOM     24  C   UNL     1       2.684   4.338  18.868  0.00  0.00    +0.000 A 
ATOM     25  N   UNL     1       3.618   4.859  18.003  0.00  0.00    +0.000 N 
ATOM     26  H   UNL     1       3.832   5.845  17.918  0.00  0.00    +0.000 HD
ENDBRANCH  16  17
ENDBRANCH   3  16
TORSDOF 4
ENDMDL
MODEL 7
REMARK VINA RESULT:      -8.0      4.833      7.276
REMARK  Name = 
REMARK  4 active torsions:
REMARK  status: ('A' for Active; 'I' for Inactive)
REMARK    1  A    between atoms: C_2  and  C_14
REMARK    2  A    between atoms: N_3  and  C_4
REMARK    3  A    between atoms: C_4  and  C_5
REMARK    4  A    between atoms: N_17  and  C_18
REMARK                            x       y       z     vdW  Elec       q    Type
REMARK                         _______ _______ _______ _____ _____    ______ ____
ROOT
ATOM      1  O   UNL     1       5.776   5.569  19.913  0.00  0.00    +0.000 OA
ATOM      2  C   UNL     1       5.254   5.210  18.866  0.00  0.00    +0.000 C 
ATOM      3  N   UNL     1       3.892   5.065  18.718  0.00  0.00    +0.000 N 
ATOM      4  H   UNL     1       3.519   4.616  17.898  0.00  0.00    +0.000 HD
ENDROOT
BRANCH   2   5
ATOM      5  C   UNL     1       6.037   4.912  17.684  0.00  0.00    +0.000 A 
ATOM      6  C   UNL     1       7.430   4.709  17.606  0.00  0.00    +0.000 A 
ATOM      7  N   UNL     1       7.848   4.441  16.369  0.00  0.00    +0.000 NA
ATOM      8  N   UNL     1       6.732   4.534  15.605  0.00  0.00    +0.000 N 
ATOM      9  C   UNL     1       5.619   4.789  16.376  0.00  0.00    +0.000 A 
BRANCH   8  10
ATOM     10  C   UNL     1       6.784   4.403  14.192  0.00  0.00    +0.000 A 
ATOM     11  C   UNL     1       5.955   3.475  13.546  0.00  0.00    +0.000 A 
ATOM     12  C   UNL     1       6.019   3.332  12.161  0.00  0.00    +0.000 A 
ATOM     13  C   UNL     1       6.912   4.100  11.415  0.00  0.00    +0.000 A 
ATOM     14  C   UNL     1       7.738   5.023  12.050  0.00  0.00    +0.000 A 
ATOM     15  C   UNL     1       7.672   5.182  13.434  0.00  0.00    +0.000 A 
ENDBRANCH   8  10
ENDBRANCH   2   5
BRANCH   3  16
ATOM     16  C   UNL     1       3.008   5.259  19.834  0.00  0.00    +0.000 C 
BRANCH  16  17
ATOM     17  C   UNL     1       2.435   6.622  19.716  0.00  0.00    +0.000 A 
ATOM     18  C   UNL     1       2.348   7.484  18.643  0.00  0.00    +0.000 A 
ATOM     19  C   UNL     1       1.679   8.661  19.075  0.00  0.00    +0.000 A 
ATOM     20  C   UNL     1       1.302   9.862  18.442  0.00  0.00    +0.000 A 
ATOM     21  C   UNL     1       0.633  10.846  19.180  0.00  0.00    +0.000 A 
ATOM     22  C   UNL     1       0.343  10.647  20.528  0.00  0.00    +0.000 A 
ATOM     23  C   UNL     1       0.710   9.465  21.178  0.00  0.00    +0.000 A 
ATOM     24  C   UNL     1       1.376   8.489  20.426  0.00  0.00    +0.000 A 
ATOM     25  N   UNL     1       1.844   7.248  20.790  0.00  0.00    +0.000 N 
ATOM     26  H   UNL     1       1.762   6.856  21.719  0.00  0.00    +0.000 HD
ENDBRANCH  16  17
ENDBRANCH   3  16
TORSDOF 4
ENDMDL
MODEL 8
REMARK VINA RESULT:      -8.0      0.976      1.840
REMARK  Name = 
REMARK  4 active torsions:
REMARK  status: ('A' for Active; 'I' for Inactive)
REMARK    1  A    between atoms: C_2  and  C_14
REMARK    2  A    between atoms: N_3  and  C_4
REMARK    3  A    between atoms: C_4  and  C_5
REMARK    4  A    between atoms: N_17  and  C_18
REMARK                            x       y       z     vdW  Elec       q    Type
REMARK                         _______ _______ _______ _____ _____    ______ ____
ROOT
ATOM      1  O   UNL     1       7.960   4.938  18.628  0.00  0.00    +0.000 OA
ATOM      2  C   UNL     1       7.297   5.751  18.000  0.00  0.00    +0.000 C 
ATOM      3  N   UNL     1       6.199   5.403  17.244  0.00  0.00    +0.000 N 
ATOM      4  H   UNL     1       5.784   6.074  16.618  0.00  0.00    +0.000 HD
ENDROOT
BRANCH   2   5
ATOM      5  C   UNL     1       7.615   7.165  18.008  0.00  0.00    +0.000 A 
ATOM      6  C   UNL     1       7.063   8.174  17.192  0.00  0.00    +0.000 A 
ATOM      7  N   UNL     1       7.561   9.384  17.452  0.00  0.00    +0.000 NA
ATOM      8  N   UNL     1       8.503   9.167  18.404  0.00  0.00    +0.000 N 
ATOM      9  C   UNL     1       8.537   7.841  18.778  0.00  0.00    +0.000 A 
BRANCH   8  10
ATOM     10  C   UNL     1       9.331  10.215  18.882  0.00  0.00    +0.000 A 
ATOM     11  C   UNL     1       9.302  10.562  20.241  0.00  0.00    +0.000 A 
ATOM     12  C   UNL     1      10.101  11.604  20.710  0.00  0.00    +0.000 A 
ATOM     13  C   UNL     1      10.921  12.311  19.832  0.00  0.00    +0.000 A 
ATOM     14  C   UNL     1      10.954  11.972  18.481  0.00  0.00    +0.000 A 
ATOM     15  C   UNL     1      10.168  10.923  18.006  0.00  0.00    +0.000 A 
ENDBRANCH   8  10
ENDBRANCH   2   5
BRANCH   3  16
ATOM     16  C   UNL     1       5.821   4.025  17.093  0.00  0.00    +0.000 C 
BRANCH  16  17
ATOM     17  C   UNL     1       4.724   3.757  18.055  0.00  0.00    +0.000 A 
ATOM     18  C   UNL     1       4.747   3.386  19.384  0.00  0.00    +0.000 A 
ATOM     19  C   UNL     1       3.404   3.284  19.837  0.00  0.00    +0.000 A 
ATOM     20  C   UNL     1       2.810   2.956  21.072  0.00  0.00    +0.000 A 
ATOM     21  C   UNL     1       1.414   2.953  21.181  0.00  0.00    +0.000 A 
ATOM     22  C   UNL     1       0.615   3.266  20.084  0.00  0.00    +0.000 A 
ATOM     23  C   UNL     1       1.183   3.592  18.848  0.00  0.00    +0.000 A 
ATOM     24  C   UNL     1       2.580   3.594  18.756  0.00  0.00    +0.000 A 
ATOM     25  N   UNL     1       3.402   3.875  17.689  0.00  0.00    +0.000 N 
ATOM     26  H   UNL     1       3.076   4.134  16.767  0.00  0.00    +0.000 HD
ENDBRANCH  16  17
ENDBRANCH   3  16
TORSDOF 4
ENDMDL
MODEL 9
REMARK VINA RESULT:      -7.9      6.198      8.730
REMARK  Name = 
REMARK  4 active torsions:
REMARK  status: ('A' for Active; 'I' for Inactive)
REMARK    1  A    between atoms: C_2  and  C_14
REMARK    2  A    between atoms: N_3  and  C_4
REMARK    3  A    between atoms: C_4  and  C_5
REMARK    4  A    between atoms: N_17  and  C_18
REMARK                            x       y       z     vdW  Elec       q    Type
REMARK                         _______ _______ _______ _____ _____    ______ ____
ROOT
ATOM      1  O   UNL     1       1.572   8.276  21.270  0.00  0.00    +0.000 OA
ATOM      2  C   UNL     1       1.738   8.246  20.058  0.00  0.00    +0.000 C 
ATOM      3  N   UNL     1       1.358   9.274  19.223  0.00  0.00    +0.000 N 
ATOM      4  H   UNL     1       1.364   9.141  18.224  0.00  0.00    +0.000 HD
ENDROOT
BRANCH   2   5
ATOM      5  C   UNL     1       2.359   7.115  19.400  0.00  0.00    +0.000 A 
ATOM      6  C   UNL     1       2.314   5.762  19.792  0.00  0.00    +0.000 A 
ATOM      7  N   UNL     1       2.983   4.957  18.965  0.00  0.00    +0.000 NA
ATOM      8  N   UNL     1       3.536   5.793  18.051  0.00  0.00    +0.000 N 
ATOM      9  C   UNL     1       3.153   7.098  18.272  0.00  0.00    +0.000 A 
BRANCH   8  10
ATOM     10  C   UNL     1       4.412   5.315  17.042  0.00  0.00    +0.000 A 
ATOM     11  C   UNL     1       4.993   6.217  16.139  0.00  0.00    +0.000 A 
ATOM     12  C   UNL     1       5.840   5.749  15.135  0.00  0.00    +0.000 A 
ATOM     13  C   UNL     1       6.102   4.384  15.017  0.00  0.00    +0.000 A 
ATOM     14  C   UNL     1       5.527   3.483  15.910  0.00  0.00    +0.000 A 
ATOM     15  C   UNL     1       4.690   3.944  16.925  0.00  0.00    +0.000 A 
ENDBRANCH   8  10
ENDBRANCH   2   5
BRANCH   3  16
ATOM     16  C   UNL     1       0.665  10.421  19.740  0.00  0.00    +0.000 C 
BRANCH  16  17
ATOM     17  C   UNL     1      -0.572  10.591  18.938  0.00  0.00    +0.000 A 
ATOM     18  C   UNL     1      -1.748  11.261  19.208  0.00  0.00    +0.000 A 
ATOM     19  C   UNL     1      -2.602  11.124  18.080  0.00  0.00    +0.000 A 
ATOM     20  C   UNL     1      -3.898  11.584  17.772  0.00  0.00    +0.000 A 
ATOM     21  C   UNL     1      -4.462  11.262  16.532  0.00  0.00    +0.000 A 
ATOM     22  C   UNL     1      -3.757  10.492  15.609  0.00  0.00    +0.000 A 
ATOM     23  C   UNL     1      -2.471  10.023  15.894  0.00  0.00    +0.000 A 
ATOM     24  C   UNL     1      -1.919  10.357  17.137  0.00  0.00    +0.000 A 
ATOM     25  N   UNL     1      -0.694  10.046  17.681  0.00  0.00    +0.000 N 
ATOM     26  H   UNL     1       0.015   9.494  17.215  0.00  0.00    +0.000 HD
ENDBRANCH  16  17
ENDBRANCH   3  16
TORSDOF 4
ENDMDL
