MODEL 1
REMARK VINA RESULT:      -9.2      0.000      0.000
REMARK  Name = 
REMARK  6 active torsions:
REMARK  status: ('A' for Active; 'I' for Inactive)
REMARK    1  A    between atoms: C_2  and  C_14
REMARK    2  A    between atoms: N_3  and  C_4
REMARK    3  A    between atoms: C_4  and  C_5
REMARK    4  A    between atoms: C_19  and  N_20
REMARK    5  A    between atoms: N_20  and  C_21
REMARK    6  A    between atoms: C_25  and  C_26
REMARK                            x       y       z     vdW  Elec       q    Type
REMARK                         _______ _______ _______ _____ _____    ______ ____
ROOT
ATOM      1  C   UNL     1       2.384   3.387  19.187  0.00  0.00    +0.000 A 
ATOM      2  C   UNL     1       1.506   2.331  19.507  0.00  0.00    +0.000 A 
ATOM      3  C   UNL     1       1.060   2.133  20.815  0.00  0.00    +0.000 A 
ATOM      4  C   UNL     1       1.509   2.967  21.827  0.00  0.00    +0.000 A 
ATOM      5  C   UNL     1       2.316   4.060  21.512  0.00  0.00    +0.000 A 
ATOM      6  C   UNL     1       2.695   4.345  20.182  0.00  0.00    +0.000 A 
ENDROOT
BRANCH   1   8
ATOM      7  O   UNL     1       2.240   3.674  16.823  0.00  0.00    +0.000 OA
ATOM      8  C   UNL     1       2.956   3.448  17.792  0.00  0.00    +0.000 C 
ATOM      9  N   UNL     1       4.328   3.285  17.699  0.00  0.00    +0.000 N 
ATOM     10  H   UNL     1       4.890   3.283  18.545  0.00  0.00    +0.000 HD
BRANCH   9  11
ATOM     11  C   UNL     1       5.091   3.278  16.453  0.00  0.00    +0.000 C 
BRANCH  11  12
ATOM     12  C   UNL     1       5.672   4.644  16.258  0.00  0.00    +0.000 A 
ATOM     13  N   UNL     1       5.300   5.497  15.313  0.00  0.00    +0.000 NA
ATOM     14  N   UNL     1       5.834   6.728  15.597  0.00  0.00    +0.000 NA
ATOM     15  C   UNL     1       6.553   6.607  16.692  0.00  0.00    +0.000 A 
ATOM     16  C   UNL     1       7.254   7.560  17.486  0.00  0.00    +0.000 A 
ATOM     17  C   UNL     1       7.996   7.136  18.525  0.00  0.00    +0.000 A 
ATOM     18  C   UNL     1       8.124   5.719  18.834  0.00  0.00    +0.000 A 
ATOM     19  C   UNL     1       7.400   4.820  18.129  0.00  0.00    +0.000 A 
ATOM     20  N   UNL     1       6.584   5.274  17.089  0.00  0.00    +0.000 N 
ENDBRANCH  11  12
ENDBRANCH   9  11
ENDBRANCH   1   8
BRANCH   6  21
ATOM     21  N   UNL     1       3.363   5.572  19.908  0.00  0.00    +0.000 N 
ATOM     22  H   UNL     1       4.297   5.408  19.512  0.00  0.00    +0.000 HD
BRANCH  21  23
ATOM     23  C   UNL     1       2.796   6.773  19.394  0.00  0.00    +0.000 A 
ATOM     24  C   UNL     1       3.030   7.239  18.091  0.00  0.00    +0.000 A 
ATOM     25  C   UNL     1       2.448   8.420  17.619  0.00  0.00    +0.000 A 
ATOM     26  C   UNL     1       1.614   9.165  18.446  0.00  0.00    +0.000 A 
ATOM     27  C   UNL     1       1.349   8.730  19.750  0.00  0.00    +0.000 A 
ATOM     28  C   UNL     1       1.948   7.535  20.212  0.00  0.00    +0.000 A 
BRANCH  27  29
ATOM     29  C   UNL     1       0.426   9.517  20.648  0.00  0.00    +0.000 C 
ATOM     30  F   UNL     1       0.216   8.929  21.862  0.00  0.00    +0.000 F 
ATOM     31  F   UNL     1       0.900  10.764  20.921  0.00  0.00    +0.000 F 
ATOM     32  F   UNL     1      -0.810   9.693  20.108  0.00  0.00    +0.000 F 
ENDBRANCH  27  29
ENDBRANCH  21  23
ENDBRANCH   6  21
TORSDOF 6
ENDMDL
MODEL 2
REMARK VINA RESULT:      -9.1      3.841      7.437
REMARK  Name = 
REMARK  6 active torsions:
REMARK  status: ('A' for Active; 'I' for Inactive)
REMARK    1  A    between atoms: C_2  and  C_14
REMARK    2  A    between atoms: N_3  and  C_4
REMARK    3  A    between atoms: C_4  and  C_5
REMARK    4  A    between atoms: C_19  and  N_20
REMARK    5  A    between atoms: N_20  and  C_21
REMARK    6  A    between atoms: C_25  and  C_26
REMARK                            x       y       z     vdW  Elec       q    Type
REMARK                         _______ _______ _______ _____ _____    ______ ____
ROOT
ATOM      1  C   UNL     1       2.112   5.318  19.695  0.00  0.00    +0.000 A 
ATOM      2  C   UNL     1       1.707   4.828  20.954  0.00  0.00    +0.000 A 
ATOM      3  C   UNL     1       1.464   3.468  21.156  0.00  0.00    +0.000 A 
ATOM      4  C   UNL     1       1.593   2.583  20.096  0.00  0.00    +0.000 A 
ATOM      5  C   UNL     1       2.065   3.043  18.868  0.00  0.00    +0.000 A 
ATOM      6  C   UNL     1       2.419   4.395  18.667  0.00  0.00    +0.000 A 
ENDROOT
BRANCH   1   8
ATOM      7  O   UNL     1       2.565   7.291  18.434  0.00  0.00    +0.000 OA
ATOM      8  C   UNL     1       2.198   6.812  19.501  0.00  0.00    +0.000 C 
ATOM      9  N   UNL     1       1.790   7.582  20.577  0.00  0.00    +0.000 N 
ATOM     10  H   UNL     1       1.328   7.136  21.364  0.00  0.00    +0.000 HD
BRANCH   9  11
ATOM     11  C   UNL     1       1.815   9.041  20.624  0.00  0.00    +0.000 C 
BRANCH  11  12
ATOM     12  C   UNL     1       0.819   9.489  21.649  0.00  0.00    +0.000 A 
ATOM     13  N   UNL     1       0.854   9.157  22.933  0.00  0.00    +0.000 NA
ATOM     14  N   UNL     1      -0.030   9.952  23.617  0.00  0.00    +0.000 NA
ATOM     15  C   UNL     1      -0.620  10.737  22.741  0.00  0.00    +0.000 A 
ATOM     16  C   UNL     1      -1.549  11.807  22.887  0.00  0.00    +0.000 A 
ATOM     17  C   UNL     1      -2.067  12.388  21.789  0.00  0.00    +0.000 A 
ATOM     18  C   UNL     1      -1.721  11.922  20.454  0.00  0.00    +0.000 A 
ATOM     19  C   UNL     1      -0.783  10.959  20.312  0.00  0.00    +0.000 A 
ATOM     20  N   UNL     1      -0.205  10.401  21.456  0.00  0.00    +0.000 N 
ENDBRANCH  11  12
ENDBRANCH   9  11
ENDBRANCH   1   8
BRANCH   6  21
ATOM     21  N   UNL     1       3.064   4.761  17.451  0.00  0.00    +0.000 N 
ATOM     22  H   UNL     1       2.642   5.605  17.045  0.00  0.00    +0.000 HD
BRANCH  21  23
ATOM     23  C   UNL     1       4.455   4.693  17.153  0.00  0.00    +0.000 A 
ATOM     24  C   UNL     1       4.959   4.189  15.943  0.00  0.00    +0.000 A 
ATOM     25  C   UNL     1       6.333   4.145  15.684  0.00  0.00    +0.000 A 
ATOM     26  C   UNL     1       7.237   4.608  16.635  0.00  0.00    +0.000 A 
ATOM     27  C   UNL     1       6.773   5.125  17.851  0.00  0.00    +0.000 A 
ATOM     28  C   UNL     1       5.382   5.160  18.098  0.00  0.00    +0.000 A 
BRANCH  27  29
ATOM     29  C   UNL     1       7.744   5.653  18.879  0.00  0.00    +0.000 C 
ATOM     30  F   UNL     1       8.827   4.844  19.069  0.00  0.00    +0.000 F 
ATOM     31  F   UNL     1       8.249   6.872  18.543  0.00  0.00    +0.000 F 
ATOM     32  F   UNL     1       7.179   5.805  20.107  0.00  0.00    +0.000 F 
ENDBRANCH  27  29
ENDBRANCH  21  23
ENDBRANCH   6  21
TORSDOF 6
ENDMDL
MODEL 3
REMARK VINA RESULT:      -8.9      0.781      1.154
REMARK  Name = 
REMARK  6 active torsions:
REMARK  status: ('A' for Active; 'I' for Inactive)
REMARK    1  A    between atoms: C_2  and  C_14
REMARK    2  A    between atoms: N_3  and  C_4
REMARK    3  A    between atoms: C_4  and  C_5
REMARK    4  A    between atoms: C_19  and  N_20
REMARK    5  A    between atoms: N_20  and  C_21
REMARK    6  A    between atoms: C_25  and  C_26
REMARK                            x       y       z     vdW  Elec       q    Type
REMARK                         _______ _______ _______ _____ _____    ______ ____
ROOT
ATOM      1  C   UNL     1       2.664   3.805  19.133  0.00  0.00    +0.000 A 
ATOM      2  C   UNL     1       1.970   2.592  19.321  0.00  0.00    +0.000 A 
ATOM      3  C   UNL     1       1.436   2.249  20.565  0.00  0.00    +0.000 A 
ATOM      4  C   UNL     1       1.613   3.099  21.646  0.00  0.00    +0.000 A 
ATOM      5  C   UNL     1       2.231   4.335  21.456  0.00  0.00    +0.000 A 
ATOM      6  C   UNL     1       2.686   4.752  20.186  0.00  0.00    +0.000 A 
ENDROOT
BRANCH   1   8
ATOM      7  O   UNL     1       3.022   4.962  17.078  0.00  0.00    +0.000 OA
ATOM      8  C   UNL     1       3.356   4.040  17.813  0.00  0.00    +0.000 C 
ATOM      9  N   UNL     1       4.407   3.185  17.527  0.00  0.00    +0.000 N 
ATOM     10  H   UNL     1       4.754   2.560  18.248  0.00  0.00    +0.000 HD
BRANCH   9  11
ATOM     11  C   UNL     1       5.199   3.208  16.300  0.00  0.00    +0.000 C 
BRANCH  11  12
ATOM     12  C   UNL     1       5.804   4.571  16.164  0.00  0.00    +0.000 A 
ATOM     13  N   UNL     1       5.497   5.444  15.214  0.00  0.00    +0.000 NA
ATOM     14  N   UNL     1       6.026   6.664  15.551  0.00  0.00    +0.000 NA
ATOM     15  C   UNL     1       6.676   6.517  16.685  0.00  0.00    +0.000 A 
ATOM     16  C   UNL     1       7.338   7.448  17.536  0.00  0.00    +0.000 A 
ATOM     17  C   UNL     1       8.013   6.998  18.610  0.00  0.00    +0.000 A 
ATOM     18  C   UNL     1       8.108   5.575  18.901  0.00  0.00    +0.000 A 
ATOM     19  C   UNL     1       7.419   4.696  18.138  0.00  0.00    +0.000 A 
ATOM     20  N   UNL     1       6.671   5.177  17.059  0.00  0.00    +0.000 N 
ENDBRANCH  11  12
ENDBRANCH   9  11
ENDBRANCH   1   8
BRANCH   6  21
ATOM     21  N   UNL     1       3.138   6.093  20.026  0.00  0.00    +0.000 N 
ATOM     22  H   UNL     1       3.992   6.132  19.457  0.00  0.00    +0.000 HD
BRANCH  21  23
ATOM     23  C   UNL     1       2.343   7.259  19.834  0.00  0.00    +0.000 A 
ATOM     24  C   UNL     1       2.280   7.955  18.617  0.00  0.00    +0.000 A 
ATOM     25  C   UNL     1       1.482   9.094  18.465  0.00  0.00    +0.000 A 
ATOM     26  C   UNL     1       0.724   9.562  19.533  0.00  0.00    +0.000 A 
ATOM     27  C   UNL     1       0.754   8.890  20.762  0.00  0.00    +0.000 A 
ATOM     28  C   UNL     1       1.569   7.743  20.899  0.00  0.00    +0.000 A 
BRANCH  27  29
ATOM     29  C   UNL     1      -0.083   9.375  21.921  0.00  0.00    +0.000 C 
ATOM     30  F   UNL     1      -0.809  10.495  21.636  0.00  0.00    +0.000 F 
ATOM     31  F   UNL     1      -0.988   8.446  22.336  0.00  0.00    +0.000 F 
ATOM     32  F   UNL     1       0.663   9.689  23.014  0.00  0.00    +0.000 F 
ENDBRANCH  27  29
ENDBRANCH  21  23
ENDBRANCH   6  21
TORSDOF 6
ENDMDL
MODEL 4
REMARK VINA RESULT:      -8.7      3.782      7.460
REMARK  Name = 
REMARK  6 active torsions:
REMARK  status: ('A' for Active; 'I' for Inactive)
REMARK    1  A    between atoms: C_2  and  C_14
REMARK    2  A    between atoms: N_3  and  C_4
REMARK    3  A    between atoms: C_4  and  C_5
REMARK    4  A    between atoms: C_19  and  N_20
REMARK    5  A    between atoms: N_20  and  C_21
REMARK    6  A    between atoms: C_25  and  C_26
REMARK                            x       y       z     vdW  Elec       q    Type
REMARK                         _______ _______ _______ _____ _____    ______ ____
ROOT
ATOM      1  C   UNL     1       2.177   5.578  19.715  0.00  0.00    +0.000 A 
ATOM      2  C   UNL     1       1.885   5.100  21.010  0.00  0.00    +0.000 A 
ATOM      3  C   UNL     1       1.793   3.732  21.271  0.00  0.00    +0.000 A 
ATOM      4  C   UNL     1       1.960   2.823  20.238  0.00  0.00    +0.000 A 
ATOM      5  C   UNL     1       2.324   3.279  18.971  0.00  0.00    +0.000 A 
ATOM      6  C   UNL     1       2.528   4.650  18.705  0.00  0.00    +0.000 A 
ENDROOT
BRANCH   1   8
ATOM      7  O   UNL     1       2.278   7.527  18.343  0.00  0.00    +0.000 OA
ATOM      8  C   UNL     1       2.101   7.064  19.464  0.00  0.00    +0.000 C 
ATOM      9  N   UNL     1       1.772   7.842  20.561  0.00  0.00    +0.000 N 
ATOM     10  H   UNL     1       1.460   7.393  21.417  0.00  0.00    +0.000 HD
BRANCH   9  11
ATOM     11  C   UNL     1       1.670   9.299  20.559  0.00  0.00    +0.000 C 
BRANCH  11  12
ATOM     12  C   UNL     1       0.685   9.696  21.614  0.00  0.00    +0.000 A 
ATOM     13  N   UNL     1       0.746   9.322  22.886  0.00  0.00    +0.000 NA
ATOM     14  N   UNL     1      -0.139  10.080  23.610  0.00  0.00    +0.000 NA
ATOM     15  C   UNL     1      -0.755  10.884  22.770  0.00  0.00    +0.000 A 
ATOM     16  C   UNL     1      -1.698  11.934  22.967  0.00  0.00    +0.000 A 
ATOM     17  C   UNL     1      -2.242  12.544  21.898  0.00  0.00    +0.000 A 
ATOM     18  C   UNL     1      -1.911  12.128  20.543  0.00  0.00    +0.000 A 
ATOM     19  C   UNL     1      -0.961  11.185  20.353  0.00  0.00    +0.000 A 
ATOM     20  N   UNL     1      -0.356  10.598  21.468  0.00  0.00    +0.000 N 
ENDBRANCH  11  12
ENDBRANCH   9  11
ENDBRANCH   1   8
BRANCH   6  21
ATOM     21  N   UNL     1       3.074   5.030  17.446  0.00  0.00    +0.000 N 
ATOM     22  H   UNL     1       2.573   5.835  17.051  0.00  0.00    +0.000 HD
BRANCH  21  23
ATOM     23  C   UNL     1       4.446   5.045  17.064  0.00  0.00    +0.000 A 
ATOM     24  C   UNL     1       5.029   4.064  16.247  0.00  0.00    +0.000 A 
ATOM     25  C   UNL     1       6.380   4.119  15.888  0.00  0.00    +0.000 A 
ATOM     26  C   UNL     1       7.180   5.162  16.341  0.00  0.00    +0.000 A 
ATOM     27  C   UNL     1       6.634   6.165  17.152  0.00  0.00    +0.000 A 
ATOM     28  C   UNL     1       5.267   6.093  17.508  0.00  0.00    +0.000 A 
BRANCH  27  29
ATOM     29  C   UNL     1       7.487   7.315  17.629  0.00  0.00    +0.000 C 
ATOM     30  F   UNL     1       8.377   7.756  16.692  0.00  0.00    +0.000 F 
ATOM     31  F   UNL     1       6.748   8.405  17.976  0.00  0.00    +0.000 F 
ATOM     32  F   UNL     1       8.232   7.000  18.722  0.00  0.00    +0.000 F 
ENDBRANCH  27  29
ENDBRANCH  21  23
ENDBRANCH   6  21
TORSDOF 6
ENDMDL
MODEL 5
REMARK VINA RESULT:      -8.7      2.898      6.490
REMARK  Name = 
REMARK  6 active torsions:
REMARK  status: ('A' for Active; 'I' for Inactive)
REMARK    1  A    between atoms: C_2  and  C_14
REMARK    2  A    between atoms: N_3  and  C_4
REMARK    3  A    between atoms: C_4  and  C_5
REMARK    4  A    between atoms: C_19  and  N_20
REMARK    5  A    between atoms: N_20  and  C_21
REMARK    6  A    between atoms: C_25  and  C_26
REMARK                            x       y       z     vdW  Elec       q    Type
REMARK                         _______ _______ _______ _____ _____    ______ ____
ROOT
ATOM      1  C   UNL     1       5.058   5.219  16.717  0.00  0.00    +0.000 A 
ATOM      2  C   UNL     1       5.379   6.088  15.654  0.00  0.00    +0.000 A 
ATOM      3  C   UNL     1       5.978   5.611  14.486  0.00  0.00    +0.000 A 
ATOM      4  C   UNL     1       6.293   4.266  14.377  0.00  0.00    +0.000 A 
ATOM      5  C   UNL     1       5.913   3.384  15.388  0.00  0.00    +0.000 A 
ATOM      6  C   UNL     1       5.212   3.823  16.532  0.00  0.00    +0.000 A 
ENDROOT
BRANCH   1   8
ATOM      7  O   UNL     1       5.315   5.955  18.972  0.00  0.00    +0.000 OA
ATOM      8  C   UNL     1       4.565   5.818  18.012  0.00  0.00    +0.000 C 
ATOM      9  N   UNL     1       3.247   6.241  18.013  0.00  0.00    +0.000 N 
ATOM     10  H   UNL     1       2.730   6.269  17.140  0.00  0.00    +0.000 HD
BRANCH   9  11
ATOM     11  C   UNL     1       2.552   6.822  19.159  0.00  0.00    +0.000 C 
BRANCH  11  12
ATOM     12  C   UNL     1       2.135   8.212  18.791  0.00  0.00    +0.000 A 
ATOM     13  N   UNL     1       2.432   8.814  17.647  0.00  0.00    +0.000 NA
ATOM     14  N   UNL     1       1.671   9.949  17.537  0.00  0.00    +0.000 NA
ATOM     15  C   UNL     1       0.941  10.047  18.627  0.00  0.00    +0.000 A 
ATOM     16  C   UNL     1      -0.080  10.961  19.016  0.00  0.00    +0.000 A 
ATOM     17  C   UNL     1      -0.606  10.878  20.252  0.00  0.00    +0.000 A 
ATOM     18  C   UNL     1      -0.127   9.893  21.212  0.00  0.00    +0.000 A 
ATOM     19  C   UNL     1       0.787   8.977  20.820  0.00  0.00    +0.000 A 
ATOM     20  N   UNL     1       1.284   9.033  19.515  0.00  0.00    +0.000 N 
ENDBRANCH  11  12
ENDBRANCH   9  11
ENDBRANCH   1   8
BRANCH   6  21
ATOM     21  N   UNL     1       4.695   2.850  17.434  0.00  0.00    +0.000 N 
ATOM     22  H   UNL     1       5.430   2.491  18.055  0.00  0.00    +0.000 HD
BRANCH  21  23
ATOM     23  C   UNL     1       3.432   2.863  18.093  0.00  0.00    +0.000 A 
ATOM     24  C   UNL     1       2.207   2.880  17.408  0.00  0.00    +0.000 A 
ATOM     25  C   UNL     1       0.986   2.884  18.092  0.00  0.00    +0.000 A 
ATOM     26  C   UNL     1       0.965   2.870  19.482  0.00  0.00    +0.000 A 
ATOM     27  C   UNL     1       2.166   2.844  20.201  0.00  0.00    +0.000 A 
ATOM     28  C   UNL     1       3.392   2.843  19.495  0.00  0.00    +0.000 A 
BRANCH  27  29
ATOM     29  C   UNL     1       2.156   2.803  21.710  0.00  0.00    +0.000 C 
ATOM     30  F   UNL     1       0.968   2.381  22.234  0.00  0.00    +0.000 F 
ATOM     31  F   UNL     1       3.100   1.963  22.217  0.00  0.00    +0.000 F 
ATOM     32  F   UNL     1       2.392   4.019  22.272  0.00  0.00    +0.000 F 
ENDBRANCH  27  29
ENDBRANCH  21  23
ENDBRANCH   6  21
TORSDOF 6
ENDMDL
MODEL 6
REMARK VINA RESULT:      -8.7      2.890      6.299
REMARK  Name = 
REMARK  6 active torsions:
REMARK  status: ('A' for Active; 'I' for Inactive)
REMARK    1  A    between atoms: C_2  and  C_14
REMARK    2  A    between atoms: N_3  and  C_4
REMARK    3  A    between atoms: C_4  and  C_5
REMARK    4  A    between atoms: C_19  and  N_20
REMARK    5  A    between atoms: N_20  and  C_21
REMARK    6  A    between atoms: C_25  and  C_26
REMARK                            x       y       z     vdW  Elec       q    Type
REMARK                         _______ _______ _______ _____ _____    ______ ____
ROOT
ATOM      1  C   UNL     1       5.885   6.408  17.599  0.00  0.00    +0.000 A 
ATOM      2  C   UNL     1       6.924   7.342  17.790  0.00  0.00    +0.000 A 
ATOM      3  C   UNL     1       8.074   7.008  18.509  0.00  0.00    +0.000 A 
ATOM      4  C   UNL     1       8.188   5.746  19.072  0.00  0.00    +0.000 A 
ATOM      5  C   UNL     1       7.204   4.790  18.827  0.00  0.00    +0.000 A 
ATOM      6  C   UNL     1       6.082   5.069  18.015  0.00  0.00    +0.000 A 
ENDROOT
BRANCH   1   8
ATOM      7  O   UNL     1       4.496   6.957  15.739  0.00  0.00    +0.000 OA
ATOM      8  C   UNL     1       4.603   6.880  16.958  0.00  0.00    +0.000 C 
ATOM      9  N   UNL     1       3.565   7.163  17.829  0.00  0.00    +0.000 N 
ATOM     10  H   UNL     1       3.652   6.910  18.809  0.00  0.00    +0.000 HD
BRANCH   9  11
ATOM     11  C   UNL     1       2.249   7.660  17.436  0.00  0.00    +0.000 C 
BRANCH  11  12
ATOM     12  C   UNL     1       1.990   8.929  18.188  0.00  0.00    +0.000 A 
ATOM     13  N   UNL     1       2.051  10.146  17.663  0.00  0.00    +0.000 NA
ATOM     14  N   UNL     1       1.495  11.034  18.548  0.00  0.00    +0.000 NA
ATOM     15  C   UNL     1       1.131  10.358  19.616  0.00  0.00    +0.000 A 
ATOM     16  C   UNL     1       0.434  10.739  20.799  0.00  0.00    +0.000 A 
ATOM     17  C   UNL     1       0.273   9.843  21.789  0.00  0.00    +0.000 A 
ATOM     18  C   UNL     1       0.826   8.500  21.690  0.00  0.00    +0.000 A 
ATOM     19  C   UNL     1       1.422   8.113  20.539  0.00  0.00    +0.000 A 
ATOM     20  N   UNL     1       1.532   9.032  19.492  0.00  0.00    +0.000 N 
ENDBRANCH  11  12
ENDBRANCH   9  11
ENDBRANCH   1   8
BRANCH   6  21
ATOM     21  N   UNL     1       5.214   3.999  17.656  0.00  0.00    +0.000 N 
ATOM     22  H   UNL     1       5.731   3.118  17.553  0.00  0.00    +0.000 HD
BRANCH  21  23
ATOM     23  C   UNL     1       3.891   3.761  18.127  0.00  0.00    +0.000 A 
ATOM     24  C   UNL     1       2.770   3.711  17.283  0.00  0.00    +0.000 A 
ATOM     25  C   UNL     1       1.487   3.467  17.783  0.00  0.00    +0.000 A 
ATOM     26  C   UNL     1       1.296   3.265  19.145  0.00  0.00    +0.000 A 
ATOM     27  C   UNL     1       2.389   3.300  20.020  0.00  0.00    +0.000 A 
ATOM     28  C   UNL     1       3.680   3.551  19.499  0.00  0.00    +0.000 A 
BRANCH  27  29
ATOM     29  C   UNL     1       2.197   3.058  21.497  0.00  0.00    +0.000 C 
ATOM     30  F   UNL     1       2.390   4.174  22.260  0.00  0.00    +0.000 F 
ATOM     31  F   UNL     1       0.943   2.620  21.796  0.00  0.00    +0.000 F 
ATOM     32  F   UNL     1       3.051   2.123  21.993  0.00  0.00    +0.000 F 
ENDBRANCH  27  29
ENDBRANCH  21  23
ENDBRANCH   6  21
TORSDOF 6
ENDMDL
MODEL 7
REMARK VINA RESULT:      -8.6      4.534      7.950
REMARK  Name = 
REMARK  6 active torsions:
REMARK  status: ('A' for Active; 'I' for Inactive)
REMARK    1  A    between atoms: C_2  and  C_14
REMARK    2  A    between atoms: N_3  and  C_4
REMARK    3  A    between atoms: C_4  and  C_5
REMARK    4  A    between atoms: C_19  and  N_20
REMARK    5  A    between atoms: N_20  and  C_21
REMARK    6  A    between atoms: C_25  and  C_26
REMARK                            x       y       z     vdW  Elec       q    Type
REMARK                         _______ _______ _______ _____ _____    ______ ____
ROOT
ATOM      1  C   UNL     1       2.376   5.359  19.780  0.00  0.00    +0.000 A 
ATOM      2  C   UNL     1       2.144   4.943  21.108  0.00  0.00    +0.000 A 
ATOM      3  C   UNL     1       1.990   3.593  21.426  0.00  0.00    +0.000 A 
ATOM      4  C   UNL     1       2.034   2.641  20.419  0.00  0.00    +0.000 A 
ATOM      5  C   UNL     1       2.337   3.030  19.116  0.00  0.00    +0.000 A 
ATOM      6  C   UNL     1       2.603   4.377  18.785  0.00  0.00    +0.000 A 
ENDROOT
BRANCH   1   8
ATOM      7  O   UNL     1       3.003   7.293  18.532  0.00  0.00    +0.000 OA
ATOM      8  C   UNL     1       2.370   6.837  19.478  0.00  0.00    +0.000 C 
ATOM      9  N   UNL     1       1.572   7.614  20.300  0.00  0.00    +0.000 N 
ATOM     10  H   UNL     1       0.933   7.163  20.948  0.00  0.00    +0.000 HD
BRANCH   9  11
ATOM     11  C   UNL     1       1.436   9.065  20.212  0.00  0.00    +0.000 C 
BRANCH  11  12
ATOM     12  C   UNL     1       0.600   9.523  21.368  0.00  0.00    +0.000 A 
ATOM     13  N   UNL     1       0.754   9.116  22.621  0.00  0.00    +0.000 NA
ATOM     14  N   UNL     1       0.017   9.932  23.441  0.00  0.00    +0.000 NA
ATOM     15  C   UNL     1      -0.604  10.807  22.680  0.00  0.00    +0.000 A 
ATOM     16  C   UNL     1      -1.424  11.931  22.986  0.00  0.00    +0.000 A 
ATOM     17  C   UNL     1      -2.015  12.611  21.986  0.00  0.00    +0.000 A 
ATOM     18  C   UNL     1      -1.859  12.199  20.598  0.00  0.00    +0.000 A 
ATOM     19  C   UNL     1      -1.022  11.180  20.300  0.00  0.00    +0.000 A 
ATOM     20  N   UNL     1      -0.365  10.517  21.340  0.00  0.00    +0.000 N 
ENDBRANCH  11  12
ENDBRANCH   9  11
ENDBRANCH   1   8
BRANCH   6  21
ATOM     21  N   UNL     1       3.084   4.680  17.479  0.00  0.00    +0.000 N 
ATOM     22  H   UNL     1       2.603   5.497  17.085  0.00  0.00    +0.000 HD
BRANCH  21  23
ATOM     23  C   UNL     1       4.428   4.606  17.011  0.00  0.00    +0.000 A 
ATOM     24  C   UNL     1       5.544   4.720  17.854  0.00  0.00    +0.000 A 
ATOM     25  C   UNL     1       6.849   4.634  17.357  0.00  0.00    +0.000 A 
ATOM     26  C   UNL     1       7.065   4.430  15.998  0.00  0.00    +0.000 A 
ATOM     27  C   UNL     1       5.977   4.303  15.126  0.00  0.00    +0.000 A 
ATOM     28  C   UNL     1       4.665   4.395  15.644  0.00  0.00    +0.000 A 
BRANCH  27  29
ATOM     29  C   UNL     1       6.200   4.056  13.653  0.00  0.00    +0.000 C 
ATOM     30  F   UNL     1       7.172   4.847  13.111  0.00  0.00    +0.000 F 
ATOM     31  F   UNL     1       6.579   2.775  13.390  0.00  0.00    +0.000 F 
ATOM     32  F   UNL     1       5.085   4.281  12.907  0.00  0.00    +0.000 F 
ENDBRANCH  27  29
ENDBRANCH  21  23
ENDBRANCH   6  21
TORSDOF 6
ENDMDL
MODEL 8
REMARK VINA RESULT:      -8.5      3.806      7.121
REMARK  Name = 
REMARK  6 active torsions:
REMARK  status: ('A' for Active; 'I' for Inactive)
REMARK    1  A    between atoms: C_2  and  C_14
REMARK    2  A    between atoms: N_3  and  C_4
REMARK    3  A    between atoms: C_4  and  C_5
REMARK    4  A    between atoms: C_19  and  N_20
REMARK    5  A    between atoms: N_20  and  C_21
REMARK    6  A    between atoms: C_25  and  C_26
REMARK                            x       y       z     vdW  Elec       q    Type
REMARK                         _______ _______ _______ _____ _____    ______ ____
ROOT
ATOM      1  C   UNL     1       1.951   5.186  19.682  0.00  0.00    +0.000 A 
ATOM      2  C   UNL     1       1.331   4.393  20.671  0.00  0.00    +0.000 A 
ATOM      3  C   UNL     1       0.878   3.104  20.384  0.00  0.00    +0.000 A 
ATOM      4  C   UNL     1       1.010   2.600  19.099  0.00  0.00    +0.000 A 
ATOM      5  C   UNL     1       1.687   3.343  18.134  0.00  0.00    +0.000 A 
ATOM      6  C   UNL     1       2.248   4.605  18.425  0.00  0.00    +0.000 A 
ENDROOT
BRANCH   1   8
ATOM      7  O   UNL     1       3.214   7.199  19.485  0.00  0.00    +0.000 OA
ATOM      8  C   UNL     1       2.267   6.624  20.010  0.00  0.00    +0.000 C 
ATOM      9  N   UNL     1       1.396   7.246  20.888  0.00  0.00    +0.000 N 
ATOM     10  H   UNL     1       0.532   6.780  21.149  0.00  0.00    +0.000 HD
BRANCH   9  11
ATOM     11  C   UNL     1       1.523   8.619  21.368  0.00  0.00    +0.000 C 
BRANCH  11  12
ATOM     12  C   UNL     1       0.808   9.514  20.403  0.00  0.00    +0.000 A 
ATOM     13  N   UNL     1       0.866   9.404  19.083  0.00  0.00    +0.000 NA
ATOM     14  N   UNL     1      -0.109  10.196  18.532  0.00  0.00    +0.000 NA
ATOM     15  C   UNL     1      -0.730  10.806  19.518  0.00  0.00    +0.000 A 
ATOM     16  C   UNL     1      -1.865  11.668  19.548  0.00  0.00    +0.000 A 
ATOM     17  C   UNL     1      -2.236  12.233  20.711  0.00  0.00    +0.000 A 
ATOM     18  C   UNL     1      -1.481  12.008  21.935  0.00  0.00    +0.000 A 
ATOM     19  C   UNL     1      -0.450  11.132  21.925  0.00  0.00    +0.000 A 
ATOM     20  N   UNL     1      -0.108  10.503  20.725  0.00  0.00    +0.000 N 
ENDBRANCH  11  12
ENDBRANCH   9  11
ENDBRANCH   1   8
BRANCH   6  21
ATOM     21  N   UNL     1       3.081   5.227  17.452  0.00  0.00    +0.000 N 
ATOM     22  H   UNL     1       2.874   6.229  17.370  0.00  0.00    +0.000 HD
BRANCH  21  23
ATOM     23  C   UNL     1       4.458   4.968  17.196  0.00  0.00    +0.000 A 
ATOM     24  C   UNL     1       4.918   4.313  16.043  0.00  0.00    +0.000 A 
ATOM     25  C   UNL     1       6.280   4.084  15.825  0.00  0.00    +0.000 A 
ATOM     26  C   UNL     1       7.218   4.510  16.760  0.00  0.00    +0.000 A 
ATOM     27  C   UNL     1       6.800   5.174  17.920  0.00  0.00    +0.000 A 
ATOM     28  C   UNL     1       5.419   5.395  18.126  0.00  0.00    +0.000 A 
BRANCH  27  29
ATOM     29  C   UNL     1       7.810   5.663  18.929  0.00  0.00    +0.000 C 
ATOM     30  F   UNL     1       8.862   4.810  19.101  0.00  0.00    +0.000 F 
ATOM     31  F   UNL     1       8.359   6.859  18.582  0.00  0.00    +0.000 F 
ATOM     32  F   UNL     1       7.274   5.839  20.167  0.00  0.00    +0.000 F 
ENDBRANCH  27  29
ENDBRANCH  21  23
ENDBRANCH   6  21
TORSDOF 6
ENDMDL
MODEL 9
REMARK VINA RESULT:      -8.5      3.936      6.356
REMARK  Name = 
REMARK  6 active torsions:
REMARK  status: ('A' for Active; 'I' for Inactive)
REMARK    1  A    between atoms: C_2  and  C_14
REMARK    2  A    between atoms: N_3  and  C_4
REMARK    3  A    between atoms: C_4  and  C_5
REMARK    4  A    between atoms: C_19  and  N_20
REMARK    5  A    between atoms: N_20  and  C_21
REMARK    6  A    between atoms: C_25  and  C_26
REMARK                            x       y       z     vdW  Elec       q    Type
REMARK                         _______ _______ _______ _____ _____    ______ ____
ROOT
ATOM      1  C   UNL     1       0.332  10.014  20.675  0.00  0.00    +0.000 A 
ATOM      2  C   UNL     1       0.558   9.072  21.701  0.00  0.00    +0.000 A 
ATOM      3  C   UNL     1      -0.004   9.237  22.969  0.00  0.00    +0.000 A 
ATOM      4  C   UNL     1      -0.773  10.358  23.239  0.00  0.00    +0.000 A 
ATOM      5  C   UNL     1      -1.066  11.256  22.213  0.00  0.00    +0.000 A 
ATOM      6  C   UNL     1      -0.598  11.058  20.895  0.00  0.00    +0.000 A 
ENDROOT
BRANCH   1   8
ATOM      7  O   UNL     1       1.182  10.793  18.587  0.00  0.00    +0.000 OA
ATOM      8  C   UNL     1       1.099   9.865  19.384  0.00  0.00    +0.000 C 
ATOM      9  N   UNL     1       1.729   8.646  19.197  0.00  0.00    +0.000 N 
ATOM     10  H   UNL     1       1.776   7.985  19.966  0.00  0.00    +0.000 HD
BRANCH   9  11
ATOM     11  C   UNL     1       2.498   8.271  18.014  0.00  0.00    +0.000 C 
BRANCH  11  12
ATOM     12  C   UNL     1       2.930   6.846  18.175  0.00  0.00    +0.000 A 
ATOM     13  N   UNL     1       2.389   5.983  19.024  0.00  0.00    +0.000 NA
ATOM     14  N   UNL     1       2.834   4.723  18.713  0.00  0.00    +0.000 NA
ATOM     15  C   UNL     1       3.666   4.833  17.701  0.00  0.00    +0.000 A 
ATOM     16  C   UNL     1       4.354   3.862  16.917  0.00  0.00    +0.000 A 
ATOM     17  C   UNL     1       5.231   4.268  15.981  0.00  0.00    +0.000 A 
ATOM     18  C   UNL     1       5.518   5.681  15.777  0.00  0.00    +0.000 A 
ATOM     19  C   UNL     1       4.812   6.606  16.467  0.00  0.00    +0.000 A 
ATOM     20  N   UNL     1       3.859   6.177  17.395  0.00  0.00    +0.000 N 
ENDBRANCH  11  12
ENDBRANCH   9  11
ENDBRANCH   1   8
BRANCH   6  21
ATOM     21  N   UNL     1      -1.082  11.908  19.861  0.00  0.00    +0.000 N 
ATOM     22  H   UNL     1      -0.315  12.250  19.270  0.00  0.00    +0.000 HD
BRANCH  21  23
ATOM     23  C   UNL     1      -2.280  11.759  19.105  0.00  0.00    +0.000 A 
ATOM     24  C   UNL     1      -3.532  12.213  19.549  0.00  0.00    +0.000 A 
ATOM     25  C   UNL     1      -4.685  12.055  18.773  0.00  0.00    +0.000 A 
ATOM     26  C   UNL     1      -4.610  11.436  17.530  0.00  0.00    +0.000 A 
ATOM     27  C   UNL     1      -3.378  10.976  17.049  0.00  0.00    +0.000 A 
ATOM     28  C   UNL     1      -2.222  11.142  17.846  0.00  0.00    +0.000 A 
BRANCH  27  29
ATOM     29  C   UNL     1      -3.280  10.326  15.690  0.00  0.00    +0.000 C 
ATOM     30  F   UNL     1      -2.706   9.088  15.720  0.00  0.00    +0.000 F 
ATOM     31  F   UNL     1      -4.498  10.151  15.105  0.00  0.00    +0.000 F 
ATOM     32  F   UNL     1      -2.540  11.052  14.810  0.00  0.00    +0.000 F 
ENDBRANCH  27  29
ENDBRANCH  21  23
ENDBRANCH   6  21
TORSDOF 6
ENDMDL
