MODEL 1
REMARK VINA RESULT:      -8.8      0.000      0.000
REMARK  Name = 
REMARK  5 active torsions:
REMARK  status: ('A' for Active; 'I' for Inactive)
REMARK    1  A    between atoms: C_7  and  S_8
REMARK    2  A    between atoms: S_8  and  N_11
REMARK    3  A    between atoms: N_11  and  C_12
REMARK    4  A    between atoms: C_14  and  C_15
REMARK    5  A    between atoms: C_15  and  O_17
REMARK                            x       y       z     vdW  Elec       q    Type
REMARK                         _______ _______ _______ _____ _____    ______ ____
ROOT
ATOM      1  S   UNL     1       2.865   3.174  18.185  0.00  0.00    +0.000 S 
ATOM      2  O   UNL     1       2.307   2.156  19.048  0.00  0.00    +0.000 OA
ATOM      3  O   UNL     1       2.612   3.171  16.760  0.00  0.00    +0.000 OA
ENDROOT
BRANCH   1  10
ATOM      4  O   UNL     1       1.080  10.729  20.233  0.00  0.00    +0.000 OA
ATOM      5  C   UNL     1       1.290   9.642  19.698  0.00  0.00    +0.000 C 
ATOM      6  C   UNL     1       1.231   9.451  18.201  0.00  0.00    +0.000 C 
ATOM      7  C   UNL     1       2.221   8.398  17.731  0.00  0.00    +0.000 C 
ATOM      8  C   UNL     1       2.092   7.142  18.550  0.00  0.00    +0.000 A 
ATOM      9  C   UNL     1       2.407   5.887  18.015  0.00  0.00    +0.000 A 
ATOM     10  C   UNL     1       2.365   4.753  18.837  0.00  0.00    +0.000 A 
ATOM     11  C   UNL     1       2.053   4.871  20.195  0.00  0.00    +0.000 A 
ATOM     12  C   UNL     1       1.753   6.126  20.731  0.00  0.00    +0.000 A 
ATOM     13  C   UNL     1       1.763   7.252  19.908  0.00  0.00    +0.000 A 
ATOM     14  N   UNL     1       1.472   8.508  20.448  0.00  0.00    +0.000 N 
ATOM     15  H   UNL     1       1.374   8.623  21.448  0.00  0.00    +0.000 HD
ENDBRANCH   1  10
BRANCH   1  16
ATOM     16  N   UNL     1       4.542   3.153  18.473  0.00  0.00    +0.000 N 
ATOM     17  H   UNL     1       4.862   2.191  18.334  0.00  0.00    +0.000 HD
BRANCH  16  18
ATOM     18  C   UNL     1       5.314   4.148  17.796  0.00  0.00    +0.000 A 
ATOM     19  C   UNL     1       5.655   3.961  16.459  0.00  0.00    +0.000 A 
ATOM     20  C   UNL     1       6.458   4.908  15.802  0.00  0.00    +0.000 A 
ATOM     21  C   UNL     1       6.940   6.028  16.499  0.00  0.00    +0.000 A 
ATOM     22  C   UNL     1       6.599   6.210  17.843  0.00  0.00    +0.000 A 
ATOM     23  C   UNL     1       5.792   5.271  18.481  0.00  0.00    +0.000 A 
ATOM     24  F   UNL     1       5.473   5.454  19.771  0.00  0.00    +0.000 F 
BRANCH  20  25
ATOM     25  C   UNL     1       6.819   4.635  14.389  0.00  0.00    +0.000 C 
ATOM     26  O   UNL     1       7.517   5.397  13.740  0.00  0.00    +0.000 OA
BRANCH  25  27
ATOM     27  O   UNL     1       6.344   3.473  13.900  0.00  0.00    +0.000 OA
ATOM     28  H   UNL     1       5.376   3.402  13.824  0.00  0.00    +0.000 HD
ENDBRANCH  25  27
ENDBRANCH  20  25
ENDBRANCH  16  18
ENDBRANCH   1  16
TORSDOF 5
ENDMDL
MODEL 2
REMARK VINA RESULT:      -8.1      3.749      5.056
REMARK  Name = 
REMARK  5 active torsions:
REMARK  status: ('A' for Active; 'I' for Inactive)
REMARK    1  A    between atoms: C_7  and  S_8
REMARK    2  A    between atoms: S_8  and  N_11
REMARK    3  A    between atoms: N_11  and  C_12
REMARK    4  A    between atoms: C_14  and  C_15
REMARK    5  A    between atoms: C_15  and  O_17
REMARK                            x       y       z     vdW  Elec       q    Type
REMARK                         _______ _______ _______ _____ _____    ______ ____
ROOT
ATOM      1  S   UNL     1       6.341   6.113  16.210  0.00  0.00    +0.000 S 
ATOM      2  O   UNL     1       5.440   6.562  15.172  0.00  0.00    +0.000 OA
ATOM      3  O   UNL     1       7.215   7.040  16.897  0.00  0.00    +0.000 OA
ENDROOT
BRANCH   1  10
ATOM      4  O   UNL     1       1.067   2.505  21.069  0.00  0.00    +0.000 OA
ATOM      5  C   UNL     1       1.746   2.955  20.150  0.00  0.00    +0.000 C 
ATOM      6  C   UNL     1       1.353   2.799  18.700  0.00  0.00    +0.000 C 
ATOM      7  C   UNL     1       1.796   3.991  17.867  0.00  0.00    +0.000 C 
ATOM      8  C   UNL     1       3.247   4.303  18.115  0.00  0.00    +0.000 A 
ATOM      9  C   UNL     1       4.043   4.900  17.129  0.00  0.00    +0.000 A 
ATOM     10  C   UNL     1       5.363   5.261  17.429  0.00  0.00    +0.000 A 
ATOM     11  C   UNL     1       5.877   5.069  18.715  0.00  0.00    +0.000 A 
ATOM     12  C   UNL     1       5.078   4.487  19.702  0.00  0.00    +0.000 A 
ATOM     13  C   UNL     1       3.774   4.097  19.397  0.00  0.00    +0.000 A 
ATOM     14  N   UNL     1       2.972   3.523  20.387  0.00  0.00    +0.000 N 
ATOM     15  H   UNL     1       3.287   3.499  21.349  0.00  0.00    +0.000 HD
ENDBRANCH   1  10
BRANCH   1  16
ATOM     16  N   UNL     1       7.260   4.863  15.513  0.00  0.00    +0.000 N 
ATOM     17  H   UNL     1       7.074   4.012  16.050  0.00  0.00    +0.000 HD
BRANCH  16  18
ATOM     18  C   UNL     1       7.156   4.715  14.094  0.00  0.00    +0.000 A 
ATOM     19  C   UNL     1       6.245   3.805  13.564  0.00  0.00    +0.000 A 
ATOM     20  C   UNL     1       6.173   3.615  12.175  0.00  0.00    +0.000 A 
ATOM     21  C   UNL     1       7.038   4.318  11.322  0.00  0.00    +0.000 A 
ATOM     22  C   UNL     1       7.956   5.227  11.858  0.00  0.00    +0.000 A 
ATOM     23  C   UNL     1       8.010   5.418  13.236  0.00  0.00    +0.000 A 
ATOM     24  F   UNL     1       8.896   6.289  13.740  0.00  0.00    +0.000 F 
BRANCH  20  25
ATOM     25  C   UNL     1       5.208   2.605  11.671  0.00  0.00    +0.000 C 
ATOM     26  O   UNL     1       4.042   2.881  11.444  0.00  0.00    +0.000 OA
BRANCH  25  27
ATOM     27  O   UNL     1       5.733   1.383  11.458  0.00  0.00    +0.000 OA
ATOM     28  H   UNL     1       5.134   0.627  11.594  0.00  0.00    +0.000 HD
ENDBRANCH  25  27
ENDBRANCH  20  25
ENDBRANCH  16  18
ENDBRANCH   1  16
TORSDOF 5
ENDMDL
MODEL 3
REMARK VINA RESULT:      -8.1      0.978      1.760
REMARK  Name = 
REMARK  5 active torsions:
REMARK  status: ('A' for Active; 'I' for Inactive)
REMARK    1  A    between atoms: C_7  and  S_8
REMARK    2  A    between atoms: S_8  and  N_11
REMARK    3  A    between atoms: N_11  and  C_12
REMARK    4  A    between atoms: C_14  and  C_15
REMARK    5  A    between atoms: C_15  and  O_17
REMARK                            x       y       z     vdW  Elec       q    Type
REMARK                         _______ _______ _______ _____ _____    ______ ____
ROOT
ATOM      1  S   UNL     1       3.765   3.308  18.818  0.00  0.00    +0.000 S 
ATOM      2  O   UNL     1       3.314   2.638  20.017  0.00  0.00    +0.000 OA
ATOM      3  O   UNL     1       3.443   2.795  17.504  0.00  0.00    +0.000 OA
ENDROOT
BRANCH   1  10
ATOM      4  O   UNL     1       0.624  10.586  20.090  0.00  0.00    +0.000 OA
ATOM      5  C   UNL     1       1.120   9.463  20.135  0.00  0.00    +0.000 C 
ATOM      6  C   UNL     1       1.326   8.719  21.433  0.00  0.00    +0.000 C 
ATOM      7  C   UNL     1       1.174   7.218  21.249  0.00  0.00    +0.000 C 
ATOM      8  C   UNL     1       2.004   6.737  20.089  0.00  0.00    +0.000 A 
ATOM      9  C   UNL     1       2.517   5.435  20.049  0.00  0.00    +0.000 A 
ATOM     10  C   UNL     1       3.203   4.995  18.911  0.00  0.00    +0.000 A 
ATOM     11  C   UNL     1       3.344   5.831  17.799  0.00  0.00    +0.000 A 
ATOM     12  C   UNL     1       2.819   7.126  17.833  0.00  0.00    +0.000 A 
ATOM     13  C   UNL     1       2.163   7.577  18.978  0.00  0.00    +0.000 A 
ATOM     14  N   UNL     1       1.630   8.869  19.009  0.00  0.00    +0.000 N 
ATOM     15  H   UNL     1       1.611   9.432  18.168  0.00  0.00    +0.000 HD
ENDBRANCH   1  10
BRANCH   1  16
ATOM     16  N   UNL     1       5.453   3.456  18.981  0.00  0.00    +0.000 N 
ATOM     17  H   UNL     1       5.848   2.514  18.922  0.00  0.00    +0.000 HD
BRANCH  16  18
ATOM     18  C   UNL     1       6.088   4.429  18.147  0.00  0.00    +0.000 A 
ATOM     19  C   UNL     1       6.155   4.216  16.773  0.00  0.00    +0.000 A 
ATOM     20  C   UNL     1       6.823   5.139  15.953  0.00  0.00    +0.000 A 
ATOM     21  C   UNL     1       7.447   6.262  16.520  0.00  0.00    +0.000 A 
ATOM     22  C   UNL     1       7.382   6.470  17.901  0.00  0.00    +0.000 A 
ATOM     23  C   UNL     1       6.706   5.554  18.703  0.00  0.00    +0.000 A 
ATOM     24  F   UNL     1       6.652   5.761  20.027  0.00  0.00    +0.000 F 
BRANCH  20  25
ATOM     25  C   UNL     1       6.893   4.840  14.501  0.00  0.00    +0.000 C 
ATOM     26  O   UNL     1       6.130   4.055  13.963  0.00  0.00    +0.000 OA
BRANCH  25  27
ATOM     27  O   UNL     1       7.839   5.526  13.830  0.00  0.00    +0.000 OA
ATOM     28  H   UNL     1       7.710   5.610  12.869  0.00  0.00    +0.000 HD
ENDBRANCH  25  27
ENDBRANCH  20  25
ENDBRANCH  16  18
ENDBRANCH   1  16
TORSDOF 5
ENDMDL
MODEL 4
REMARK VINA RESULT:      -8.0      3.252      4.914
REMARK  Name = 
REMARK  5 active torsions:
REMARK  status: ('A' for Active; 'I' for Inactive)
REMARK    1  A    between atoms: C_7  and  S_8
REMARK    2  A    between atoms: S_8  and  N_11
REMARK    3  A    between atoms: N_11  and  C_12
REMARK    4  A    between atoms: C_14  and  C_15
REMARK    5  A    between atoms: C_15  and  O_17
REMARK                            x       y       z     vdW  Elec       q    Type
REMARK                         _______ _______ _______ _____ _____    ______ ____
ROOT
ATOM      1  S   UNL     1       5.855   6.235  16.343  0.00  0.00    +0.000 S 
ATOM      2  O   UNL     1       5.081   6.726  15.225  0.00  0.00    +0.000 OA
ATOM      3  O   UNL     1       6.854   7.061  16.985  0.00  0.00    +0.000 OA
ENDROOT
BRANCH   1  10
ATOM      4  O   UNL     1       1.070   2.766  21.777  0.00  0.00    +0.000 OA
ATOM      5  C   UNL     1       1.972   3.154  21.038  0.00  0.00    +0.000 C 
ATOM      6  C   UNL     1       3.332   2.497  21.005  0.00  0.00    +0.000 C 
ATOM      7  C   UNL     1       3.947   2.553  19.617  0.00  0.00    +0.000 C 
ATOM      8  C   UNL     1       3.890   3.951  19.064  0.00  0.00    +0.000 A 
ATOM      9  C   UNL     1       4.843   4.413  18.148  0.00  0.00    +0.000 A 
ATOM     10  C   UNL     1       4.702   5.688  17.585  0.00  0.00    +0.000 A 
ATOM     11  C   UNL     1       3.597   6.485  17.898  0.00  0.00    +0.000 A 
ATOM     12  C   UNL     1       2.638   6.017  18.802  0.00  0.00    +0.000 A 
ATOM     13  C   UNL     1       2.793   4.762  19.388  0.00  0.00    +0.000 A 
ATOM     14  N   UNL     1       1.830   4.291  20.285  0.00  0.00    +0.000 N 
ATOM     15  H   UNL     1       0.965   4.800  20.417  0.00  0.00    +0.000 HD
ENDBRANCH   1  10
BRANCH   1  16
ATOM     16  N   UNL     1       6.563   4.782  15.810  0.00  0.00    +0.000 N 
ATOM     17  H   UNL     1       6.067   4.015  16.271  0.00  0.00    +0.000 HD
BRANCH  16  18
ATOM     18  C   UNL     1       6.721   4.635  14.396  0.00  0.00    +0.000 A 
ATOM     19  C   UNL     1       5.906   3.742  13.704  0.00  0.00    +0.000 A 
ATOM     20  C   UNL     1       6.089   3.552  12.325  0.00  0.00    +0.000 A 
ATOM     21  C   UNL     1       7.111   4.239  11.649  0.00  0.00    +0.000 A 
ATOM     22  C   UNL     1       7.929   5.131  12.348  0.00  0.00    +0.000 A 
ATOM     23  C   UNL     1       7.731   5.321  13.713  0.00  0.00    +0.000 A 
ATOM     24  F   UNL     1       8.524   6.177  14.375  0.00  0.00    +0.000 F 
BRANCH  20  25
ATOM     25  C   UNL     1       5.216   2.560  11.649  0.00  0.00    +0.000 C 
ATOM     26  O   UNL     1       4.108   2.851  11.231  0.00  0.00    +0.000 OA
BRANCH  25  27
ATOM     27  O   UNL     1       5.759   1.335  11.510  0.00  0.00    +0.000 OA
ATOM     28  H   UNL     1       5.955   1.052  10.599  0.00  0.00    +0.000 HD
ENDBRANCH  25  27
ENDBRANCH  20  25
ENDBRANCH  16  18
ENDBRANCH   1  16
TORSDOF 5
ENDMDL
MODEL 5
REMARK VINA RESULT:      -8.0      3.427      4.908
REMARK  Name = 
REMARK  5 active torsions:
REMARK  status: ('A' for Active; 'I' for Inactive)
REMARK    1  A    between atoms: C_7  and  S_8
REMARK    2  A    between atoms: S_8  and  N_11
REMARK    3  A    between atoms: N_11  and  C_12
REMARK    4  A    between atoms: C_14  and  C_15
REMARK    5  A    between atoms: C_15  and  O_17
REMARK                            x       y       z     vdW  Elec       q    Type
REMARK                         _______ _______ _______ _____ _____    ______ ____
ROOT
ATOM      1  S   UNL     1       5.989   6.104  16.230  0.00  0.00    +0.000 S 
ATOM      2  O   UNL     1       5.228   6.580  15.096  0.00  0.00    +0.000 OA
ATOM      3  O   UNL     1       6.715   7.019  17.084  0.00  0.00    +0.000 OA
ENDROOT
BRANCH   1  10
ATOM      4  O   UNL     1       0.983   2.677  21.489  0.00  0.00    +0.000 OA
ATOM      5  C   UNL     1       1.617   3.398  20.722  0.00  0.00    +0.000 C 
ATOM      6  C   UNL     1       1.372   4.886  20.621  0.00  0.00    +0.000 C 
ATOM      7  C   UNL     1       2.650   5.643  20.299  0.00  0.00    +0.000 C 
ATOM      8  C   UNL     1       3.357   5.021  19.125  0.00  0.00    +0.000 A 
ATOM      9  C   UNL     1       4.165   5.783  18.273  0.00  0.00    +0.000 A 
ATOM     10  C   UNL     1       4.881   5.152  17.248  0.00  0.00    +0.000 A 
ATOM     11  C   UNL     1       4.828   3.763  17.096  0.00  0.00    +0.000 A 
ATOM     12  C   UNL     1       4.033   3.001  17.956  0.00  0.00    +0.000 A 
ATOM     13  C   UNL     1       3.293   3.631  18.957  0.00  0.00    +0.000 A 
ATOM     14  N   UNL     1       2.505   2.867  19.822  0.00  0.00    +0.000 N 
ATOM     15  H   UNL     1       2.561   1.857  19.805  0.00  0.00    +0.000 HD
ENDBRANCH   1  10
BRANCH   1  16
ATOM     16  N   UNL     1       7.050   4.927  15.612  0.00  0.00    +0.000 N 
ATOM     17  H   UNL     1       6.910   4.073  16.158  0.00  0.00    +0.000 HD
BRANCH  16  18
ATOM     18  C   UNL     1       7.037   4.744  14.194  0.00  0.00    +0.000 A 
ATOM     19  C   UNL     1       6.144   3.838  13.627  0.00  0.00    +0.000 A 
ATOM     20  C   UNL     1       6.161   3.613  12.241  0.00  0.00    +0.000 A 
ATOM     21  C   UNL     1       7.095   4.278  11.430  0.00  0.00    +0.000 A 
ATOM     22  C   UNL     1       7.993   5.183  12.004  0.00  0.00    +0.000 A 
ATOM     23  C   UNL     1       7.960   5.409  13.377  0.00  0.00    +0.000 A 
ATOM     24  F   UNL     1       8.828   6.276  13.918  0.00  0.00    +0.000 F 
BRANCH  20  25
ATOM     25  C   UNL     1       5.211   2.609  11.700  0.00  0.00    +0.000 C 
ATOM     26  O   UNL     1       4.060   2.894  11.414  0.00  0.00    +0.000 OA
BRANCH  25  27
ATOM     27  O   UNL     1       5.733   1.379  11.522  0.00  0.00    +0.000 OA
ATOM     28  H   UNL     1       5.423   0.889  10.740  0.00  0.00    +0.000 HD
ENDBRANCH  25  27
ENDBRANCH  20  25
ENDBRANCH  16  18
ENDBRANCH   1  16
TORSDOF 5
ENDMDL
MODEL 6
REMARK VINA RESULT:      -7.9      2.057      5.938
REMARK  Name = 
REMARK  5 active torsions:
REMARK  status: ('A' for Active; 'I' for Inactive)
REMARK    1  A    between atoms: C_7  and  S_8
REMARK    2  A    between atoms: S_8  and  N_11
REMARK    3  A    between atoms: N_11  and  C_12
REMARK    4  A    between atoms: C_14  and  C_15
REMARK    5  A    between atoms: C_15  and  O_17
REMARK                            x       y       z     vdW  Elec       q    Type
REMARK                         _______ _______ _______ _____ _____    ______ ____
ROOT
ATOM      1  S   UNL     1       3.531   2.641  18.967  0.00  0.00    +0.000 S 
ATOM      2  O   UNL     1       3.369   1.319  18.404  0.00  0.00    +0.000 OA
ATOM      3  O   UNL     1       3.926   2.826  20.347  0.00  0.00    +0.000 OA
ENDROOT
BRANCH   1  10
ATOM      4  O   UNL     1       8.496   5.855  13.538  0.00  0.00    +0.000 OA
ATOM      5  C   UNL     1       7.586   5.338  14.182  0.00  0.00    +0.000 C 
ATOM      6  C   UNL     1       6.353   4.763  13.526  0.00  0.00    +0.000 C 
ATOM      7  C   UNL     1       5.816   3.567  14.295  0.00  0.00    +0.000 C 
ATOM      8  C   UNL     1       5.679   3.890  15.758  0.00  0.00    +0.000 A 
ATOM      9  C   UNL     1       4.718   3.261  16.558  0.00  0.00    +0.000 A 
ATOM     10  C   UNL     1       4.685   3.519  17.934  0.00  0.00    +0.000 A 
ATOM     11  C   UNL     1       5.629   4.367  18.521  0.00  0.00    +0.000 A 
ATOM     12  C   UNL     1       6.598   4.984  17.724  0.00  0.00    +0.000 A 
ATOM     13  C   UNL     1       6.613   4.753  16.349  0.00  0.00    +0.000 A 
ATOM     14  N   UNL     1       7.587   5.363  15.554  0.00  0.00    +0.000 N 
ATOM     15  H   UNL     1       8.350   5.871  15.982  0.00  0.00    +0.000 HD
ENDBRANCH   1  10
BRANCH   1  16
ATOM     16  N   UNL     1       2.062   3.448  18.675  0.00  0.00    +0.000 N 
ATOM     17  H   UNL     1       1.311   2.855  19.037  0.00  0.00    +0.000 HD
BRANCH  16  18
ATOM     18  C   UNL     1       1.999   4.817  19.084  0.00  0.00    +0.000 A 
ATOM     19  C   UNL     1       2.350   5.820  18.183  0.00  0.00    +0.000 A 
ATOM     20  C   UNL     1       2.342   7.163  18.592  0.00  0.00    +0.000 A 
ATOM     21  C   UNL     1       2.007   7.494  19.916  0.00  0.00    +0.000 A 
ATOM     22  C   UNL     1       1.660   6.484  20.818  0.00  0.00    +0.000 A 
ATOM     23  C   UNL     1       1.659   5.157  20.398  0.00  0.00    +0.000 A 
ATOM     24  F   UNL     1       1.327   4.196  21.273  0.00  0.00    +0.000 F 
BRANCH  20  25
ATOM     25  C   UNL     1       2.761   8.183  17.600  0.00  0.00    +0.000 C 
ATOM     26  O   UNL     1       3.734   8.026  16.881  0.00  0.00    +0.000 OA
BRANCH  25  27
ATOM     27  O   UNL     1       1.966   9.269  17.538  0.00  0.00    +0.000 OA
ATOM     28  H   UNL     1       2.367  10.077  17.171  0.00  0.00    +0.000 HD
ENDBRANCH  25  27
ENDBRANCH  20  25
ENDBRANCH  16  18
ENDBRANCH   1  16
TORSDOF 5
ENDMDL
MODEL 7
REMARK VINA RESULT:      -7.9      3.077      4.777
REMARK  Name = 
REMARK  5 active torsions:
REMARK  status: ('A' for Active; 'I' for Inactive)
REMARK    1  A    between atoms: C_7  and  S_8
REMARK    2  A    between atoms: S_8  and  N_11
REMARK    3  A    between atoms: N_11  and  C_12
REMARK    4  A    between atoms: C_14  and  C_15
REMARK    5  A    between atoms: C_15  and  O_17
REMARK                            x       y       z     vdW  Elec       q    Type
REMARK                         _______ _______ _______ _____ _____    ______ ____
ROOT
ATOM      1  S   UNL     1       5.384   5.600  15.247  0.00  0.00    +0.000 S 
ATOM      2  O   UNL     1       5.182   4.722  14.116  0.00  0.00    +0.000 OA
ATOM      3  O   UNL     1       5.004   6.995  15.192  0.00  0.00    +0.000 OA
ENDROOT
BRANCH   1  10
ATOM      4  O   UNL     1       1.795   3.231  22.027  0.00  0.00    +0.000 OA
ATOM      5  C   UNL     1       2.210   3.791  21.015  0.00  0.00    +0.000 C 
ATOM      6  C   UNL     1       1.854   5.219  20.675  0.00  0.00    +0.000 C 
ATOM      7  C   UNL     1       2.987   5.920  19.944  0.00  0.00    +0.000 C 
ATOM      8  C   UNL     1       3.477   5.084  18.793  0.00  0.00    +0.000 A 
ATOM      9  C   UNL     1       4.042   5.670  17.654  0.00  0.00    +0.000 A 
ATOM     10  C   UNL     1       4.573   4.856  16.646  0.00  0.00    +0.000 A 
ATOM     11  C   UNL     1       4.579   3.464  16.787  0.00  0.00    +0.000 A 
ATOM     12  C   UNL     1       4.028   2.880  17.931  0.00  0.00    +0.000 A 
ATOM     13  C   UNL     1       3.470   3.688  18.921  0.00  0.00    +0.000 A 
ATOM     14  N   UNL     1       2.927   3.104  20.069  0.00  0.00    +0.000 N 
ATOM     15  H   UNL     1       3.044   2.113  20.241  0.00  0.00    +0.000 HD
ENDBRANCH   1  10
BRANCH   1  16
ATOM     16  N   UNL     1       7.033   5.467  15.644  0.00  0.00    +0.000 N 
ATOM     17  H   UNL     1       7.568   5.823  14.848  0.00  0.00    +0.000 HD
BRANCH  16  18
ATOM     18  C   UNL     1       7.424   5.993  16.916  0.00  0.00    +0.000 A 
ATOM     19  C   UNL     1       7.690   7.354  17.043  0.00  0.00    +0.000 A 
ATOM     20  C   UNL     1       8.125   7.870  18.274  0.00  0.00    +0.000 A 
ATOM     21  C   UNL     1       8.320   7.011  19.368  0.00  0.00    +0.000 A 
ATOM     22  C   UNL     1       8.056   5.645  19.235  0.00  0.00    +0.000 A 
ATOM     23  C   UNL     1       7.613   5.145  18.013  0.00  0.00    +0.000 A 
ATOM     24  F   UNL     1       7.366   3.833  17.895  0.00  0.00    +0.000 F 
BRANCH  20  25
ATOM     25  C   UNL     1       8.429   9.321  18.339  0.00  0.00    +0.000 C 
ATOM     26  O   UNL     1       7.937  10.121  17.560  0.00  0.00    +0.000 OA
BRANCH  25  27
ATOM     27  O   UNL     1       9.257   9.679  19.339  0.00  0.00    +0.000 OA
ATOM     28  H   UNL     1       8.835   9.917  20.184  0.00  0.00    +0.000 HD
ENDBRANCH  25  27
ENDBRANCH  20  25
ENDBRANCH  16  18
ENDBRANCH   1  16
TORSDOF 5
ENDMDL
MODEL 8
REMARK VINA RESULT:      -7.7      2.172      2.690
REMARK  Name = 
REMARK  5 active torsions:
REMARK  status: ('A' for Active; 'I' for Inactive)
REMARK    1  A    between atoms: C_7  and  S_8
REMARK    2  A    between atoms: S_8  and  N_11
REMARK    3  A    between atoms: N_11  and  C_12
REMARK    4  A    between atoms: C_14  and  C_15
REMARK    5  A    between atoms: C_15  and  O_17
REMARK                            x       y       z     vdW  Elec       q    Type
REMARK                         _______ _______ _______ _____ _____    ______ ____
ROOT
ATOM      1  S   UNL     1       3.549   3.090  18.950  0.00  0.00    +0.000 S 
ATOM      2  O   UNL     1       4.750   2.976  19.747  0.00  0.00    +0.000 OA
ATOM      3  O   UNL     1       2.505   2.091  19.018  0.00  0.00    +0.000 OA
ENDROOT
BRANCH   1  10
ATOM      4  O   UNL     1       0.878  10.623  19.710  0.00  0.00    +0.000 OA
ATOM      5  C   UNL     1       1.259   9.509  19.358  0.00  0.00    +0.000 C 
ATOM      6  C   UNL     1       1.482   9.150  17.908  0.00  0.00    +0.000 C 
ATOM      7  C   UNL     1       2.614   8.149  17.747  0.00  0.00    +0.000 C 
ATOM      8  C   UNL     1       2.434   6.985  18.683  0.00  0.00    +0.000 A 
ATOM      9  C   UNL     1       2.931   5.714  18.369  0.00  0.00    +0.000 A 
ATOM     10  C   UNL     1       2.827   4.678  19.307  0.00  0.00    +0.000 A 
ATOM     11  C   UNL     1       2.269   4.915  20.567  0.00  0.00    +0.000 A 
ATOM     12  C   UNL     1       1.788   6.187  20.885  0.00  0.00    +0.000 A 
ATOM     13  C   UNL     1       1.861   7.212  19.941  0.00  0.00    +0.000 A 
ATOM     14  N   UNL     1       1.387   8.486  20.263  0.00  0.00    +0.000 N 
ATOM     15  H   UNL     1       1.104   8.701  21.211  0.00  0.00    +0.000 HD
ENDBRANCH   1  10
BRANCH   1  16
ATOM     16  N   UNL     1       4.079   3.262  17.342  0.00  0.00    +0.000 N 
ATOM     17  H   UNL     1       3.259   3.491  16.774  0.00  0.00    +0.000 HD
BRANCH  16  18
ATOM     18  C   UNL     1       5.211   4.111  17.135  0.00  0.00    +0.000 A 
ATOM     19  C   UNL     1       5.950   4.550  18.231  0.00  0.00    +0.000 A 
ATOM     20  C   UNL     1       7.031   5.426  18.042  0.00  0.00    +0.000 A 
ATOM     21  C   UNL     1       7.350   5.882  16.752  0.00  0.00    +0.000 A 
ATOM     22  C   UNL     1       6.603   5.443  15.655  0.00  0.00    +0.000 A 
ATOM     23  C   UNL     1       5.541   4.564  15.853  0.00  0.00    +0.000 A 
ATOM     24  F   UNL     1       4.829   4.152  14.794  0.00  0.00    +0.000 F 
BRANCH  20  25
ATOM     25  C   UNL     1       7.757   5.888  19.250  0.00  0.00    +0.000 C 
ATOM     26  O   UNL     1       7.705   5.283  20.308  0.00  0.00    +0.000 OA
BRANCH  25  27
ATOM     27  O   UNL     1       8.495   7.001  19.072  0.00  0.00    +0.000 OA
ATOM     28  H   UNL     1       8.862   7.408  19.877  0.00  0.00    +0.000 HD
ENDBRANCH  25  27
ENDBRANCH  20  25
ENDBRANCH  16  18
ENDBRANCH   1  16
TORSDOF 5
ENDMDL
MODEL 9
REMARK VINA RESULT:      -7.7      2.566      4.997
REMARK  Name = 
REMARK  5 active torsions:
REMARK  status: ('A' for Active; 'I' for Inactive)
REMARK    1  A    between atoms: C_7  and  S_8
REMARK    2  A    between atoms: S_8  and  N_11
REMARK    3  A    between atoms: N_11  and  C_12
REMARK    4  A    between atoms: C_14  and  C_15
REMARK    5  A    between atoms: C_15  and  O_17
REMARK                            x       y       z     vdW  Elec       q    Type
REMARK                         _______ _______ _______ _____ _____    ______ ____
ROOT
ATOM      1  S   UNL     1       5.750   4.621  18.076  0.00  0.00    +0.000 S 
ATOM      2  O   UNL     1       6.539   4.876  16.891  0.00  0.00    +0.000 OA
ATOM      3  O   UNL     1       6.374   4.441  19.369  0.00  0.00    +0.000 OA
ENDROOT
BRANCH   1  10
ATOM      4  O   UNL     1      -0.059   9.973  19.514  0.00  0.00    +0.000 OA
ATOM      5  C   UNL     1       0.847   9.143  19.533  0.00  0.00    +0.000 C 
ATOM      6  C   UNL     1       1.328   8.498  20.812  0.00  0.00    +0.000 C 
ATOM      7  C   UNL     1       1.794   7.071  20.578  0.00  0.00    +0.000 C 
ATOM      8  C   UNL     1       2.752   7.006  19.420  0.00  0.00    +0.000 A 
ATOM      9  C   UNL     1       3.745   6.022  19.349  0.00  0.00    +0.000 A 
ATOM     10  C   UNL     1       4.556   5.936  18.211  0.00  0.00    +0.000 A 
ATOM     11  C   UNL     1       4.354   6.797  17.128  0.00  0.00    +0.000 A 
ATOM     12  C   UNL     1       3.353   7.769  17.193  0.00  0.00    +0.000 A 
ATOM     13  C   UNL     1       2.565   7.878  18.339  0.00  0.00    +0.000 A 
ATOM     14  N   UNL     1       1.558   8.845  18.399  0.00  0.00    +0.000 N 
ATOM     15  H   UNL     1       1.317   9.383  17.576  0.00  0.00    +0.000 HD
ENDBRANCH   1  10
BRANCH   1  16
ATOM     16  N   UNL     1       4.789   3.267  17.706  0.00  0.00    +0.000 N 
ATOM     17  H   UNL     1       5.367   2.435  17.851  0.00  0.00    +0.000 HD
BRANCH  16  18
ATOM     18  C   UNL     1       3.498   3.218  18.320  0.00  0.00    +0.000 A 
ATOM     19  C   UNL     1       3.393   2.907  19.673  0.00  0.00    +0.000 A 
ATOM     20  C   UNL     1       2.127   2.805  20.272  0.00  0.00    +0.000 A 
ATOM     21  C   UNL     1       0.967   2.988  19.502  0.00  0.00    +0.000 A 
ATOM     22  C   UNL     1       1.076   3.295  18.142  0.00  0.00    +0.000 A 
ATOM     23  C   UNL     1       2.337   3.406  17.561  0.00  0.00    +0.000 A 
ATOM     24  F   UNL     1       2.431   3.698  16.255  0.00  0.00    +0.000 F 
BRANCH  20  25
ATOM     25  C   UNL     1       2.077   2.435  21.708  0.00  0.00    +0.000 C 
ATOM     26  O   UNL     1       1.050   2.510  22.361  0.00  0.00    +0.000 OA
BRANCH  25  27
ATOM     27  O   UNL     1       3.241   1.984  22.213  0.00  0.00    +0.000 OA
ATOM     28  H   UNL     1       3.893   2.661  22.465  0.00  0.00    +0.000 HD
ENDBRANCH  25  27
ENDBRANCH  20  25
ENDBRANCH  16  18
ENDBRANCH   1  16
TORSDOF 5
ENDMDL
