MODEL 1
REMARK VINA RESULT:      -7.0      0.000      0.000
REMARK  Name = 
REMARK  3 active torsions:
REMARK  status: ('A' for Active; 'I' for Inactive)
REMARK    1  A    between atoms: C_1  and  C_2
REMARK    2  A    between atoms: C_5  and  C_6
REMARK    3  A    between atoms: N_20  and  C_21
REMARK                            x       y       z     vdW  Elec       q    Type
REMARK                         _______ _______ _______ _____ _____    ______ ____
ROOT
ATOM      1  C   UNL     1      -1.163  12.023  20.330  0.00  0.00    +0.000 C 
ATOM      2  C   UNL     1       0.134  12.621  19.916  0.00  0.00    +0.000 A 
ATOM      3  C   UNL     1      -0.085  13.741  19.226  0.00  0.00    +0.000 A 
ATOM      4  O   UNL     1       0.825  14.613  18.726  0.00  0.00    +0.000 OA
ATOM      5  C   UNL     1       2.046  14.602  19.344  0.00  0.00    +0.000 A 
ATOM      6  C   UNL     1       2.878  15.672  19.023  0.00  0.00    +0.000 A 
ATOM      7  C   UNL     1       4.020  15.895  19.778  0.00  0.00    +0.000 A 
ATOM      8  C   UNL     1       4.337  15.028  20.826  0.00  0.00    +0.000 A 
ATOM      9  C   UNL     1       3.541  13.898  21.090  0.00  0.00    +0.000 A 
ATOM     10  C   UNL     1       2.389  13.668  20.330  0.00  0.00    +0.000 A 
ATOM     11  C   UNL     1       1.447  12.527  20.585  0.00  0.00    +0.000 A 
ATOM     12  O   UNL     1       1.688  11.640  21.393  0.00  0.00    +0.000 OA
ATOM     13  C   UNL     1      -1.386  14.218  19.772  0.00  0.00    +0.000 C 
ATOM     14  O   UNL     1      -1.802  15.349  19.644  0.00  0.00    +0.000 OA
ATOM     15  N   UNL     1      -1.859  13.251  20.710  0.00  0.00    +0.000 N 
ENDROOT
BRANCH   1  20
ATOM     16  C   UNL     1      -3.176  10.121  15.139  0.00  0.00    +0.000 C 
ATOM     17  C   UNL     1      -2.747  10.520  16.522  0.00  0.00    +0.000 A 
ATOM     18  C   UNL     1      -1.566  10.015  17.075  0.00  0.00    +0.000 A 
ATOM     19  C   UNL     1      -1.124  10.429  18.338  0.00  0.00    +0.000 A 
ATOM     20  C   UNL     1      -1.846  11.369  19.087  0.00  0.00    +0.000 A 
ATOM     21  C   UNL     1      -3.085  11.800  18.560  0.00  0.00    +0.000 A 
ATOM     22  C   UNL     1      -3.523  11.392  17.290  0.00  0.00    +0.000 A 
ENDBRANCH   1  20
BRANCH  15  23
ATOM     23  C   UNL     1      -1.821  13.722  22.124  0.00  0.00    +0.000 C 
ATOM     24  C   UNL     1      -1.343  12.684  23.156  0.00  0.00    +0.000 C 
ATOM     25  C   UNL     1      -2.528  11.779  23.434  0.00  0.00    +0.000 C 
ATOM     26  S   UNL     1      -3.896  12.903  23.592  0.00  0.00    +0.000 S 
ATOM     27  O   UNL     1      -5.027  12.364  22.868  0.00  0.00    +0.000 OA
ATOM     28  O   UNL     1      -3.989  13.304  24.982  0.00  0.00    +0.000 OA
ATOM     29  C   UNL     1      -3.168  14.245  22.669  0.00  0.00    +0.000 C 
ENDBRANCH  15  23
TORSDOF 2
ENDMDL
MODEL 2
REMARK VINA RESULT:      -6.7      3.271      6.364
REMARK  Name = 
REMARK  3 active torsions:
REMARK  status: ('A' for Active; 'I' for Inactive)
REMARK    1  A    between atoms: C_1  and  C_2
REMARK    2  A    between atoms: C_5  and  C_6
REMARK    3  A    between atoms: N_20  and  C_21
REMARK                            x       y       z     vdW  Elec       q    Type
REMARK                         _______ _______ _______ _____ _____    ______ ____
ROOT
ATOM      1  C   UNL     1      -2.576  14.276  22.156  0.00  0.00    +0.000 C 
ATOM      2  C   UNL     1      -1.522  13.228  22.093  0.00  0.00    +0.000 A 
ATOM      3  C   UNL     1      -1.634  12.412  23.142  0.00  0.00    +0.000 A 
ATOM      4  O   UNL     1      -0.911  11.299  23.423  0.00  0.00    +0.000 OA
ATOM      5  C   UNL     1      -0.318  10.699  22.345  0.00  0.00    +0.000 A 
ATOM      6  C   UNL     1       0.184   9.423  22.585  0.00  0.00    +0.000 A 
ATOM      7  C   UNL     1       0.570   8.632  21.513  0.00  0.00    +0.000 A 
ATOM      8  C   UNL     1       0.479   9.136  20.213  0.00  0.00    +0.000 A 
ATOM      9  C   UNL     1       0.054  10.457  19.983  0.00  0.00    +0.000 A 
ATOM     10  C   UNL     1      -0.334  11.259  21.061  0.00  0.00    +0.000 A 
ATOM     11  C   UNL     1      -0.863  12.656  20.903  0.00  0.00    +0.000 A 
ATOM     12  O   UNL     1      -0.870  13.240  19.827  0.00  0.00    +0.000 OA
ATOM     13  C   UNL     1      -3.085  12.486  23.467  0.00  0.00    +0.000 C 
ATOM     14  O   UNL     1      -3.670  11.676  24.153  0.00  0.00    +0.000 OA
ATOM     15  N   UNL     1      -3.692  13.437  22.591  0.00  0.00    +0.000 N 
ENDROOT
BRANCH   1  20
ATOM     16  C   UNL     1      -0.750  17.453  26.760  0.00  0.00    +0.000 C 
ATOM     17  C   UNL     1      -1.271  16.754  25.536  0.00  0.00    +0.000 A 
ATOM     18  C   UNL     1      -0.423  16.479  24.458  0.00  0.00    +0.000 A 
ATOM     19  C   UNL     1      -0.882  15.772  23.339  0.00  0.00    +0.000 A 
ATOM     20  C   UNL     1      -2.203  15.311  23.264  0.00  0.00    +0.000 A 
ATOM     21  C   UNL     1      -3.075  15.677  24.316  0.00  0.00    +0.000 A 
ATOM     22  C   UNL     1      -2.612  16.377  25.441  0.00  0.00    +0.000 A 
ENDBRANCH   1  20
BRANCH  15  23
ATOM     23  C   UNL     1      -4.603  12.825  21.583  0.00  0.00    +0.000 C 
ATOM     24  C   UNL     1      -4.642  13.528  20.213  0.00  0.00    +0.000 C 
ATOM     25  C   UNL     1      -5.548  14.734  20.376  0.00  0.00    +0.000 C 
ATOM     26  S   UNL     1      -6.928  14.109  21.306  0.00  0.00    +0.000 S 
ATOM     27  O   UNL     1      -7.265  15.066  22.338  0.00  0.00    +0.000 OA
ATOM     28  O   UNL     1      -7.912  13.608  20.367  0.00  0.00    +0.000 OA
ATOM     29  C   UNL     1      -6.078  12.714  22.025  0.00  0.00    +0.000 C 
ENDBRANCH  15  23
TORSDOF 2
ENDMDL
MODEL 3
REMARK VINA RESULT:      -6.6      2.750      6.413
REMARK  Name = 
REMARK  3 active torsions:
REMARK  status: ('A' for Active; 'I' for Inactive)
REMARK    1  A    between atoms: C_1  and  C_2
REMARK    2  A    between atoms: C_5  and  C_6
REMARK    3  A    between atoms: N_20  and  C_21
REMARK                            x       y       z     vdW  Elec       q    Type
REMARK                         _______ _______ _______ _____ _____    ______ ____
ROOT
ATOM      1  C   UNL     1      -3.202  13.495  20.077  0.00  0.00    +0.000 C 
ATOM      2  C   UNL     1      -4.515  13.457  20.775  0.00  0.00    +0.000 A 
ATOM      3  C   UNL     1      -4.509  12.490  21.694  0.00  0.00    +0.000 A 
ATOM      4  O   UNL     1      -5.483  12.168  22.581  0.00  0.00    +0.000 OA
ATOM      5  C   UNL     1      -6.362  13.176  22.877  0.00  0.00    +0.000 A 
ATOM      6  C   UNL     1      -7.179  12.938  23.978  0.00  0.00    +0.000 A 
ATOM      7  C   UNL     1      -7.917  13.984  24.515  0.00  0.00    +0.000 A 
ATOM      8  C   UNL     1      -7.854  15.248  23.925  0.00  0.00    +0.000 A 
ATOM      9  C   UNL     1      -7.095  15.461  22.760  0.00  0.00    +0.000 A 
ATOM     10  C   UNL     1      -6.351  14.409  22.214  0.00  0.00    +0.000 A 
ATOM     11  C   UNL     1      -5.463  14.563  21.013  0.00  0.00    +0.000 A 
ATOM     12  O   UNL     1      -5.426  15.589  20.347  0.00  0.00    +0.000 OA
ATOM     13  C   UNL     1      -3.071  12.390  22.062  0.00  0.00    +0.000 C 
ATOM     14  O   UNL     1      -2.664  11.854  23.070  0.00  0.00    +0.000 OA
ATOM     15  N   UNL     1      -2.333  13.290  21.235  0.00  0.00    +0.000 N 
ENDROOT
BRANCH   1  20
ATOM     16  C   UNL     1      -2.540   9.552  15.760  0.00  0.00    +0.000 C 
ATOM     17  C   UNL     1      -2.750  10.458  16.940  0.00  0.00    +0.000 A 
ATOM     18  C   UNL     1      -1.666  10.871  17.722  0.00  0.00    +0.000 A 
ATOM     19  C   UNL     1      -1.841  11.765  18.786  0.00  0.00    +0.000 A 
ATOM     20  C   UNL     1      -3.106  12.281  19.098  0.00  0.00    +0.000 A 
ATOM     21  C   UNL     1      -4.206  11.784  18.362  0.00  0.00    +0.000 A 
ATOM     22  C   UNL     1      -4.029  10.895  17.290  0.00  0.00    +0.000 A 
ENDBRANCH   1  20
BRANCH  15  23
ATOM     23  C   UNL     1      -1.781  14.463  21.970  0.00  0.00    +0.000 C 
ATOM     24  C   UNL     1      -1.375  15.663  21.094  0.00  0.00    +0.000 C 
ATOM     25  C   UNL     1      -0.017  15.325  20.509  0.00  0.00    +0.000 C 
ATOM     26  S   UNL     1       0.881  14.641  21.882  0.00  0.00    +0.000 S 
ATOM     27  O   UNL     1       1.593  13.464  21.432  0.00  0.00    +0.000 OA
ATOM     28  O   UNL     1       1.547  15.729  22.570  0.00  0.00    +0.000 OA
ATOM     29  C   UNL     1      -0.543  14.159  22.842  0.00  0.00    +0.000 C 
ENDBRANCH  15  23
TORSDOF 2
ENDMDL
MODEL 4
REMARK VINA RESULT:      -6.6      3.473      5.103
REMARK  Name = 
REMARK  3 active torsions:
REMARK  status: ('A' for Active; 'I' for Inactive)
REMARK    1  A    between atoms: C_1  and  C_2
REMARK    2  A    between atoms: C_5  and  C_6
REMARK    3  A    between atoms: N_20  and  C_21
REMARK                            x       y       z     vdW  Elec       q    Type
REMARK                         _______ _______ _______ _____ _____    ______ ____
ROOT
ATOM      1  C   UNL     1      -0.378  10.519  19.852  0.00  0.00    +0.000 C 
ATOM      2  C   UNL     1       0.019  11.566  20.831  0.00  0.00    +0.000 A 
ATOM      3  C   UNL     1       0.946  12.359  20.292  0.00  0.00    +0.000 A 
ATOM      4  O   UNL     1       1.523  13.463  20.828  0.00  0.00    +0.000 OA
ATOM      5  C   UNL     1       0.797  14.086  21.807  0.00  0.00    +0.000 A 
ATOM      6  C   UNL     1       1.249  15.355  22.157  0.00  0.00    +0.000 A 
ATOM      7  C   UNL     1       0.447  16.170  22.943  0.00  0.00    +0.000 A 
ATOM      8  C   UNL     1      -0.785  15.695  23.398  0.00  0.00    +0.000 A 
ATOM      9  C   UNL     1      -1.198  14.380  23.115  0.00  0.00    +0.000 A 
ATOM     10  C   UNL     1      -0.391  13.555  22.323  0.00  0.00    +0.000 A 
ATOM     11  C   UNL     1      -0.783  12.163  21.917  0.00  0.00    +0.000 A 
ATOM     12  O   UNL     1      -1.778  11.603  22.357  0.00  0.00    +0.000 OA
ATOM     13  C   UNL     1       0.645  12.279  18.836  0.00  0.00    +0.000 C 
ATOM     14  O   UNL     1       1.047  13.075  18.016  0.00  0.00    +0.000 OA
ATOM     15  N   UNL     1      -0.423  11.350  18.650  0.00  0.00    +0.000 N 
ENDROOT
BRANCH   1  20
ATOM     16  C   UNL     1       3.269   5.973  19.047  0.00  0.00    +0.000 C 
ATOM     17  C   UNL     1       2.441   7.200  19.307  0.00  0.00    +0.000 A 
ATOM     18  C   UNL     1       2.165   8.103  18.276  0.00  0.00    +0.000 A 
ATOM     19  C   UNL     1       1.342   9.216  18.491  0.00  0.00    +0.000 A 
ATOM     20  C   UNL     1       0.763   9.458  19.744  0.00  0.00    +0.000 A 
ATOM     21  C   UNL     1       1.126   8.592  20.801  0.00  0.00    +0.000 A 
ATOM     22  C   UNL     1       1.942   7.471  20.583  0.00  0.00    +0.000 A 
ENDBRANCH   1  20
BRANCH  15  23
ATOM     23  C   UNL     1      -1.703  11.985  18.230  0.00  0.00    +0.000 C 
ATOM     24  C   UNL     1      -2.973  11.418  18.890  0.00  0.00    +0.000 C 
ATOM     25  C   UNL     1      -3.305  10.136  18.148  0.00  0.00    +0.000 C 
ATOM     26  S   UNL     1      -3.080  10.563  16.437  0.00  0.00    +0.000 S 
ATOM     27  O   UNL     1      -2.367   9.488  15.780  0.00  0.00    +0.000 OA
ATOM     28  O   UNL     1      -4.338  11.076  15.934  0.00  0.00    +0.000 OA
ATOM     29  C   UNL     1      -1.981  11.942  16.711  0.00  0.00    +0.000 C 
ENDBRANCH  15  23
TORSDOF 2
ENDMDL
MODEL 5
REMARK VINA RESULT:      -6.4      3.018      6.087
REMARK  Name = 
REMARK  3 active torsions:
REMARK  status: ('A' for Active; 'I' for Inactive)
REMARK    1  A    between atoms: C_1  and  C_2
REMARK    2  A    between atoms: C_5  and  C_6
REMARK    3  A    between atoms: N_20  and  C_21
REMARK                            x       y       z     vdW  Elec       q    Type
REMARK                         _______ _______ _______ _____ _____    ______ ____
ROOT
ATOM      1  C   UNL     1      -0.839  12.866  19.608  0.00  0.00    +0.000 C 
ATOM      2  C   UNL     1      -1.859  12.436  20.603  0.00  0.00    +0.000 A 
ATOM      3  C   UNL     1      -1.306  12.370  21.815  0.00  0.00    +0.000 A 
ATOM      4  O   UNL     1      -1.904  12.080  22.997  0.00  0.00    +0.000 OA
ATOM      5  C   UNL     1      -3.254  12.304  23.040  0.00  0.00    +0.000 A 
ATOM      6  C   UNL     1      -3.815  12.272  24.314  0.00  0.00    +0.000 A 
ATOM      7  C   UNL     1      -5.110  12.735  24.499  0.00  0.00    +0.000 A 
ATOM      8  C   UNL     1      -5.842  13.194  23.402  0.00  0.00    +0.000 A 
ATOM      9  C   UNL     1      -5.303  13.141  22.103  0.00  0.00    +0.000 A 
ATOM     10  C   UNL     1      -3.998  12.674  21.913  0.00  0.00    +0.000 A 
ATOM     11  C   UNL     1      -3.320  12.644  20.574  0.00  0.00    +0.000 A 
ATOM     12  O   UNL     1      -3.905  12.906  19.531  0.00  0.00    +0.000 OA
ATOM     13  C   UNL     1      -0.212  13.376  21.735  0.00  0.00    +0.000 C 
ATOM     14  O   UNL     1       0.343  13.854  22.702  0.00  0.00    +0.000 OA
ATOM     15  N   UNL     1      -0.178  13.897  20.407  0.00  0.00    +0.000 N 
ENDROOT
BRANCH   1  20
ATOM     16  C   UNL     1       2.544   8.466  17.658  0.00  0.00    +0.000 C 
ATOM     17  C   UNL     1       1.732   9.567  18.277  0.00  0.00    +0.000 A 
ATOM     18  C   UNL     1       2.126  10.903  18.146  0.00  0.00    +0.000 A 
ATOM     19  C   UNL     1       1.344  11.942  18.665  0.00  0.00    +0.000 A 
ATOM     20  C   UNL     1       0.137  11.680  19.327  0.00  0.00    +0.000 A 
ATOM     21  C   UNL     1      -0.203  10.323  19.537  0.00  0.00    +0.000 A 
ATOM     22  C   UNL     1       0.576   9.283  19.008  0.00  0.00    +0.000 A 
ENDBRANCH   1  20
BRANCH  15  23
ATOM     23  C   UNL     1      -0.623  15.316  20.309  0.00  0.00    +0.000 C 
ATOM     24  C   UNL     1      -0.617  15.917  18.891  0.00  0.00    +0.000 C 
ATOM     25  C   UNL     1       0.822  16.293  18.591  0.00  0.00    +0.000 C 
ATOM     26  S   UNL     1       1.382  17.066  20.091  0.00  0.00    +0.000 S 
ATOM     27  O   UNL     1       2.707  16.573  20.402  0.00  0.00    +0.000 OA
ATOM     28  O   UNL     1       1.086  18.482  20.002  0.00  0.00    +0.000 OA
ATOM     29  C   UNL     1       0.183  16.309  21.174  0.00  0.00    +0.000 C 
ENDBRANCH  15  23
TORSDOF 2
ENDMDL
MODEL 6
REMARK VINA RESULT:      -6.4      2.882      6.051
REMARK  Name = 
REMARK  3 active torsions:
REMARK  status: ('A' for Active; 'I' for Inactive)
REMARK    1  A    between atoms: C_1  and  C_2
REMARK    2  A    between atoms: C_5  and  C_6
REMARK    3  A    between atoms: N_20  and  C_21
REMARK                            x       y       z     vdW  Elec       q    Type
REMARK                         _______ _______ _______ _____ _____    ______ ____
ROOT
ATOM      1  C   UNL     1      -0.927  13.240  19.293  0.00  0.00    +0.000 C 
ATOM      2  C   UNL     1      -1.853  12.698  20.323  0.00  0.00    +0.000 A 
ATOM      3  C   UNL     1      -1.169  12.389  21.426  0.00  0.00    +0.000 A 
ATOM      4  O   UNL     1      -1.644  11.928  22.609  0.00  0.00    +0.000 OA
ATOM      5  C   UNL     1      -2.959  12.215  22.863  0.00  0.00    +0.000 A 
ATOM      6  C   UNL     1      -3.367  11.990  24.175  0.00  0.00    +0.000 A 
ATOM      7  C   UNL     1      -4.592  12.484  24.599  0.00  0.00    +0.000 A 
ATOM      8  C   UNL     1      -5.411  13.169  23.699  0.00  0.00    +0.000 A 
ATOM      9  C   UNL     1      -5.033  13.316  22.352  0.00  0.00    +0.000 A 
ATOM     10  C   UNL     1      -3.799  12.819  21.919  0.00  0.00    +0.000 A 
ATOM     11  C   UNL     1      -3.287  12.988  20.518  0.00  0.00    +0.000 A 
ATOM     12  O   UNL     1      -3.969  13.462  19.619  0.00  0.00    +0.000 OA
ATOM     13  C   UNL     1      -0.017  13.331  21.377  0.00  0.00    +0.000 C 
ATOM     14  O   UNL     1       0.682  13.600  22.330  0.00  0.00    +0.000 OA
ATOM     15  N   UNL     1      -0.099  14.076  20.161  0.00  0.00    +0.000 N 
ENDROOT
BRANCH   1  20
ATOM     16  C   UNL     1       2.213   8.463  17.900  0.00  0.00    +0.000 C 
ATOM     17  C   UNL     1       1.425   9.722  18.128  0.00  0.00    +0.000 A 
ATOM     18  C   UNL     1       0.027   9.689  18.168  0.00  0.00    +0.000 A 
ATOM     19  C   UNL     1      -0.716  10.844  18.443  0.00  0.00    +0.000 A 
ATOM     20  C   UNL     1      -0.084  12.069  18.693  0.00  0.00    +0.000 A 
ATOM     21  C   UNL     1       1.322  12.111  18.556  0.00  0.00    +0.000 A 
ATOM     22  C   UNL     1       2.067  10.951  18.290  0.00  0.00    +0.000 A 
ENDBRANCH   1  20
BRANCH  15  23
ATOM     23  C   UNL     1      -0.443  15.512  20.362  0.00  0.00    +0.000 C 
ATOM     24  C   UNL     1      -0.936  16.257  19.107  0.00  0.00    +0.000 C 
ATOM     25  C   UNL     1       0.302  16.611  18.305  0.00  0.00    +0.000 C 
ATOM     26  S   UNL     1       1.448  17.203  19.528  0.00  0.00    +0.000 S 
ATOM     27  O   UNL     1       2.751  16.634  19.258  0.00  0.00    +0.000 OA
ATOM     28  O   UNL     1       1.245  18.631  19.679  0.00  0.00    +0.000 OA
ATOM     29  C   UNL     1       0.703  16.380  20.925  0.00  0.00    +0.000 C 
ENDBRANCH  15  23
TORSDOF 2
ENDMDL
MODEL 7
REMARK VINA RESULT:      -6.3      2.860      6.485
REMARK  Name = 
REMARK  3 active torsions:
REMARK  status: ('A' for Active; 'I' for Inactive)
REMARK    1  A    between atoms: C_1  and  C_2
REMARK    2  A    between atoms: C_5  and  C_6
REMARK    3  A    between atoms: N_20  and  C_21
REMARK                            x       y       z     vdW  Elec       q    Type
REMARK                         _______ _______ _______ _____ _____    ______ ____
ROOT
ATOM      1  C   UNL     1      -2.214  13.585  20.276  0.00  0.00    +0.000 C 
ATOM      2  C   UNL     1      -3.472  13.166  20.953  0.00  0.00    +0.000 A 
ATOM      3  C   UNL     1      -3.196  12.715  22.177  0.00  0.00    +0.000 A 
ATOM      4  O   UNL     1      -4.061  12.299  23.135  0.00  0.00    +0.000 OA
ATOM      5  C   UNL     1      -5.336  12.787  23.024  0.00  0.00    +0.000 A 
ATOM      6  C   UNL     1      -6.141  12.589  24.142  0.00  0.00    +0.000 A 
ATOM      7  C   UNL     1      -7.351  13.261  24.236  0.00  0.00    +0.000 A 
ATOM      8  C   UNL     1      -7.759  14.099  23.196  0.00  0.00    +0.000 A 
ATOM      9  C   UNL     1      -6.983  14.227  22.029  0.00  0.00    +0.000 A 
ATOM     10  C   UNL     1      -5.762  13.550  21.930  0.00  0.00    +0.000 A 
ATOM     11  C   UNL     1      -4.841  13.680  20.752  0.00  0.00    +0.000 A 
ATOM     12  O   UNL     1      -5.150  14.287  19.735  0.00  0.00    +0.000 OA
ATOM     13  C   UNL     1      -1.956  13.458  22.534  0.00  0.00    +0.000 C 
ATOM     14  O   UNL     1      -1.538  13.578  23.665  0.00  0.00    +0.000 OA
ATOM     15  N   UNL     1      -1.567  14.246  21.408  0.00  0.00    +0.000 N 
ENDROOT
BRANCH   1  20
ATOM     16  C   UNL     1       1.184   9.347  18.016  0.00  0.00    +0.000 C 
ATOM     17  C   UNL     1       0.272  10.338  18.682  0.00  0.00    +0.000 A 
ATOM     18  C   UNL     1       0.777  11.265  19.600  0.00  0.00    +0.000 A 
ATOM     19  C   UNL     1      -0.052  12.234  20.179  0.00  0.00    +0.000 A 
ATOM     20  C   UNL     1      -1.413  12.313  19.852  0.00  0.00    +0.000 A 
ATOM     21  C   UNL     1      -1.931  11.313  18.997  0.00  0.00    +0.000 A 
ATOM     22  C   UNL     1      -1.098  10.348  18.410  0.00  0.00    +0.000 A 
ENDBRANCH   1  20
BRANCH  15  23
ATOM     23  C   UNL     1      -1.741  15.711  21.615  0.00  0.00    +0.000 C 
ATOM     24  C   UNL     1      -2.128  16.517  20.360  0.00  0.00    +0.000 C 
ATOM     25  C   UNL     1      -0.847  16.726  19.574  0.00  0.00    +0.000 C 
ATOM     26  S   UNL     1       0.346  17.172  20.814  0.00  0.00    +0.000 S 
ATOM     27  O   UNL     1       1.576  16.454  20.555  0.00  0.00    +0.000 OA
ATOM     28  O   UNL     1       0.312  18.612  20.973  0.00  0.00    +0.000 OA
ATOM     29  C   UNL     1      -0.507  16.435  22.197  0.00  0.00    +0.000 C 
ENDBRANCH  15  23
TORSDOF 2
ENDMDL
MODEL 8
REMARK VINA RESULT:      -6.2      7.557     10.324
REMARK  Name = 
REMARK  3 active torsions:
REMARK  status: ('A' for Active; 'I' for Inactive)
REMARK    1  A    between atoms: C_1  and  C_2
REMARK    2  A    between atoms: C_5  and  C_6
REMARK    3  A    between atoms: N_20  and  C_21
REMARK                            x       y       z     vdW  Elec       q    Type
REMARK                         _______ _______ _______ _____ _____    ______ ____
ROOT
ATOM      1  C   UNL     1       7.492  13.769  21.898  0.00  0.00    +0.000 C 
ATOM      2  C   UNL     1       7.525  13.277  23.301  0.00  0.00    +0.000 A 
ATOM      3  C   UNL     1       8.387  14.005  24.014  0.00  0.00    +0.000 A 
ATOM      4  O   UNL     1       8.664  13.921  25.339  0.00  0.00    +0.000 OA
ATOM      5  C   UNL     1       7.679  13.362  26.108  0.00  0.00    +0.000 A 
ATOM      6  C   UNL     1       7.841  13.526  27.481  0.00  0.00    +0.000 A 
ATOM      7  C   UNL     1       6.785  13.228  28.330  0.00  0.00    +0.000 A 
ATOM      8  C   UNL     1       5.589  12.737  27.800  0.00  0.00    +0.000 A 
ATOM      9  C   UNL     1       5.462  12.489  26.421  0.00  0.00    +0.000 A 
ATOM     10  C   UNL     1       6.524  12.788  25.562  0.00  0.00    +0.000 A 
ATOM     11  C   UNL     1       6.453  12.617  24.072  0.00  0.00    +0.000 A 
ATOM     12  O   UNL     1       5.503  12.083  23.513  0.00  0.00    +0.000 OA
ATOM     13  C   UNL     1       8.369  15.319  23.315  0.00  0.00    +0.000 C 
ATOM     14  O   UNL     1       8.772  16.352  23.802  0.00  0.00    +0.000 OA
ATOM     15  N   UNL     1       7.525  15.205  22.169  0.00  0.00    +0.000 N 
ENDROOT
BRANCH   1  20
ATOM     16  C   UNL     1      11.834  11.826  18.435  0.00  0.00    +0.000 C 
ATOM     17  C   UNL     1      10.820  12.352  19.410  0.00  0.00    +0.000 A 
ATOM     18  C   UNL     1      10.286  13.636  19.259  0.00  0.00    +0.000 A 
ATOM     19  C   UNL     1       9.293  14.114  20.124  0.00  0.00    +0.000 A 
ATOM     20  C   UNL     1       8.797  13.319  21.166  0.00  0.00    +0.000 A 
ATOM     21  C   UNL     1       9.410  12.061  21.367  0.00  0.00    +0.000 A 
ATOM     22  C   UNL     1      10.398  11.579  20.494  0.00  0.00    +0.000 A 
ENDBRANCH   1  20
BRANCH  15  23
ATOM     23  C   UNL     1       6.252  15.971  22.285  0.00  0.00    +0.000 C 
ATOM     24  C   UNL     1       5.065  15.411  21.480  0.00  0.00    +0.000 C 
ATOM     25  C   UNL     1       5.267  15.864  20.047  0.00  0.00    +0.000 C 
ATOM     26  S   UNL     1       5.755  17.566  20.203  0.00  0.00    +0.000 S 
ATOM     27  O   UNL     1       6.860  17.818  19.302  0.00  0.00    +0.000 OA
ATOM     28  O   UNL     1       4.554  18.379  20.197  0.00  0.00    +0.000 OA
ATOM     29  C   UNL     1       6.351  17.458  21.881  0.00  0.00    +0.000 C 
ENDBRANCH  15  23
TORSDOF 2
ENDMDL
MODEL 9
REMARK VINA RESULT:      -6.1      3.084      6.992
REMARK  Name = 
REMARK  3 active torsions:
REMARK  status: ('A' for Active; 'I' for Inactive)
REMARK    1  A    between atoms: C_1  and  C_2
REMARK    2  A    between atoms: C_5  and  C_6
REMARK    3  A    between atoms: N_20  and  C_21
REMARK                            x       y       z     vdW  Elec       q    Type
REMARK                         _______ _______ _______ _____ _____    ______ ____
ROOT
ATOM      1  C   UNL     1       0.936  14.438  21.540  0.00  0.00    +0.000 C 
ATOM      2  C   UNL     1       0.058  13.401  20.933  0.00  0.00    +0.000 A 
ATOM      3  C   UNL     1      -0.846  13.983  20.143  0.00  0.00    +0.000 A 
ATOM      4  O   UNL     1      -1.785  13.392  19.363  0.00  0.00    +0.000 OA
ATOM      5  C   UNL     1      -1.514  12.100  18.998  0.00  0.00    +0.000 A 
ATOM      6  C   UNL     1      -2.324  11.593  17.986  0.00  0.00    +0.000 A 
ATOM      7  C   UNL     1      -1.974  10.401  17.368  0.00  0.00    +0.000 A 
ATOM      8  C   UNL     1      -0.835   9.712  17.791  0.00  0.00    +0.000 A 
ATOM      9  C   UNL     1      -0.069  10.183  18.873  0.00  0.00    +0.000 A 
ATOM     10  C   UNL     1      -0.419  11.385  19.499  0.00  0.00    +0.000 A 
ATOM     11  C   UNL     1       0.377  11.995  20.616  0.00  0.00    +0.000 A 
ATOM     12  O   UNL     1       1.319  11.420  21.146  0.00  0.00    +0.000 OA
ATOM     13  C   UNL     1      -0.153  15.225  19.703  0.00  0.00    +0.000 C 
ATOM     14  O   UNL     1      -0.492  15.888  18.747  0.00  0.00    +0.000 OA
ATOM     15  N   UNL     1       1.109  15.292  20.366  0.00  0.00    +0.000 N 
ENDROOT
BRANCH   1  20
ATOM     16  C   UNL     1      -1.322  17.068  26.295  0.00  0.00    +0.000 C 
ATOM     17  C   UNL     1      -0.856  16.434  25.015  0.00  0.00    +0.000 A 
ATOM     18  C   UNL     1       0.080  17.080  24.199  0.00  0.00    +0.000 A 
ATOM     19  C   UNL     1       0.568  16.471  23.037  0.00  0.00    +0.000 A 
ATOM     20  C   UNL     1       0.142  15.192  22.655  0.00  0.00    +0.000 A 
ATOM     21  C   UNL     1      -0.872  14.589  23.434  0.00  0.00    +0.000 A 
ATOM     22  C   UNL     1      -1.354  15.196  24.604  0.00  0.00    +0.000 A 
ENDBRANCH   1  20
BRANCH  15  23
ATOM     23  C   UNL     1       2.273  15.085  19.459  0.00  0.00    +0.000 C 
ATOM     24  C   UNL     1       3.533  14.496  20.121  0.00  0.00    +0.000 C 
ATOM     25  C   UNL     1       4.223  15.648  20.828  0.00  0.00    +0.000 C 
ATOM     26  S   UNL     1       4.146  16.978  19.652  0.00  0.00    +0.000 S 
ATOM     27  O   UNL     1       3.770  18.191  20.347  0.00  0.00    +0.000 OA
ATOM     28  O   UNL     1       5.325  16.904  18.812  0.00  0.00    +0.000 OA
ATOM     29  C   UNL     1       2.756  16.354  18.724  0.00  0.00    +0.000 C 
ENDBRANCH  15  23
TORSDOF 2
ENDMDL
