MODEL 1
REMARK VINA RESULT:      -8.9      0.000      0.000
REMARK  Name = 
REMARK  3 active torsions:
REMARK  status: ('A' for Active; 'I' for Inactive)
REMARK    1  A    between atoms: C_4  and  C_5
REMARK    2  A    between atoms: C_5  and  C_6
REMARK    3  A    between atoms: C_17  and  C_18
REMARK                            x       y       z     vdW  Elec       q    Type
REMARK                         _______ _______ _______ _____ _____    ______ ____
ROOT
ATOM      1  O   UNL     1       2.079   4.475  21.518  0.00  0.00    +0.000 OA
ATOM      2  C   UNL     1       2.414   4.853  20.406  0.00  0.00    +0.000 A 
ATOM      3  N   UNL     1       3.096   4.043  19.530  0.00  0.00    +0.000 N 
ATOM      4  C   UNL     1       3.421   4.424  18.253  0.00  0.00    +0.000 A 
ATOM      5  N   UNL     1       3.175   5.605  17.779  0.00  0.00    +0.000 NA
ATOM      6  C   UNL     1       2.533   6.527  18.616  0.00  0.00    +0.000 A 
ATOM      7  C   UNL     1       2.296   7.811  18.139  0.00  0.00    +0.000 A 
ATOM      8  C   UNL     1       1.653   8.759  18.943  0.00  0.00    +0.000 A 
ATOM      9  C   UNL     1       1.229   8.451  20.249  0.00  0.00    +0.000 A 
ATOM     10  C   UNL     1       1.471   7.147  20.717  0.00  0.00    +0.000 A 
ATOM     11  C   UNL     1       2.119   6.209  19.909  0.00  0.00    +0.000 A 
ATOM     12  H   UNL     1       3.292   3.114  19.864  0.00  0.00    +0.000 HD
ENDROOT
BRANCH   9  13
ATOM     13  C   UNL     1       0.592   9.466  21.117  0.00  0.00    +0.000 A 
ATOM     14  C   UNL     1       0.506  10.817  20.729  0.00  0.00    +0.000 A 
ATOM     15  C   UNL     1      -0.151  11.761  21.522  0.00  0.00    +0.000 A 
ATOM     16  C   UNL     1      -0.726  11.377  22.728  0.00  0.00    +0.000 A 
ATOM     17  C   UNL     1      -0.636  10.055  23.149  0.00  0.00    +0.000 A 
ATOM     18  C   UNL     1       0.012   9.112  22.350  0.00  0.00    +0.000 A 
ENDBRANCH   9  13
BRANCH   4  19
ATOM     19  C   UNL     1       4.070   3.372  17.378  0.00  0.00    +0.000 C 
BRANCH  19  20
ATOM     20  C   UNL     1       5.270   3.922  16.641  0.00  0.00    +0.000 A 
ATOM     21  C   UNL     1       6.314   4.553  17.340  0.00  0.00    +0.000 A 
ATOM     22  C   UNL     1       7.394   5.117  16.656  0.00  0.00    +0.000 A 
ATOM     23  C   UNL     1       7.454   5.040  15.267  0.00  0.00    +0.000 A 
ATOM     24  C   UNL     1       6.442   4.385  14.577  0.00  0.00    +0.000 A 
ATOM     25  F   UNL     1       6.504   4.299  13.242  0.00  0.00    +0.000 F 
ATOM     26  C   UNL     1       5.356   3.827  15.246  0.00  0.00    +0.000 A 
ENDBRANCH  19  20
ENDBRANCH   4  19
TORSDOF 3
ENDMDL
MODEL 2
REMARK VINA RESULT:      -8.7      0.917      1.307
REMARK  Name = 
REMARK  3 active torsions:
REMARK  status: ('A' for Active; 'I' for Inactive)
REMARK    1  A    between atoms: C_4  and  C_5
REMARK    2  A    between atoms: C_5  and  C_6
REMARK    3  A    between atoms: C_17  and  C_18
REMARK                            x       y       z     vdW  Elec       q    Type
REMARK                         _______ _______ _______ _____ _____    ______ ____
ROOT
ATOM      1  O   UNL     1       2.108   4.568  21.565  0.00  0.00    +0.000 OA
ATOM      2  C   UNL     1       2.434   4.952  20.451  0.00  0.00    +0.000 A 
ATOM      3  N   UNL     1       3.129   4.154  19.575  0.00  0.00    +0.000 N 
ATOM      4  C   UNL     1       3.445   4.539  18.297  0.00  0.00    +0.000 A 
ATOM      5  N   UNL     1       3.175   5.714  17.822  0.00  0.00    +0.000 NA
ATOM      6  C   UNL     1       2.516   6.625  18.659  0.00  0.00    +0.000 A 
ATOM      7  C   UNL     1       2.254   7.903  18.180  0.00  0.00    +0.000 A 
ATOM      8  C   UNL     1       1.594   8.840  18.985  0.00  0.00    +0.000 A 
ATOM      9  C   UNL     1       1.179   8.526  20.293  0.00  0.00    +0.000 A 
ATOM     10  C   UNL     1       1.447   7.228  20.761  0.00  0.00    +0.000 A 
ATOM     11  C   UNL     1       2.112   6.300  19.953  0.00  0.00    +0.000 A 
ATOM     12  H   UNL     1       3.344   3.229  19.910  0.00  0.00    +0.000 HD
ENDROOT
BRANCH   9  13
ATOM     13  C   UNL     1       0.525   9.529  21.160  0.00  0.00    +0.000 A 
ATOM     14  C   UNL     1       0.484  10.892  20.808  0.00  0.00    +0.000 A 
ATOM     15  C   UNL     1      -0.189  11.828  21.598  0.00  0.00    +0.000 A 
ATOM     16  C   UNL     1      -0.825  11.422  22.766  0.00  0.00    +0.000 A 
ATOM     17  C   UNL     1      -0.781  10.087  23.152  0.00  0.00    +0.000 A 
ATOM     18  C   UNL     1      -0.117   9.153  22.355  0.00  0.00    +0.000 A 
ENDBRANCH   9  13
BRANCH   4  19
ATOM     19  C   UNL     1       4.112   3.498  17.422  0.00  0.00    +0.000 C 
BRANCH  19  20
ATOM     20  C   UNL     1       5.194   4.107  16.558  0.00  0.00    +0.000 A 
ATOM     21  C   UNL     1       5.402   3.653  15.244  0.00  0.00    +0.000 A 
ATOM     22  C   UNL     1       6.440   4.170  14.465  0.00  0.00    +0.000 A 
ATOM     23  C   UNL     1       7.271   5.160  14.983  0.00  0.00    +0.000 A 
ATOM     24  C   UNL     1       7.045   5.635  16.269  0.00  0.00    +0.000 A 
ATOM     25  F   UNL     1       7.834   6.596  16.765  0.00  0.00    +0.000 F 
ATOM     26  C   UNL     1       6.018   5.122  17.058  0.00  0.00    +0.000 A 
ENDBRANCH  19  20
ENDBRANCH   4  19
TORSDOF 3
ENDMDL
MODEL 3
REMARK VINA RESULT:      -8.6      4.952      7.193
REMARK  Name = 
REMARK  3 active torsions:
REMARK  status: ('A' for Active; 'I' for Inactive)
REMARK    1  A    between atoms: C_4  and  C_5
REMARK    2  A    between atoms: C_5  and  C_6
REMARK    3  A    between atoms: C_17  and  C_18
REMARK                            x       y       z     vdW  Elec       q    Type
REMARK                         _______ _______ _______ _____ _____    ______ ____
ROOT
ATOM      1  O   UNL     1       8.638   5.081  19.923  0.00  0.00    +0.000 OA
ATOM      2  C   UNL     1       7.842   5.360  19.039  0.00  0.00    +0.000 A 
ATOM      3  N   UNL     1       7.010   4.422  18.478  0.00  0.00    +0.000 N 
ATOM      4  C   UNL     1       6.063   4.726  17.535  0.00  0.00    +0.000 A 
ATOM      5  N   UNL     1       5.911   5.913  17.038  0.00  0.00    +0.000 NA
ATOM      6  C   UNL     1       6.752   6.933  17.504  0.00  0.00    +0.000 A 
ATOM      7  C   UNL     1       6.630   8.203  16.954  0.00  0.00    +0.000 A 
ATOM      8  C   UNL     1       7.449   9.249  17.397  0.00  0.00    +0.000 A 
ATOM      9  C   UNL     1       8.416   9.053  18.401  0.00  0.00    +0.000 A 
ATOM     10  C   UNL     1       8.525   7.764  18.951  0.00  0.00    +0.000 A 
ATOM     11  C   UNL     1       7.706   6.724  18.499  0.00  0.00    +0.000 A 
ATOM     12  H   UNL     1       7.096   3.491  18.851  0.00  0.00    +0.000 HD
ENDROOT
BRANCH   9  13
ATOM     13  C   UNL     1       9.314  10.145  18.835  0.00  0.00    +0.000 A 
ATOM     14  C   UNL     1       9.396  10.539  20.185  0.00  0.00    +0.000 A 
ATOM     15  C   UNL     1      10.291  11.527  20.602  0.00  0.00    +0.000 A 
ATOM     16  C   UNL     1      11.115  12.154  19.674  0.00  0.00    +0.000 A 
ATOM     17  C   UNL     1      11.041  11.803  18.331  0.00  0.00    +0.000 A 
ATOM     18  C   UNL     1      10.152  10.808  17.920  0.00  0.00    +0.000 A 
ENDBRANCH   9  13
BRANCH   4  19
ATOM     19  C   UNL     1       5.150   3.597  17.104  0.00  0.00    +0.000 C 
BRANCH  19  20
ATOM     20  C   UNL     1       3.896   3.541  17.947  0.00  0.00    +0.000 A 
ATOM     21  C   UNL     1       2.675   4.030  17.450  0.00  0.00    +0.000 A 
ATOM     22  C   UNL     1       1.529   4.036  18.249  0.00  0.00    +0.000 A 
ATOM     23  C   UNL     1       1.584   3.537  19.548  0.00  0.00    +0.000 A 
ATOM     24  C   UNL     1       2.781   3.020  20.028  0.00  0.00    +0.000 A 
ATOM     25  F   UNL     1       2.834   2.527  21.272  0.00  0.00    +0.000 F 
ATOM     26  C   UNL     1       3.932   3.016  19.244  0.00  0.00    +0.000 A 
ENDBRANCH  19  20
ENDBRANCH   4  19
TORSDOF 3
ENDMDL
MODEL 4
REMARK VINA RESULT:      -8.6      3.884      5.539
REMARK  Name = 
REMARK  3 active torsions:
REMARK  status: ('A' for Active; 'I' for Inactive)
REMARK    1  A    between atoms: C_4  and  C_5
REMARK    2  A    between atoms: C_5  and  C_6
REMARK    3  A    between atoms: C_17  and  C_18
REMARK                            x       y       z     vdW  Elec       q    Type
REMARK                         _______ _______ _______ _____ _____    ______ ____
ROOT
ATOM      1  O   UNL     1       0.419  10.430  18.203  0.00  0.00    +0.000 OA
ATOM      2  C   UNL     1       0.719   9.685  19.124  0.00  0.00    +0.000 A 
ATOM      3  N   UNL     1       1.525   8.586  18.945  0.00  0.00    +0.000 N 
ATOM      4  C   UNL     1       1.930   7.776  19.975  0.00  0.00    +0.000 A 
ATOM      5  N   UNL     1       1.536   7.933  21.199  0.00  0.00    +0.000 NA
ATOM      6  C   UNL     1       0.663   8.994  21.477  0.00  0.00    +0.000 A 
ATOM      7  C   UNL     1       0.199   9.154  22.777  0.00  0.00    +0.000 A 
ATOM      8  C   UNL     1      -0.670  10.204  23.095  0.00  0.00    +0.000 A 
ATOM      9  C   UNL     1      -1.102  11.124  22.121  0.00  0.00    +0.000 A 
ATOM     10  C   UNL     1      -0.621  10.952  20.812  0.00  0.00    +0.000 A 
ATOM     11  C   UNL     1       0.243   9.897  20.502  0.00  0.00    +0.000 A 
ATOM     12  H   UNL     1       1.858   8.443  18.006  0.00  0.00    +0.000 HD
ENDROOT
BRANCH   9  13
ATOM     13  C   UNL     1      -2.058  12.205  22.446  0.00  0.00    +0.000 A 
ATOM     14  C   UNL     1      -2.965  12.089  23.518  0.00  0.00    +0.000 A 
ATOM     15  C   UNL     1      -3.823  13.137  23.861  0.00  0.00    +0.000 A 
ATOM     16  C   UNL     1      -3.803  14.319  23.131  0.00  0.00    +0.000 A 
ATOM     17  C   UNL     1      -2.935  14.454  22.052  0.00  0.00    +0.000 A 
ATOM     18  C   UNL     1      -2.072  13.409  21.718  0.00  0.00    +0.000 A 
ENDBRANCH   9  13
BRANCH   4  19
ATOM     19  C   UNL     1       2.911   6.676  19.625  0.00  0.00    +0.000 C 
BRANCH  19  20
ATOM     20  C   UNL     1       2.237   5.323  19.575  0.00  0.00    +0.000 A 
ATOM     21  C   UNL     1       1.907   4.732  18.343  0.00  0.00    +0.000 A 
ATOM     22  C   UNL     1       1.229   3.511  18.295  0.00  0.00    +0.000 A 
ATOM     23  C   UNL     1       0.890   2.857  19.477  0.00  0.00    +0.000 A 
ATOM     24  C   UNL     1       1.248   3.422  20.695  0.00  0.00    +0.000 A 
ATOM     25  F   UNL     1       0.935   2.789  21.833  0.00  0.00    +0.000 F 
ATOM     26  C   UNL     1       1.916   4.643  20.756  0.00  0.00    +0.000 A 
ENDBRANCH  19  20
ENDBRANCH   4  19
TORSDOF 3
ENDMDL
MODEL 5
REMARK VINA RESULT:      -8.5      5.331      7.060
REMARK  Name = 
REMARK  3 active torsions:
REMARK  status: ('A' for Active; 'I' for Inactive)
REMARK    1  A    between atoms: C_4  and  C_5
REMARK    2  A    between atoms: C_5  and  C_6
REMARK    3  A    between atoms: C_17  and  C_18
REMARK                            x       y       z     vdW  Elec       q    Type
REMARK                         _______ _______ _______ _____ _____    ______ ____
ROOT
ATOM      1  O   UNL     1       4.930   7.247  15.583  0.00  0.00    +0.000 OA
ATOM      2  C   UNL     1       5.342   6.446  16.409  0.00  0.00    +0.000 A 
ATOM      3  N   UNL     1       4.809   5.186  16.538  0.00  0.00    +0.000 N 
ATOM      4  C   UNL     1       5.300   4.249  17.410  0.00  0.00    +0.000 A 
ATOM      5  N   UNL     1       6.267   4.487  18.239  0.00  0.00    +0.000 NA
ATOM      6  C   UNL     1       6.842   5.765  18.227  0.00  0.00    +0.000 A 
ATOM      7  C   UNL     1       7.854   6.052  19.136  0.00  0.00    +0.000 A 
ATOM      8  C   UNL     1       8.456   7.315  19.151  0.00  0.00    +0.000 A 
ATOM      9  C   UNL     1       8.062   8.330  18.259  0.00  0.00    +0.000 A 
ATOM     10  C   UNL     1       7.041   8.025  17.343  0.00  0.00    +0.000 A 
ATOM     11  C   UNL     1       6.441   6.762  17.338  0.00  0.00    +0.000 A 
ATOM     12  H   UNL     1       4.063   4.965  15.900  0.00  0.00    +0.000 HD
ENDROOT
BRANCH   9  13
ATOM     13  C   UNL     1       8.664   9.681  18.307  0.00  0.00    +0.000 A 
ATOM     14  C   UNL     1       8.167  10.737  17.518  0.00  0.00    +0.000 A 
ATOM     15  C   UNL     1       8.697  12.026  17.612  0.00  0.00    +0.000 A 
ATOM     16  C   UNL     1       9.745  12.285  18.487  0.00  0.00    +0.000 A 
ATOM     17  C   UNL     1      10.272  11.257  19.262  0.00  0.00    +0.000 A 
ATOM     18  C   UNL     1       9.734   9.972  19.173  0.00  0.00    +0.000 A 
ENDBRANCH   9  13
BRANCH   4  19
ATOM     19  C   UNL     1       4.674   2.871  17.346  0.00  0.00    +0.000 C 
BRANCH  19  20
ATOM     20  C   UNL     1       3.487   2.754  18.275  0.00  0.00    +0.000 A 
ATOM     21  C   UNL     1       2.178   2.703  17.764  0.00  0.00    +0.000 A 
ATOM     22  C   UNL     1       1.077   2.657  18.622  0.00  0.00    +0.000 A 
ATOM     23  C   UNL     1       1.270   2.643  20.001  0.00  0.00    +0.000 A 
ATOM     24  C   UNL     1       2.563   2.657  20.508  0.00  0.00    +0.000 A 
ATOM     25  F   UNL     1       2.752   2.631  21.834  0.00  0.00    +0.000 F 
ATOM     26  C   UNL     1       3.669   2.711  19.663  0.00  0.00    +0.000 A 
ENDBRANCH  19  20
ENDBRANCH   4  19
TORSDOF 3
ENDMDL
MODEL 6
REMARK VINA RESULT:      -8.5      3.827      5.333
REMARK  Name = 
REMARK  3 active torsions:
REMARK  status: ('A' for Active; 'I' for Inactive)
REMARK    1  A    between atoms: C_4  and  C_5
REMARK    2  A    between atoms: C_5  and  C_6
REMARK    3  A    between atoms: C_17  and  C_18
REMARK                            x       y       z     vdW  Elec       q    Type
REMARK                         _______ _______ _______ _____ _____    ______ ____
ROOT
ATOM      1  O   UNL     1       0.946  10.908  18.374  0.00  0.00    +0.000 OA
ATOM      2  C   UNL     1       1.114   9.956  19.122  0.00  0.00    +0.000 A 
ATOM      3  N   UNL     1       1.774   8.818  18.724  0.00  0.00    +0.000 N 
ATOM      4  C   UNL     1       2.034   7.767  19.566  0.00  0.00    +0.000 A 
ATOM      5  N   UNL     1       1.622   7.722  20.793  0.00  0.00    +0.000 NA
ATOM      6  C   UNL     1       0.887   8.812  21.280  0.00  0.00    +0.000 A 
ATOM      7  C   UNL     1       0.403   8.763  22.582  0.00  0.00    +0.000 A 
ATOM      8  C   UNL     1      -0.330   9.834  23.106  0.00  0.00    +0.000 A 
ATOM      9  C   UNL     1      -0.604  10.984  22.341  0.00  0.00    +0.000 A 
ATOM     10  C   UNL     1      -0.105  11.020  21.027  0.00  0.00    +0.000 A 
ATOM     11  C   UNL     1       0.623   9.944  20.511  0.00  0.00    +0.000 A 
ATOM     12  H   UNL     1       2.117   8.827  17.778  0.00  0.00    +0.000 HD
ENDROOT
BRANCH   9  13
ATOM     13  C   UNL     1      -1.420  12.095  22.877  0.00  0.00    +0.000 A 
ATOM     14  C   UNL     1      -0.950  13.423  22.874  0.00  0.00    +0.000 A 
ATOM     15  C   UNL     1      -1.748  14.478  23.322  0.00  0.00    +0.000 A 
ATOM     16  C   UNL     1      -3.030  14.227  23.797  0.00  0.00    +0.000 A 
ATOM     17  C   UNL     1      -3.513  12.924  23.834  0.00  0.00    +0.000 A 
ATOM     18  C   UNL     1      -2.717  11.873  23.376  0.00  0.00    +0.000 A 
ENDBRANCH   9  13
BRANCH   4  19
ATOM     19  C   UNL     1       2.873   6.639  19.002  0.00  0.00    +0.000 C 
BRANCH  19  20
ATOM     20  C   UNL     1       2.224   5.293  19.230  0.00  0.00    +0.000 A 
ATOM     21  C   UNL     1       1.736   4.539  18.148  0.00  0.00    +0.000 A 
ATOM     22  C   UNL     1       1.081   3.324  18.361  0.00  0.00    +0.000 A 
ATOM     23  C   UNL     1       0.921   2.838  19.656  0.00  0.00    +0.000 A 
ATOM     24  C   UNL     1       1.434   3.564  20.724  0.00  0.00    +0.000 A 
ATOM     25  F   UNL     1       1.293   3.092  21.970  0.00  0.00    +0.000 F 
ATOM     26  C   UNL     1       2.082   4.780  20.525  0.00  0.00    +0.000 A 
ENDBRANCH  19  20
ENDBRANCH   4  19
TORSDOF 3
ENDMDL
MODEL 7
REMARK VINA RESULT:      -8.4      2.605      3.523
REMARK  Name = 
REMARK  3 active torsions:
REMARK  status: ('A' for Active; 'I' for Inactive)
REMARK    1  A    between atoms: C_4  and  C_5
REMARK    2  A    between atoms: C_5  and  C_6
REMARK    3  A    between atoms: C_17  and  C_18
REMARK                            x       y       z     vdW  Elec       q    Type
REMARK                         _______ _______ _______ _____ _____    ______ ____
ROOT
ATOM      1  O   UNL     1       1.946  10.202  17.345  0.00  0.00    +0.000 OA
ATOM      2  C   UNL     1       2.036   9.208  18.050  0.00  0.00    +0.000 A 
ATOM      3  N   UNL     1       2.640   8.053  17.614  0.00  0.00    +0.000 N 
ATOM      4  C   UNL     1       2.813   6.950  18.410  0.00  0.00    +0.000 A 
ATOM      5  N   UNL     1       2.365   6.872  19.624  0.00  0.00    +0.000 NA
ATOM      6  C   UNL     1       1.682   7.980  20.143  0.00  0.00    +0.000 A 
ATOM      7  C   UNL     1       1.159   7.899  21.429  0.00  0.00    +0.000 A 
ATOM      8  C   UNL     1       0.474   8.986  21.985  0.00  0.00    +0.000 A 
ATOM      9  C   UNL     1       0.290  10.185  21.270  0.00  0.00    +0.000 A 
ATOM     10  C   UNL     1       0.828  10.253  19.973  0.00  0.00    +0.000 A 
ATOM     11  C   UNL     1       1.506   9.161  19.424  0.00  0.00    +0.000 A 
ATOM     12  H   UNL     1       3.010   8.086  16.679  0.00  0.00    +0.000 HD
ENDROOT
BRANCH   9  13
ATOM     13  C   UNL     1      -0.475  11.316  21.838  0.00  0.00    +0.000 A 
ATOM     14  C   UNL     1      -1.432  11.123  22.853  0.00  0.00    +0.000 A 
ATOM     15  C   UNL     1      -2.106  12.200  23.432  0.00  0.00    +0.000 A 
ATOM     16  C   UNL     1      -1.849  13.496  22.998  0.00  0.00    +0.000 A 
ATOM     17  C   UNL     1      -0.927  13.716  21.981  0.00  0.00    +0.000 A 
ATOM     18  C   UNL     1      -0.247  12.638  21.412  0.00  0.00    +0.000 A 
ENDBRANCH   9  13
BRANCH   4  19
ATOM     19  C   UNL     1       3.601   5.802  17.814  0.00  0.00    +0.000 C 
BRANCH  19  20
ATOM     20  C   UNL     1       5.081   5.936  18.095  0.00  0.00    +0.000 A 
ATOM     21  C   UNL     1       5.676   5.229  19.155  0.00  0.00    +0.000 A 
ATOM     22  C   UNL     1       7.030   5.399  19.455  0.00  0.00    +0.000 A 
ATOM     23  C   UNL     1       7.810   6.261  18.688  0.00  0.00    +0.000 A 
ATOM     24  C   UNL     1       7.232   6.932  17.618  0.00  0.00    +0.000 A 
ATOM     25  F   UNL     1       7.982   7.752  16.871  0.00  0.00    +0.000 F 
ATOM     26  C   UNL     1       5.881   6.778  17.313  0.00  0.00    +0.000 A 
ENDBRANCH  19  20
ENDBRANCH   4  19
TORSDOF 3
ENDMDL
MODEL 8
REMARK VINA RESULT:      -8.4      3.818      5.316
REMARK  Name = 
REMARK  3 active torsions:
REMARK  status: ('A' for Active; 'I' for Inactive)
REMARK    1  A    between atoms: C_4  and  C_5
REMARK    2  A    between atoms: C_5  and  C_6
REMARK    3  A    between atoms: C_17  and  C_18
REMARK                            x       y       z     vdW  Elec       q    Type
REMARK                         _______ _______ _______ _____ _____    ______ ____
ROOT
ATOM      1  O   UNL     1       0.572  10.546  18.322  0.00  0.00    +0.000 OA
ATOM      2  C   UNL     1       0.812   9.727  19.197  0.00  0.00    +0.000 A 
ATOM      3  N   UNL     1       1.542   8.588  18.955  0.00  0.00    +0.000 N 
ATOM      4  C   UNL     1       1.881   7.691  19.935  0.00  0.00    +0.000 A 
ATOM      5  N   UNL     1       1.489   7.801  21.165  0.00  0.00    +0.000 NA
ATOM      6  C   UNL     1       0.690   8.901  21.503  0.00  0.00    +0.000 A 
ATOM      7  C   UNL     1       0.227   9.014  22.809  0.00  0.00    +0.000 A 
ATOM      8  C   UNL     1      -0.570  10.101  23.187  0.00  0.00    +0.000 A 
ATOM      9  C   UNL     1      -0.930  11.106  22.269  0.00  0.00    +0.000 A 
ATOM     10  C   UNL     1      -0.451  10.980  20.953  0.00  0.00    +0.000 A 
ATOM     11  C   UNL     1       0.341   9.889  20.583  0.00  0.00    +0.000 A 
ATOM     12  H   UNL     1       1.872   8.479  18.010  0.00  0.00    +0.000 HD
ENDROOT
BRANCH   9  13
ATOM     13  C   UNL     1      -1.811  12.229  22.654  0.00  0.00    +0.000 A 
ATOM     14  C   UNL     1      -1.574  13.542  22.201  0.00  0.00    +0.000 A 
ATOM     15  C   UNL     1      -2.444  14.588  22.515  0.00  0.00    +0.000 A 
ATOM     16  C   UNL     1      -3.564  14.349  23.302  0.00  0.00    +0.000 A 
ATOM     17  C   UNL     1      -3.812  13.068  23.784  0.00  0.00    +0.000 A 
ATOM     18  C   UNL     1      -2.947  12.022  23.460  0.00  0.00    +0.000 A 
ENDBRANCH   9  13
BRANCH   4  19
ATOM     19  C   UNL     1       2.787   6.549  19.523  0.00  0.00    +0.000 C 
BRANCH  19  20
ATOM     20  C   UNL     1       2.210   5.209  19.922  0.00  0.00    +0.000 A 
ATOM     21  C   UNL     1       2.403   4.702  21.219  0.00  0.00    +0.000 A 
ATOM     22  C   UNL     1       1.925   3.437  21.570  0.00  0.00    +0.000 A 
ATOM     23  C   UNL     1       1.231   2.672  20.636  0.00  0.00    +0.000 A 
ATOM     24  C   UNL     1       1.009   3.186  19.365  0.00  0.00    +0.000 A 
ATOM     25  F   UNL     1       0.331   2.457  18.468  0.00  0.00    +0.000 F 
ATOM     26  C   UNL     1       1.488   4.442  18.999  0.00  0.00    +0.000 A 
ENDBRANCH  19  20
ENDBRANCH   4  19
TORSDOF 3
ENDMDL
MODEL 9
REMARK VINA RESULT:      -8.4      4.725      7.129
REMARK  Name = 
REMARK  3 active torsions:
REMARK  status: ('A' for Active; 'I' for Inactive)
REMARK    1  A    between atoms: C_4  and  C_5
REMARK    2  A    between atoms: C_5  and  C_6
REMARK    3  A    between atoms: C_17  and  C_18
REMARK                            x       y       z     vdW  Elec       q    Type
REMARK                         _______ _______ _______ _____ _____    ______ ____
ROOT
ATOM      1  O   UNL     1       8.570   5.072  19.913  0.00  0.00    +0.000 OA
ATOM      2  C   UNL     1       7.820   5.382  18.999  0.00  0.00    +0.000 A 
ATOM      3  N   UNL     1       7.005   4.466  18.378  0.00  0.00    +0.000 N 
ATOM      4  C   UNL     1       6.107   4.804  17.398  0.00  0.00    +0.000 A 
ATOM      5  N   UNL     1       5.992   6.004  16.922  0.00  0.00    +0.000 NA
ATOM      6  C   UNL     1       6.822   7.002  17.450  0.00  0.00    +0.000 A 
ATOM      7  C   UNL     1       6.741   8.286  16.924  0.00  0.00    +0.000 A 
ATOM      8  C   UNL     1       7.550   9.310  17.429  0.00  0.00    +0.000 A 
ATOM      9  C   UNL     1       8.466   9.080  18.473  0.00  0.00    +0.000 A 
ATOM     10  C   UNL     1       8.534   7.777  18.997  0.00  0.00    +0.000 A 
ATOM     11  C   UNL     1       7.726   6.759  18.484  0.00  0.00    +0.000 A 
ATOM     12  H   UNL     1       7.062   3.526  18.733  0.00  0.00    +0.000 HD
ENDROOT
BRANCH   9  13
ATOM     13  C   UNL     1       9.356  10.150  18.974  0.00  0.00    +0.000 A 
ATOM     14  C   UNL     1       9.307  10.582  20.314  0.00  0.00    +0.000 A 
ATOM     15  C   UNL     1      10.192  11.548  20.800  0.00  0.00    +0.000 A 
ATOM     16  C   UNL     1      11.136  12.115  19.952  0.00  0.00    +0.000 A 
ATOM     17  C   UNL     1      11.193  11.726  18.618  0.00  0.00    +0.000 A 
ATOM     18  C   UNL     1      10.314  10.753  18.138  0.00  0.00    +0.000 A 
ENDBRANCH   9  13
BRANCH   4  19
ATOM     19  C   UNL     1       5.202   3.697  16.898  0.00  0.00    +0.000 C 
BRANCH  19  20
ATOM     20  C   UNL     1       3.994   3.517  17.792  0.00  0.00    +0.000 A 
ATOM     21  C   UNL     1       3.434   2.244  17.992  0.00  0.00    +0.000 A 
ATOM     22  C   UNL     1       2.282   2.084  18.767  0.00  0.00    +0.000 A 
ATOM     23  C   UNL     1       1.688   3.192  19.366  0.00  0.00    +0.000 A 
ATOM     24  C   UNL     1       2.262   4.446  19.199  0.00  0.00    +0.000 A 
ATOM     25  F   UNL     1       1.699   5.512  19.784  0.00  0.00    +0.000 F 
ATOM     26  C   UNL     1       3.404   4.620  18.422  0.00  0.00    +0.000 A 
ENDBRANCH  19  20
ENDBRANCH   4  19
TORSDOF 3
ENDMDL
