MODEL 1
REMARK VINA RESULT:      -8.6      0.000      0.000
REMARK  Name = 
REMARK  6 active torsions:
REMARK  status: ('A' for Active; 'I' for Inactive)
REMARK    1  A    between atoms: C_1  and  C_2
REMARK    2  A    between atoms: C_5  and  C_6
REMARK    3  A    between atoms: C_8  and  C_9
REMARK    4  A    between atoms: C_9  and  S_10
REMARK    5  A    between atoms: S_10  and  C_13
REMARK    6  A    between atoms: C_25  and  C_26
REMARK                            x       y       z     vdW  Elec       q    Type
REMARK                         _______ _______ _______ _____ _____    ______ ____
ROOT
ATOM      1  C   UNL     1       3.165   2.716  21.159  0.00  0.00    +0.000 C 
ENDROOT
BRANCH   1   4
ATOM      2  C   UNL     1       1.587   5.833  20.574  0.00  0.00    +0.000 A 
ATOM      3  N   UNL     1       2.616   5.127  20.999  0.00  0.00    +0.000 NA
ATOM      4  C   UNL     1       2.245   3.817  20.799  0.00  0.00    +0.000 A 
ATOM      5  C   UNL     1       0.996   3.783  20.227  0.00  0.00    +0.000 A 
ATOM      6  O   UNL     1       0.558   5.064  20.085  0.00  0.00    +0.000 OA
BRANCH   2  11
ATOM      7  C   UNL     1       0.692  11.555  20.545  0.00  0.00    +0.000 C 
ATOM      8  C   UNL     1       0.952  10.079  20.558  0.00  0.00    +0.000 A 
ATOM      9  C   UNL     1       0.598   9.299  21.658  0.00  0.00    +0.000 A 
ATOM     10  C   UNL     1       0.818   7.921  21.642  0.00  0.00    +0.000 A 
ATOM     11  C   UNL     1       1.392   7.281  20.526  0.00  0.00    +0.000 A 
ATOM     12  C   UNL     1       1.755   8.063  19.410  0.00  0.00    +0.000 A 
ATOM     13  C   UNL     1       2.344   7.502  18.142  0.00  0.00    +0.000 C 
ATOM     14  C   UNL     1       1.533   9.457  19.446  0.00  0.00    +0.000 A 
ENDBRANCH   2  11
ENDBRANCH   1   4
BRANCH   1  15
ATOM     15  S   UNL     1       4.096   2.124  19.756  0.00  0.00    +0.000 S 
ATOM     16  O   UNL     1       5.311   1.475  20.213  0.00  0.00    +0.000 OA
ATOM     17  O   UNL     1       3.181   1.437  18.856  0.00  0.00    +0.000 OA
BRANCH  15  18
ATOM     18  C   UNL     1       4.616   3.610  18.928  0.00  0.00    +0.000 A 
ATOM     19  C   UNL     1       3.987   4.007  17.763  0.00  0.00    +0.000 A 
ATOM     20  C   UNL     1       4.547   5.085  17.086  0.00  0.00    +0.000 A 
ATOM     21  C   UNL     1       5.710   5.698  17.582  0.00  0.00    +0.000 A 
ATOM     22  C   UNL     1       6.344   6.746  16.894  0.00  0.00    +0.000 A 
ATOM     23  C   UNL     1       7.521   7.305  17.389  0.00  0.00    +0.000 A 
ATOM     24  C   UNL     1       8.063   6.830  18.577  0.00  0.00    +0.000 A 
ATOM     25  C   UNL     1       7.424   5.797  19.270  0.00  0.00    +0.000 A 
ATOM     26  C   UNL     1       6.260   5.214  18.794  0.00  0.00    +0.000 A 
ATOM     27  N   UNL     1       5.711   4.197  19.473  0.00  0.00    +0.000 NA
ENDBRANCH  15  18
ENDBRANCH   1  15
TORSDOF 4
ENDMDL
MODEL 2
REMARK VINA RESULT:      -7.9      1.053      1.719
REMARK  Name = 
REMARK  6 active torsions:
REMARK  status: ('A' for Active; 'I' for Inactive)
REMARK    1  A    between atoms: C_1  and  C_2
REMARK    2  A    between atoms: C_5  and  C_6
REMARK    3  A    between atoms: C_8  and  C_9
REMARK    4  A    between atoms: C_9  and  S_10
REMARK    5  A    between atoms: S_10  and  C_13
REMARK    6  A    between atoms: C_25  and  C_26
REMARK                            x       y       z     vdW  Elec       q    Type
REMARK                         _______ _______ _______ _____ _____    ______ ____
ROOT
ATOM      1  C   UNL     1       2.212   2.686  19.513  0.00  0.00    +0.000 C 
ENDROOT
BRANCH   1   4
ATOM      2  C   UNL     1       1.963   6.197  19.907  0.00  0.00    +0.000 A 
ATOM      3  N   UNL     1       1.936   5.121  19.146  0.00  0.00    +0.000 NA
ATOM      4  C   UNL     1       2.173   4.078  20.012  0.00  0.00    +0.000 A 
ATOM      5  C   UNL     1       2.311   4.571  21.287  0.00  0.00    +0.000 A 
ATOM      6  O   UNL     1       2.189   5.926  21.235  0.00  0.00    +0.000 OA
BRANCH   2  11
ATOM      7  C   UNL     1       1.350  11.750  18.378  0.00  0.00    +0.000 C 
ATOM      8  C   UNL     1       1.482  10.308  18.766  0.00  0.00    +0.000 A 
ATOM      9  C   UNL     1       2.176   9.410  17.956  0.00  0.00    +0.000 A 
ATOM     10  C   UNL     1       2.316   8.077  18.347  0.00  0.00    +0.000 A 
ATOM     11  C   UNL     1       1.772   7.604  19.557  0.00  0.00    +0.000 A 
ATOM     12  C   UNL     1       1.066   8.506  20.380  0.00  0.00    +0.000 A 
ATOM     13  C   UNL     1       0.467   8.140  21.712  0.00  0.00    +0.000 C 
ATOM     14  C   UNL     1       0.927   9.848  19.966  0.00  0.00    +0.000 A 
ENDBRANCH   2  11
ENDBRANCH   1   4
BRANCH   1  15
ATOM     15  S   UNL     1       3.854   2.189  19.019  0.00  0.00    +0.000 S 
ATOM     16  O   UNL     1       4.643   1.869  20.195  0.00  0.00    +0.000 OA
ATOM     17  O   UNL     1       3.735   1.238  17.923  0.00  0.00    +0.000 OA
BRANCH  15  18
ATOM     18  C   UNL     1       4.565   3.672  18.342  0.00  0.00    +0.000 A 
ATOM     19  C   UNL     1       4.192   4.104  17.083  0.00  0.00    +0.000 A 
ATOM     20  C   UNL     1       4.902   5.176  16.552  0.00  0.00    +0.000 A 
ATOM     21  C   UNL     1       5.957   5.748  17.283  0.00  0.00    +0.000 A 
ATOM     22  C   UNL     1       6.740   6.789  16.756  0.00  0.00    +0.000 A 
ATOM     23  C   UNL     1       7.808   7.308  17.488  0.00  0.00    +0.000 A 
ATOM     24  C   UNL     1       8.089   6.800  18.751  0.00  0.00    +0.000 A 
ATOM     25  C   UNL     1       7.300   5.775  19.281  0.00  0.00    +0.000 A 
ATOM     26  C   UNL     1       6.241   5.232  18.570  0.00  0.00    +0.000 A 
ATOM     27  N   UNL     1       5.542   4.221  19.106  0.00  0.00    +0.000 NA
ENDBRANCH  15  18
ENDBRANCH   1  15
TORSDOF 4
ENDMDL
MODEL 3
REMARK VINA RESULT:      -7.8      2.458      3.062
REMARK  Name = 
REMARK  6 active torsions:
REMARK  status: ('A' for Active; 'I' for Inactive)
REMARK    1  A    between atoms: C_1  and  C_2
REMARK    2  A    between atoms: C_5  and  C_6
REMARK    3  A    between atoms: C_8  and  C_9
REMARK    4  A    between atoms: C_9  and  S_10
REMARK    5  A    between atoms: S_10  and  C_13
REMARK    6  A    between atoms: C_25  and  C_26
REMARK                            x       y       z     vdW  Elec       q    Type
REMARK                         _______ _______ _______ _____ _____    ______ ____
ROOT
ATOM      1  C   UNL     1       4.291   4.053  19.279  0.00  0.00    +0.000 C 
ENDROOT
BRANCH   1   4
ATOM      2  C   UNL     1       2.151   6.726  20.184  0.00  0.00    +0.000 A 
ATOM      3  N   UNL     1       3.204   6.265  19.540  0.00  0.00    +0.000 NA
ATOM      4  C   UNL     1       3.232   4.921  19.838  0.00  0.00    +0.000 A 
ATOM      5  C   UNL     1       2.161   4.614  20.643  0.00  0.00    +0.000 A 
ATOM      6  O   UNL     1       1.466   5.760  20.881  0.00  0.00    +0.000 OA
BRANCH   2  11
ATOM      7  C   UNL     1      -0.097  12.047  20.615  0.00  0.00    +0.000 C 
ATOM      8  C   UNL     1       0.511  10.681  20.503  0.00  0.00    +0.000 A 
ATOM      9  C   UNL     1       0.596   9.842  21.613  0.00  0.00    +0.000 A 
ATOM     10  C   UNL     1       1.137   8.562  21.486  0.00  0.00    +0.000 A 
ATOM     11  C   UNL     1       1.604   8.080  20.247  0.00  0.00    +0.000 A 
ATOM     12  C   UNL     1       1.524   8.924  19.120  0.00  0.00    +0.000 A 
ATOM     13  C   UNL     1       1.953   8.522  17.734  0.00  0.00    +0.000 C 
ATOM     14  C   UNL     1       0.981  10.219  19.268  0.00  0.00    +0.000 A 
ENDBRANCH   2  11
ENDBRANCH   1   4
BRANCH   1  15
ATOM     15  S   UNL     1       3.858   3.404  17.673  0.00  0.00    +0.000 S 
ATOM     16  O   UNL     1       3.938   1.955  17.693  0.00  0.00    +0.000 OA
ATOM     17  O   UNL     1       2.648   4.074  17.219  0.00  0.00    +0.000 OA
BRANCH  15  18
ATOM     18  C   UNL     1       5.181   3.953  16.618  0.00  0.00    +0.000 A 
ATOM     19  C   UNL     1       6.072   4.908  17.069  0.00  0.00    +0.000 A 
ATOM     20  C   UNL     1       6.980   5.406  16.139  0.00  0.00    +0.000 A 
ATOM     21  C   UNL     1       6.944   4.950  14.811  0.00  0.00    +0.000 A 
ATOM     22  C   UNL     1       7.800   5.473  13.827  0.00  0.00    +0.000 A 
ATOM     23  C   UNL     1       7.711   5.031  12.508  0.00  0.00    +0.000 A 
ATOM     24  C   UNL     1       6.779   4.059  12.167  0.00  0.00    +0.000 A 
ATOM     25  C   UNL     1       5.938   3.527  13.149  0.00  0.00    +0.000 A 
ATOM     26  C   UNL     1       5.995   3.957  14.466  0.00  0.00    +0.000 A 
ATOM     27  N   UNL     1       5.137   3.446  15.360  0.00  0.00    +0.000 NA
ENDBRANCH  15  18
ENDBRANCH   1  15
TORSDOF 4
ENDMDL
MODEL 4
REMARK VINA RESULT:      -7.8      4.593      7.404
REMARK  Name = 
REMARK  6 active torsions:
REMARK  status: ('A' for Active; 'I' for Inactive)
REMARK    1  A    between atoms: C_1  and  C_2
REMARK    2  A    between atoms: C_5  and  C_6
REMARK    3  A    between atoms: C_8  and  C_9
REMARK    4  A    between atoms: C_9  and  S_10
REMARK    5  A    between atoms: S_10  and  C_13
REMARK    6  A    between atoms: C_25  and  C_26
REMARK                            x       y       z     vdW  Elec       q    Type
REMARK                         _______ _______ _______ _____ _____    ______ ____
ROOT
ATOM      1  C   UNL     1       7.810   6.445  18.617  0.00  0.00    +0.000 C 
ENDROOT
BRANCH   1   4
ATOM      2  C   UNL     1       8.776   9.850  18.484  0.00  0.00    +0.000 A 
ATOM      3  N   UNL     1       8.901   8.639  18.989  0.00  0.00    +0.000 NA
ATOM      4  C   UNL     1       7.964   7.885  18.319  0.00  0.00    +0.000 A 
ATOM      5  C   UNL     1       7.316   8.680  17.402  0.00  0.00    +0.000 A 
ATOM      6  O   UNL     1       7.818   9.941  17.504  0.00  0.00    +0.000 OA
BRANCH   2  11
ATOM      7  C   UNL     1      11.748  14.625  19.869  0.00  0.00    +0.000 C 
ATOM      8  C   UNL     1      10.993  13.388  19.485  0.00  0.00    +0.000 A 
ATOM      9  C   UNL     1      11.323  12.150  20.033  0.00  0.00    +0.000 A 
ATOM     10  C   UNL     1      10.589  11.012  19.690  0.00  0.00    +0.000 A 
ATOM     11  C   UNL     1       9.504  11.079  18.794  0.00  0.00    +0.000 A 
ATOM     12  C   UNL     1       9.166  12.329  18.233  0.00  0.00    +0.000 A 
ATOM     13  C   UNL     1       8.010  12.545  17.292  0.00  0.00    +0.000 C 
ATOM     14  C   UNL     1       9.923  13.467  18.585  0.00  0.00    +0.000 A 
ENDBRANCH   2  11
ENDBRANCH   1   4
BRANCH   1  15
ATOM     15  S   UNL     1       7.381   5.495  17.168  0.00  0.00    +0.000 S 
ATOM     16  O   UNL     1       7.568   6.306  15.978  0.00  0.00    +0.000 OA
ATOM     17  O   UNL     1       8.004   4.184  17.278  0.00  0.00    +0.000 OA
BRANCH  15  18
ATOM     18  C   UNL     1       5.626   5.248  17.320  0.00  0.00    +0.000 A 
ATOM     19  C   UNL     1       4.787   6.337  17.465  0.00  0.00    +0.000 A 
ATOM     20  C   UNL     1       3.450   6.065  17.738  0.00  0.00    +0.000 A 
ATOM     21  C   UNL     1       3.020   4.735  17.877  0.00  0.00    +0.000 A 
ATOM     22  C   UNL     1       1.693   4.419  18.216  0.00  0.00    +0.000 A 
ATOM     23  C   UNL     1       1.306   3.091  18.388  0.00  0.00    +0.000 A 
ATOM     24  C   UNL     1       2.235   2.073  18.210  0.00  0.00    +0.000 A 
ATOM     25  C   UNL     1       3.552   2.386  17.858  0.00  0.00    +0.000 A 
ATOM     26  C   UNL     1       3.967   3.699  17.692  0.00  0.00    +0.000 A 
ATOM     27  N   UNL     1       5.251   3.947  17.396  0.00  0.00    +0.000 NA
ENDBRANCH  15  18
ENDBRANCH   1  15
TORSDOF 4
ENDMDL
MODEL 5
REMARK VINA RESULT:      -7.7      3.159      3.769
REMARK  Name = 
REMARK  6 active torsions:
REMARK  status: ('A' for Active; 'I' for Inactive)
REMARK    1  A    between atoms: C_1  and  C_2
REMARK    2  A    between atoms: C_5  and  C_6
REMARK    3  A    between atoms: C_8  and  C_9
REMARK    4  A    between atoms: C_9  and  S_10
REMARK    5  A    between atoms: S_10  and  C_13
REMARK    6  A    between atoms: C_25  and  C_26
REMARK                            x       y       z     vdW  Elec       q    Type
REMARK                         _______ _______ _______ _____ _____    ______ ____
ROOT
ATOM      1  C   UNL     1       5.357   4.412  18.976  0.00  0.00    +0.000 C 
ENDROOT
BRANCH   1   4
ATOM      2  C   UNL     1       2.654   6.678  19.300  0.00  0.00    +0.000 A 
ATOM      3  N   UNL     1       3.824   6.220  19.699  0.00  0.00    +0.000 NA
ATOM      4  C   UNL     1       4.101   5.180  18.840  0.00  0.00    +0.000 A 
ATOM      5  C   UNL     1       3.081   5.066  17.925  0.00  0.00    +0.000 A 
ATOM      6  O   UNL     1       2.145   6.011  18.212  0.00  0.00    +0.000 OA
BRANCH   2  11
ATOM      7  C   UNL     1      -0.610  10.922  21.510  0.00  0.00    +0.000 C 
ATOM      8  C   UNL     1       0.258   9.839  20.943  0.00  0.00    +0.000 A 
ATOM      9  C   UNL     1       0.529   8.683  21.674  0.00  0.00    +0.000 A 
ATOM     10  C   UNL     1       1.314   7.670  21.120  0.00  0.00    +0.000 A 
ATOM     11  C   UNL     1       1.847   7.780  19.821  0.00  0.00    +0.000 A 
ATOM     12  C   UNL     1       1.580   8.948  19.077  0.00  0.00    +0.000 A 
ATOM     13  C   UNL     1       2.058   9.177  17.667  0.00  0.00    +0.000 C 
ATOM     14  C   UNL     1       0.791   9.966  19.655  0.00  0.00    +0.000 A 
ENDBRANCH   2  11
ENDBRANCH   1   4
BRANCH   1  15
ATOM     15  S   UNL     1       6.710   5.161  18.084  0.00  0.00    +0.000 S 
ATOM     16  O   UNL     1       6.599   6.607  18.150  0.00  0.00    +0.000 OA
ATOM     17  O   UNL     1       7.943   4.493  18.474  0.00  0.00    +0.000 OA
BRANCH  15  18
ATOM     18  C   UNL     1       6.399   4.724  16.388  0.00  0.00    +0.000 A 
ATOM     19  C   UNL     1       5.535   3.687  16.090  0.00  0.00    +0.000 A 
ATOM     20  C   UNL     1       5.462   3.296  14.757  0.00  0.00    +0.000 A 
ATOM     21  C   UNL     1       6.263   3.934  13.795  0.00  0.00    +0.000 A 
ATOM     22  C   UNL     1       6.267   3.526  12.450  0.00  0.00    +0.000 A 
ATOM     23  C   UNL     1       7.105   4.150  11.526  0.00  0.00    +0.000 A 
ATOM     24  C   UNL     1       7.930   5.190  11.937  0.00  0.00    +0.000 A 
ATOM     25  C   UNL     1       7.915   5.606  13.272  0.00  0.00    +0.000 A 
ATOM     26  C   UNL     1       7.101   4.995  14.214  0.00  0.00    +0.000 A 
ATOM     27  N   UNL     1       7.156   5.403  15.490  0.00  0.00    +0.000 NA
ENDBRANCH  15  18
ENDBRANCH   1  15
TORSDOF 4
ENDMDL
MODEL 6
REMARK VINA RESULT:      -7.7      2.005      2.960
REMARK  Name = 
REMARK  6 active torsions:
REMARK  status: ('A' for Active; 'I' for Inactive)
REMARK    1  A    between atoms: C_1  and  C_2
REMARK    2  A    between atoms: C_5  and  C_6
REMARK    3  A    between atoms: C_8  and  C_9
REMARK    4  A    between atoms: C_9  and  S_10
REMARK    5  A    between atoms: S_10  and  C_13
REMARK    6  A    between atoms: C_25  and  C_26
REMARK                            x       y       z     vdW  Elec       q    Type
REMARK                         _______ _______ _______ _____ _____    ______ ____
ROOT
ATOM      1  C   UNL     1       2.235   4.491  20.522  0.00  0.00    +0.000 C 
ENDROOT
BRANCH   1   4
ATOM      2  C   UNL     1       1.141   7.849  20.805  0.00  0.00    +0.000 A 
ATOM      3  N   UNL     1       1.091   6.587  21.185  0.00  0.00    +0.000 NA
ATOM      4  C   UNL     1       2.005   5.946  20.381  0.00  0.00    +0.000 A 
ATOM      5  C   UNL     1       2.601   6.865  19.550  0.00  0.00    +0.000 A 
ATOM      6  O   UNL     1       2.052   8.084  19.803  0.00  0.00    +0.000 OA
BRANCH   2  11
ATOM      7  C   UNL     1      -1.815  12.355  22.927  0.00  0.00    +0.000 C 
ATOM      8  C   UNL     1      -1.026  11.205  22.375  0.00  0.00    +0.000 A 
ATOM      9  C   UNL     1      -0.564  10.189  23.210  0.00  0.00    +0.000 A 
ATOM     10  C   UNL     1       0.142   9.109  22.677  0.00  0.00    +0.000 A 
ATOM     11  C   UNL     1       0.403   9.011  21.296  0.00  0.00    +0.000 A 
ATOM     12  C   UNL     1      -0.059  10.037  20.445  0.00  0.00    +0.000 A 
ATOM     13  C   UNL     1       0.120  10.037  18.950  0.00  0.00    +0.000 C 
ATOM     14  C   UNL     1      -0.764  11.125  21.002  0.00  0.00    +0.000 A 
ENDBRANCH   2  11
ENDBRANCH   1   4
BRANCH   1  15
ATOM     15  S   UNL     1       2.159   3.639  18.956  0.00  0.00    +0.000 S 
ATOM     16  O   UNL     1       1.998   2.213  19.181  0.00  0.00    +0.000 OA
ATOM     17  O   UNL     1       1.243   4.360  18.084  0.00  0.00    +0.000 OA
BRANCH  15  18
ATOM     18  C   UNL     1       3.790   3.845  18.276  0.00  0.00    +0.000 A 
ATOM     19  C   UNL     1       4.855   4.125  19.111  0.00  0.00    +0.000 A 
ATOM     20  C   UNL     1       6.066   4.432  18.499  0.00  0.00    +0.000 A 
ATOM     21  C   UNL     1       6.155   4.467  17.098  0.00  0.00    +0.000 A 
ATOM     22  C   UNL     1       7.342   4.835  16.441  0.00  0.00    +0.000 A 
ATOM     23  C   UNL     1       7.387   4.902  15.050  0.00  0.00    +0.000 A 
ATOM     24  C   UNL     1       6.254   4.592  14.308  0.00  0.00    +0.000 A 
ATOM     25  C   UNL     1       5.077   4.211  14.960  0.00  0.00    +0.000 A 
ATOM     26  C   UNL     1       5.000   4.148  16.343  0.00  0.00    +0.000 A 
ATOM     27  N   UNL     1       3.836   3.819  16.920  0.00  0.00    +0.000 NA
ENDBRANCH  15  18
ENDBRANCH   1  15
TORSDOF 4
ENDMDL
MODEL 7
REMARK VINA RESULT:      -7.7      2.587      3.525
REMARK  Name = 
REMARK  6 active torsions:
REMARK  status: ('A' for Active; 'I' for Inactive)
REMARK    1  A    between atoms: C_1  and  C_2
REMARK    2  A    between atoms: C_5  and  C_6
REMARK    3  A    between atoms: C_8  and  C_9
REMARK    4  A    between atoms: C_9  and  S_10
REMARK    5  A    between atoms: S_10  and  C_13
REMARK    6  A    between atoms: C_25  and  C_26
REMARK                            x       y       z     vdW  Elec       q    Type
REMARK                         _______ _______ _______ _____ _____    ______ ____
ROOT
ATOM      1  C   UNL     1       3.265   4.724  18.357  0.00  0.00    +0.000 C 
ENDROOT
BRANCH   1   4
ATOM      2  C   UNL     1       1.897   7.784  19.504  0.00  0.00    +0.000 A 
ATOM      3  N   UNL     1       2.050   6.479  19.616  0.00  0.00    +0.000 NA
ATOM      4  C   UNL     1       2.863   6.133  18.560  0.00  0.00    +0.000 A 
ATOM      5  C   UNL     1       3.194   7.265  17.854  0.00  0.00    +0.000 A 
ATOM      6  O   UNL     1       2.577   8.327  18.440  0.00  0.00    +0.000 OA
BRANCH   2  11
ATOM      7  C   UNL     1      -1.053  11.366  22.969  0.00  0.00    +0.000 C 
ATOM      8  C   UNL     1      -0.270  10.460  22.068  0.00  0.00    +0.000 A 
ATOM      9  C   UNL     1       0.533   9.448  22.592  0.00  0.00    +0.000 A 
ATOM     10  C   UNL     1       1.232   8.593  21.739  0.00  0.00    +0.000 A 
ATOM     11  C   UNL     1       1.145   8.719  20.338  0.00  0.00    +0.000 A 
ATOM     12  C   UNL     1       0.337   9.742  19.800  0.00  0.00    +0.000 A 
ATOM     13  C   UNL     1       0.129   9.964  18.325  0.00  0.00    +0.000 C 
ATOM     14  C   UNL     1      -0.356  10.603  20.678  0.00  0.00    +0.000 A 
ENDBRANCH   2  11
ENDBRANCH   1   4
BRANCH   1  15
ATOM     15  S   UNL     1       4.946   4.419  18.873  0.00  0.00    +0.000 S 
ATOM     16  O   UNL     1       5.407   5.511  19.711  0.00  0.00    +0.000 OA
ATOM     17  O   UNL     1       5.042   3.041  19.332  0.00  0.00    +0.000 OA
BRANCH  15  18
ATOM     18  C   UNL     1       5.885   4.529  17.367  0.00  0.00    +0.000 A 
ATOM     19  C   UNL     1       6.986   5.361  17.299  0.00  0.00    +0.000 A 
ATOM     20  C   UNL     1       7.576   5.520  16.049  0.00  0.00    +0.000 A 
ATOM     21  C   UNL     1       7.033   4.867  14.930  0.00  0.00    +0.000 A 
ATOM     22  C   UNL     1       7.558   5.051  13.640  0.00  0.00    +0.000 A 
ATOM     23  C   UNL     1       6.971   4.423  12.543  0.00  0.00    +0.000 A 
ATOM     24  C   UNL     1       5.868   3.600  12.729  0.00  0.00    +0.000 A 
ATOM     25  C   UNL     1       5.354   3.404  14.015  0.00  0.00    +0.000 A 
ATOM     26  C   UNL     1       5.910   4.026  15.122  0.00  0.00    +0.000 A 
ATOM     27  N   UNL     1       5.353   3.839  16.327  0.00  0.00    +0.000 NA
ENDBRANCH  15  18
ENDBRANCH   1  15
TORSDOF 4
ENDMDL
MODEL 8
REMARK VINA RESULT:      -7.6      2.781      3.742
REMARK  Name = 
REMARK  6 active torsions:
REMARK  status: ('A' for Active; 'I' for Inactive)
REMARK    1  A    between atoms: C_1  and  C_2
REMARK    2  A    between atoms: C_5  and  C_6
REMARK    3  A    between atoms: C_8  and  C_9
REMARK    4  A    between atoms: C_9  and  S_10
REMARK    5  A    between atoms: S_10  and  C_13
REMARK    6  A    between atoms: C_25  and  C_26
REMARK                            x       y       z     vdW  Elec       q    Type
REMARK                         _______ _______ _______ _____ _____    ______ ____
ROOT
ATOM      1  C   UNL     1       3.448   6.352  17.877  0.00  0.00    +0.000 C 
ENDROOT
BRANCH   1   4
ATOM      2  C   UNL     1       1.463   8.007  20.300  0.00  0.00    +0.000 A 
ATOM      3  N   UNL     1       2.132   8.012  19.164  0.00  0.00    +0.000 NA
ATOM      4  C   UNL     1       2.632   6.734  19.050  0.00  0.00    +0.000 A 
ATOM      5  C   UNL     1       2.217   5.988  20.128  0.00  0.00    +0.000 A 
ATOM      6  O   UNL     1       1.477   6.791  20.940  0.00  0.00    +0.000 OA
BRANCH   2  11
ATOM      7  C   UNL     1      -1.558  12.114  23.048  0.00  0.00    +0.000 C 
ATOM      8  C   UNL     1      -0.752  11.068  22.337  0.00  0.00    +0.000 A 
ATOM      9  C   UNL     1      -0.281   9.945  23.015  0.00  0.00    +0.000 A 
ATOM     10  C   UNL     1       0.441   8.964  22.332  0.00  0.00    +0.000 A 
ATOM     11  C   UNL     1       0.709   9.075  20.954  0.00  0.00    +0.000 A 
ATOM     12  C   UNL     1       0.237  10.210  20.262  0.00  0.00    +0.000 A 
ATOM     13  C   UNL     1       0.423  10.433  18.784  0.00  0.00    +0.000 C 
ATOM     14  C   UNL     1      -0.484  11.195  20.969  0.00  0.00    +0.000 A 
ENDBRANCH   2  11
ENDBRANCH   1   4
BRANCH   1  15
ATOM     15  S   UNL     1       4.428   4.892  18.180  0.00  0.00    +0.000 S 
ATOM     16  O   UNL     1       5.269   5.100  19.346  0.00  0.00    +0.000 OA
ATOM     17  O   UNL     1       3.558   3.728  18.091  0.00  0.00    +0.000 OA
BRANCH  15  18
ATOM     18  C   UNL     1       5.533   4.820  16.788  0.00  0.00    +0.000 A 
ATOM     19  C   UNL     1       6.698   5.563  16.792  0.00  0.00    +0.000 A 
ATOM     20  C   UNL     1       7.432   5.584  15.611  0.00  0.00    +0.000 A 
ATOM     21  C   UNL     1       6.964   4.889  14.482  0.00  0.00    +0.000 A 
ATOM     22  C   UNL     1       7.641   4.937  13.252  0.00  0.00    +0.000 A 
ATOM     23  C   UNL     1       7.130   4.271  12.139  0.00  0.00    +0.000 A 
ATOM     24  C   UNL     1       5.950   3.546  12.252  0.00  0.00    +0.000 A 
ATOM     25  C   UNL     1       5.284   3.486  13.479  0.00  0.00    +0.000 A 
ATOM     26  C   UNL     1       5.764   4.148  14.600  0.00  0.00    +0.000 A 
ATOM     27  N   UNL     1       5.064   4.093  15.742  0.00  0.00    +0.000 NA
ENDBRANCH  15  18
ENDBRANCH   1  15
TORSDOF 4
ENDMDL
MODEL 9
REMARK VINA RESULT:      -7.4      3.179      4.003
REMARK  Name = 
REMARK  6 active torsions:
REMARK  status: ('A' for Active; 'I' for Inactive)
REMARK    1  A    between atoms: C_1  and  C_2
REMARK    2  A    between atoms: C_5  and  C_6
REMARK    3  A    between atoms: C_8  and  C_9
REMARK    4  A    between atoms: C_9  and  S_10
REMARK    5  A    between atoms: S_10  and  C_13
REMARK    6  A    between atoms: C_25  and  C_26
REMARK                            x       y       z     vdW  Elec       q    Type
REMARK                         _______ _______ _______ _____ _____    ______ ____
ROOT
ATOM      1  C   UNL     1       5.401   4.462  19.014  0.00  0.00    +0.000 C 
ENDROOT
BRANCH   1   4
ATOM      2  C   UNL     1       2.799   6.850  18.736  0.00  0.00    +0.000 A 
ATOM      3  N   UNL     1       4.013   6.512  19.124  0.00  0.00    +0.000 NA
ATOM      4  C   UNL     1       4.145   5.196  18.744  0.00  0.00    +0.000 A 
ATOM      5  C   UNL     1       2.996   4.791  18.107  0.00  0.00    +0.000 A 
ATOM      6  O   UNL     1       2.123   5.835  18.103  0.00  0.00    +0.000 OA
BRANCH   2  11
ATOM      7  C   UNL     1       0.099  11.964  19.057  0.00  0.00    +0.000 C 
ATOM      8  C   UNL     1       0.773  10.627  18.969  0.00  0.00    +0.000 A 
ATOM      9  C   UNL     1       1.492  10.262  17.832  0.00  0.00    +0.000 A 
ATOM     10  C   UNL     1       2.139   9.027  17.778  0.00  0.00    +0.000 A 
ATOM     11  C   UNL     1       2.091   8.123  18.857  0.00  0.00    +0.000 A 
ATOM     12  C   UNL     1       1.363   8.484  20.010  0.00  0.00    +0.000 A 
ATOM     13  C   UNL     1       1.261   7.629  21.245  0.00  0.00    +0.000 C 
ATOM     14  C   UNL     1       0.708   9.734  20.045  0.00  0.00    +0.000 A 
ENDBRANCH   2  11
ENDBRANCH   1   4
BRANCH   1  15
ATOM     15  S   UNL     1       6.786   5.138  18.113  0.00  0.00    +0.000 S 
ATOM     16  O   UNL     1       6.752   6.588  18.176  0.00  0.00    +0.000 OA
ATOM     17  O   UNL     1       7.985   4.407  18.498  0.00  0.00    +0.000 OA
BRANCH  15  18
ATOM     18  C   UNL     1       6.445   4.714  16.419  0.00  0.00    +0.000 A 
ATOM     19  C   UNL     1       5.565   3.688  16.129  0.00  0.00    +0.000 A 
ATOM     20  C   UNL     1       5.467   3.306  14.795  0.00  0.00    +0.000 A 
ATOM     21  C   UNL     1       6.259   3.941  13.824  0.00  0.00    +0.000 A 
ATOM     22  C   UNL     1       6.238   3.542  12.477  0.00  0.00    +0.000 A 
ATOM     23  C   UNL     1       7.067   4.163  11.544  0.00  0.00    +0.000 A 
ATOM     24  C   UNL     1       7.910   5.192  11.948  0.00  0.00    +0.000 A 
ATOM     25  C   UNL     1       7.920   5.599  13.285  0.00  0.00    +0.000 A 
ATOM     26  C   UNL     1       7.115   4.991  14.236  0.00  0.00    +0.000 A 
ATOM     27  N   UNL     1       7.194   5.390  15.513  0.00  0.00    +0.000 NA
ENDBRANCH  15  18
ENDBRANCH   1  15
TORSDOF 4
ENDMDL
