MODEL 1
REMARK VINA RESULT:      -9.3      0.000      0.000
REMARK  Name = 
REMARK  5 active torsions:
REMARK  status: ('A' for Active; 'I' for Inactive)
REMARK    1  A    between atoms: C_8  and  S_9
REMARK    2  A    between atoms: S_9  and  N_12
REMARK    3  A    between atoms: N_12  and  C_13
REMARK    4  A    between atoms: N_15  and  C_16
REMARK    5  A    between atoms: C_16  and  C_17
REMARK                            x       y       z     vdW  Elec       q    Type
REMARK                         _______ _______ _______ _____ _____    ______ ____
ROOT
ATOM      1  S   UNL     1       7.237   5.271  18.412  0.00  0.00    +0.000 S 
ATOM      2  O   UNL     1       7.466   5.828  19.723  0.00  0.00    +0.000 OA
ATOM      3  O   UNL     1       7.945   4.094  17.950  0.00  0.00    +0.000 OA
ENDROOT
BRANCH   1  11
ATOM      4  O   UNL     1       0.349   1.892  18.656  0.00  0.00    +0.000 OA
ATOM      5  C   UNL     1       0.902   2.943  19.011  0.00  0.00    +0.000 C 
ATOM      6  C   UNL     1       0.745   3.430  20.434  0.00  0.00    +0.000 C 
ATOM      7  C   UNL     1       1.949   4.058  21.111  0.00  0.00    +0.000 C 
ATOM      8  C   UNL     1       2.404   5.312  20.393  0.00  0.00    +0.000 C 
ATOM      9  C   UNL     1       3.277   4.946  19.232  0.00  0.00    +0.000 A 
ATOM     10  C   UNL     1       4.634   5.309  19.270  0.00  0.00    +0.000 A 
ATOM     11  C   UNL     1       5.504   4.926  18.246  0.00  0.00    +0.000 A 
ATOM     12  C   UNL     1       5.016   4.263  17.121  0.00  0.00    +0.000 A 
ATOM     13  C   UNL     1       3.657   3.939  17.057  0.00  0.00    +0.000 A 
ATOM     14  C   UNL     1       2.797   4.226  18.132  0.00  0.00    +0.000 A 
ATOM     15  N   UNL     1       1.490   3.700  18.041  0.00  0.00    +0.000 N 
ATOM     16  H   UNL     1       1.298   3.259  17.147  0.00  0.00    +0.000 HD
ENDBRANCH   1  11
BRANCH   1  17
ATOM     17  N   UNL     1       7.561   6.491  17.271  0.00  0.00    +0.000 N 
ATOM     18  H   UNL     1       6.821   6.451  16.569  0.00  0.00    +0.000 HD
BRANCH  17  19
ATOM     19  C   UNL     1       7.842   7.770  17.725  0.00  0.00    +0.000 A 
ATOM     20  C   UNL     1       8.731   8.139  18.702  0.00  0.00    +0.000 A 
ATOM     21  N   UNL     1       8.661   9.502  18.710  0.00  0.00    +0.000 N 
ATOM     22  N   UNL     1       7.775   9.950  17.799  0.00  0.00    +0.000 NA
ATOM     23  N   UNL     1       7.306   8.891  17.154  0.00  0.00    +0.000 NA
BRANCH  21  24
ATOM     24  C   UNL     1       9.453  10.434  19.498  0.00  0.00    +0.000 C 
BRANCH  24  25
ATOM     25  C   UNL     1       9.766  11.659  18.681  0.00  0.00    +0.000 A 
ATOM     26  C   UNL     1      10.856  11.659  17.798  0.00  0.00    +0.000 A 
ATOM     27  C   UNL     1      11.293  12.851  17.223  0.00  0.00    +0.000 A 
ATOM     28  C   UNL     1      10.629  14.044  17.498  0.00  0.00    +0.000 A 
ATOM     29  C   UNL     1       9.495  14.041  18.310  0.00  0.00    +0.000 A 
ATOM     30  C   UNL     1       9.061  12.852  18.897  0.00  0.00    +0.000 A 
ENDBRANCH  24  25
ENDBRANCH  21  24
ENDBRANCH  17  19
ENDBRANCH   1  17
TORSDOF 5
ENDMDL
MODEL 2
REMARK VINA RESULT:      -8.9      4.798      6.892
REMARK  Name = 
REMARK  5 active torsions:
REMARK  status: ('A' for Active; 'I' for Inactive)
REMARK    1  A    between atoms: C_8  and  S_9
REMARK    2  A    between atoms: S_9  and  N_12
REMARK    3  A    between atoms: N_12  and  C_13
REMARK    4  A    between atoms: N_15  and  C_16
REMARK    5  A    between atoms: C_16  and  C_17
REMARK                            x       y       z     vdW  Elec       q    Type
REMARK                         _______ _______ _______ _____ _____    ______ ____
ROOT
ATOM      1  S   UNL     1       6.965   5.636  18.552  0.00  0.00    +0.000 S 
ATOM      2  O   UNL     1       7.158   6.971  18.043  0.00  0.00    +0.000 OA
ATOM      3  O   UNL     1       7.515   5.220  19.828  0.00  0.00    +0.000 OA
ENDROOT
BRANCH   1  11
ATOM      4  O   UNL     1       0.130   2.144  18.481  0.00  0.00    +0.000 OA
ATOM      5  C   UNL     1       0.806   2.889  19.204  0.00  0.00    +0.000 C 
ATOM      6  C   UNL     1       0.997   2.547  20.664  0.00  0.00    +0.000 C 
ATOM      7  C   UNL     1       2.355   2.811  21.288  0.00  0.00    +0.000 C 
ATOM      8  C   UNL     1       2.707   4.285  21.258  0.00  0.00    +0.000 C 
ATOM      9  C   UNL     1       3.277   4.645  19.920  0.00  0.00    +0.000 A 
ATOM     10  C   UNL     1       4.626   5.031  19.846  0.00  0.00    +0.000 A 
ATOM     11  C   UNL     1       5.223   5.305  18.613  0.00  0.00    +0.000 A 
ATOM     12  C   UNL     1       4.460   5.296  17.446  0.00  0.00    +0.000 A 
ATOM     13  C   UNL     1       3.105   4.957  17.520  0.00  0.00    +0.000 A 
ATOM     14  C   UNL     1       2.525   4.576  18.743  0.00  0.00    +0.000 A 
ATOM     15  N   UNL     1       1.203   4.083  18.676  0.00  0.00    +0.000 N 
ATOM     16  H   UNL     1       0.792   4.163  17.752  0.00  0.00    +0.000 HD
ENDBRANCH   1  11
BRANCH   1  17
ATOM     17  N   UNL     1       7.586   4.550  17.398  0.00  0.00    +0.000 N 
ATOM     18  H   UNL     1       7.503   3.612  17.791  0.00  0.00    +0.000 HD
BRANCH  17  19
ATOM     19  C   UNL     1       7.153   4.655  16.086  0.00  0.00    +0.000 A 
ATOM     20  C   UNL     1       6.165   3.935  15.466  0.00  0.00    +0.000 A 
ATOM     21  N   UNL     1       6.105   4.471  14.212  0.00  0.00    +0.000 N 
ATOM     22  N   UNL     1       7.009   5.459  14.062  0.00  0.00    +0.000 NA
ATOM     23  N   UNL     1       7.622   5.611  15.228  0.00  0.00    +0.000 NA
BRANCH  21  24
ATOM     24  C   UNL     1       5.173   4.146  13.144  0.00  0.00    +0.000 C 
BRANCH  24  25
ATOM     25  C   UNL     1       5.819   3.195  12.171  0.00  0.00    +0.000 A 
ATOM     26  C   UNL     1       5.089   2.119  11.646  0.00  0.00    +0.000 A 
ATOM     27  C   UNL     1       5.739   1.108  10.941  0.00  0.00    +0.000 A 
ATOM     28  C   UNL     1       7.114   1.178  10.727  0.00  0.00    +0.000 A 
ATOM     29  C   UNL     1       7.835   2.285  11.175  0.00  0.00    +0.000 A 
ATOM     30  C   UNL     1       7.190   3.293  11.891  0.00  0.00    +0.000 A 
ENDBRANCH  24  25
ENDBRANCH  21  24
ENDBRANCH  17  19
ENDBRANCH   1  17
TORSDOF 5
ENDMDL
MODEL 3
REMARK VINA RESULT:      -8.9      1.361      1.676
REMARK  Name = 
REMARK  5 active torsions:
REMARK  status: ('A' for Active; 'I' for Inactive)
REMARK    1  A    between atoms: C_8  and  S_9
REMARK    2  A    between atoms: S_9  and  N_12
REMARK    3  A    between atoms: N_12  and  C_13
REMARK    4  A    between atoms: N_15  and  C_16
REMARK    5  A    between atoms: C_16  and  C_17
REMARK                            x       y       z     vdW  Elec       q    Type
REMARK                         _______ _______ _______ _____ _____    ______ ____
ROOT
ATOM      1  S   UNL     1       6.721   5.497  16.174  0.00  0.00    +0.000 S 
ATOM      2  O   UNL     1       7.747   4.928  17.012  0.00  0.00    +0.000 OA
ATOM      3  O   UNL     1       6.713   5.297  14.738  0.00  0.00    +0.000 OA
ENDROOT
BRANCH   1  11
ATOM      4  O   UNL     1       1.079   2.737  20.587  0.00  0.00    +0.000 OA
ATOM      5  C   UNL     1       1.354   3.744  19.919  0.00  0.00    +0.000 C 
ATOM      6  C   UNL     1       1.202   5.117  20.535  0.00  0.00    +0.000 C 
ATOM      7  C   UNL     1       2.246   6.168  20.203  0.00  0.00    +0.000 C 
ATOM      8  C   UNL     1       2.270   6.484  18.722  0.00  0.00    +0.000 C 
ATOM      9  C   UNL     1       3.097   5.467  17.998  0.00  0.00    +0.000 A 
ATOM     10  C   UNL     1       4.300   5.881  17.399  0.00  0.00    +0.000 A 
ATOM     11  C   UNL     1       5.142   4.956  16.776  0.00  0.00    +0.000 A 
ATOM     12  C   UNL     1       4.752   3.624  16.652  0.00  0.00    +0.000 A 
ATOM     13  C   UNL     1       3.534   3.215  17.205  0.00  0.00    +0.000 A 
ATOM     14  C   UNL     1       2.733   4.118  17.927  0.00  0.00    +0.000 A 
ATOM     15  N   UNL     1       1.618   3.564  18.593  0.00  0.00    +0.000 N 
ATOM     16  H   UNL     1       1.471   2.583  18.380  0.00  0.00    +0.000 HD
ENDBRANCH   1  11
BRANCH   1  17
ATOM     17  N   UNL     1       6.737   7.182  16.413  0.00  0.00    +0.000 N 
ATOM     18  H   UNL     1       5.764   7.489  16.456  0.00  0.00    +0.000 HD
BRANCH  17  19
ATOM     19  C   UNL     1       7.541   7.705  17.413  0.00  0.00    +0.000 A 
ATOM     20  C   UNL     1       7.882   9.017  17.618  0.00  0.00    +0.000 A 
ATOM     21  N   UNL     1       8.632   8.987  18.758  0.00  0.00    +0.000 N 
ATOM     22  N   UNL     1       8.755   7.729  19.226  0.00  0.00    +0.000 NA
ATOM     23  N   UNL     1       8.043   6.942  18.431  0.00  0.00    +0.000 NA
BRANCH  21  24
ATOM     24  C   UNL     1       9.193  10.111  19.489  0.00  0.00    +0.000 C 
BRANCH  24  25
ATOM     25  C   UNL     1       9.645  11.176  18.526  0.00  0.00    +0.000 A 
ATOM     26  C   UNL     1      10.971  11.199  18.070  0.00  0.00    +0.000 A 
ATOM     27  C   UNL     1      11.456  12.306  17.375  0.00  0.00    +0.000 A 
ATOM     28  C   UNL     1      10.614  13.382  17.103  0.00  0.00    +0.000 A 
ATOM     29  C   UNL     1       9.272  13.334  17.481  0.00  0.00    +0.000 A 
ATOM     30  C   UNL     1       8.787  12.233  18.186  0.00  0.00    +0.000 A 
ENDBRANCH  24  25
ENDBRANCH  21  24
ENDBRANCH  17  19
ENDBRANCH   1  17
TORSDOF 5
ENDMDL
MODEL 4
REMARK VINA RESULT:      -8.8      4.840      7.800
REMARK  Name = 
REMARK  5 active torsions:
REMARK  status: ('A' for Active; 'I' for Inactive)
REMARK    1  A    between atoms: C_8  and  S_9
REMARK    2  A    between atoms: S_9  and  N_12
REMARK    3  A    between atoms: N_12  and  C_13
REMARK    4  A    between atoms: N_15  and  C_16
REMARK    5  A    between atoms: C_16  and  C_17
REMARK                            x       y       z     vdW  Elec       q    Type
REMARK                         _______ _______ _______ _____ _____    ______ ____
ROOT
ATOM      1  S   UNL     1       1.982   5.039  20.456  0.00  0.00    +0.000 S 
ATOM      2  O   UNL     1       0.658   5.027  19.885  0.00  0.00    +0.000 OA
ATOM      3  O   UNL     1       2.286   4.338  21.689  0.00  0.00    +0.000 OA
ENDROOT
BRANCH   1  11
ATOM      4  O   UNL     1       6.226   4.276  14.106  0.00  0.00    +0.000 OA
ATOM      5  C   UNL     1       6.363   4.334  15.336  0.00  0.00    +0.000 C 
ATOM      6  C   UNL     1       7.378   5.282  15.935  0.00  0.00    +0.000 C 
ATOM      7  C   UNL     1       7.008   6.009  17.215  0.00  0.00    +0.000 C 
ATOM      8  C   UNL     1       6.764   5.043  18.356  0.00  0.00    +0.000 C 
ATOM      9  C   UNL     1       5.366   4.511  18.281  0.00  0.00    +0.000 A 
ATOM     10  C   UNL     1       4.459   4.857  19.298  0.00  0.00    +0.000 A 
ATOM     11  C   UNL     1       3.125   4.447  19.235  0.00  0.00    +0.000 A 
ATOM     12  C   UNL     1       2.698   3.602  18.211  0.00  0.00    +0.000 A 
ATOM     13  C   UNL     1       3.608   3.216  17.222  0.00  0.00    +0.000 A 
ATOM     14  C   UNL     1       4.923   3.713  17.221  0.00  0.00    +0.000 A 
ATOM     15  N   UNL     1       5.703   3.404  16.085  0.00  0.00    +0.000 N 
ATOM     16  H   UNL     1       5.243   2.764  15.445  0.00  0.00    +0.000 HD
ENDBRANCH   1  11
BRANCH   1  17
ATOM     17  N   UNL     1       2.414   6.663  20.722  0.00  0.00    +0.000 N 
ATOM     18  H   UNL     1       3.412   6.679  20.934  0.00  0.00    +0.000 HD
BRANCH  17  19
ATOM     19  C   UNL     1       2.016   7.617  19.799  0.00  0.00    +0.000 A 
ATOM     20  C   UNL     1       1.351   8.792  20.038  0.00  0.00    +0.000 A 
ATOM     21  N   UNL     1       1.262   9.375  18.807  0.00  0.00    +0.000 N 
ATOM     22  N   UNL     1       1.831   8.602  17.860  0.00  0.00    +0.000 NA
ATOM     23  N   UNL     1       2.341   7.542  18.473  0.00  0.00    +0.000 NA
BRANCH  21  24
ATOM     24  C   UNL     1       0.723  10.683  18.473  0.00  0.00    +0.000 C 
BRANCH  24  25
ATOM     25  C   UNL     1      -0.776  10.604  18.349  0.00  0.00    +0.000 A 
ATOM     26  C   UNL     1      -1.362   9.748  17.407  0.00  0.00    +0.000 A 
ATOM     27  C   UNL     1      -2.724   9.843  17.123  0.00  0.00    +0.000 A 
ATOM     28  C   UNL     1      -3.515  10.770  17.800  0.00  0.00    +0.000 A 
ATOM     29  C   UNL     1      -2.956  11.569  18.796  0.00  0.00    +0.000 A 
ATOM     30  C   UNL     1      -1.592  11.485  19.075  0.00  0.00    +0.000 A 
ENDBRANCH  24  25
ENDBRANCH  21  24
ENDBRANCH  17  19
ENDBRANCH   1  17
TORSDOF 5
ENDMDL
MODEL 5
REMARK VINA RESULT:      -8.7      3.561      7.224
REMARK  Name = 
REMARK  5 active torsions:
REMARK  status: ('A' for Active; 'I' for Inactive)
REMARK    1  A    between atoms: C_8  and  S_9
REMARK    2  A    between atoms: S_9  and  N_12
REMARK    3  A    between atoms: N_12  and  C_13
REMARK    4  A    between atoms: N_15  and  C_16
REMARK    5  A    between atoms: C_16  and  C_17
REMARK                            x       y       z     vdW  Elec       q    Type
REMARK                         _______ _______ _______ _____ _____    ______ ____
ROOT
ATOM      1  S   UNL     1       3.266   2.392  17.961  0.00  0.00    +0.000 S 
ATOM      2  O   UNL     1       1.996   2.648  17.327  0.00  0.00    +0.000 OA
ATOM      3  O   UNL     1       3.947   1.120  17.817  0.00  0.00    +0.000 OA
ENDROOT
BRANCH   1  11
ATOM      4  O   UNL     1       7.234   8.936  17.368  0.00  0.00    +0.000 OA
ATOM      5  C   UNL     1       7.427   7.722  17.517  0.00  0.00    +0.000 C 
ATOM      6  C   UNL     1       8.338   7.236  18.622  0.00  0.00    +0.000 C 
ATOM      7  C   UNL     1       7.943   5.976  19.371  0.00  0.00    +0.000 C 
ATOM      8  C   UNL     1       7.889   4.773  18.452  0.00  0.00    +0.000 C 
ATOM      9  C   UNL     1       6.571   4.735  17.741  0.00  0.00    +0.000 A 
ATOM     10  C   UNL     1       5.681   3.686  18.030  0.00  0.00    +0.000 A 
ATOM     11  C   UNL     1       4.411   3.647  17.448  0.00  0.00    +0.000 A 
ATOM     12  C   UNL     1       4.046   4.597  16.495  0.00  0.00    +0.000 A 
ATOM     13  C   UNL     1       4.945   5.617  16.170  0.00  0.00    +0.000 A 
ATOM     14  C   UNL     1       6.182   5.724  16.831  0.00  0.00    +0.000 A 
ATOM     15  N   UNL     1       6.935   6.887  16.557  0.00  0.00    +0.000 N 
ATOM     16  H   UNL     1       6.530   7.463  15.826  0.00  0.00    +0.000 HD
ENDBRANCH   1  11
BRANCH   1  17
ATOM     17  N   UNL     1       3.064   2.629  19.634  0.00  0.00    +0.000 N 
ATOM     18  H   UNL     1       3.981   2.515  20.067  0.00  0.00    +0.000 HD
BRANCH  17  19
ATOM     19  C   UNL     1       2.366   3.744  20.068  0.00  0.00    +0.000 A 
ATOM     20  C   UNL     1       2.875   4.959  20.451  0.00  0.00    +0.000 A 
ATOM     21  N   UNL     1       1.768   5.708  20.724  0.00  0.00    +0.000 N 
ATOM     22  N   UNL     1       0.639   4.996  20.529  0.00  0.00    +0.000 NA
ATOM     23  N   UNL     1       1.000   3.803  20.077  0.00  0.00    +0.000 NA
BRANCH  21  24
ATOM     24  C   UNL     1       1.707   7.112  21.097  0.00  0.00    +0.000 C 
BRANCH  24  25
ATOM     25  C   UNL     1       1.652   7.969  19.861  0.00  0.00    +0.000 A 
ATOM     26  C   UNL     1       2.344   7.584  18.703  0.00  0.00    +0.000 A 
ATOM     27  C   UNL     1       2.494   8.478  17.645  0.00  0.00    +0.000 A 
ATOM     28  C   UNL     1       1.930   9.750  17.720  0.00  0.00    +0.000 A 
ATOM     29  C   UNL     1       1.172  10.114  18.833  0.00  0.00    +0.000 A 
ATOM     30  C   UNL     1       1.028   9.226  19.898  0.00  0.00    +0.000 A 
ENDBRANCH  24  25
ENDBRANCH  21  24
ENDBRANCH  17  19
ENDBRANCH   1  17
TORSDOF 5
ENDMDL
MODEL 6
REMARK VINA RESULT:      -8.6      5.209      7.334
REMARK  Name = 
REMARK  5 active torsions:
REMARK  status: ('A' for Active; 'I' for Inactive)
REMARK    1  A    between atoms: C_8  and  S_9
REMARK    2  A    between atoms: S_9  and  N_12
REMARK    3  A    between atoms: N_12  and  C_13
REMARK    4  A    between atoms: N_15  and  C_16
REMARK    5  A    between atoms: C_16  and  C_17
REMARK                            x       y       z     vdW  Elec       q    Type
REMARK                         _______ _______ _______ _____ _____    ______ ____
ROOT
ATOM      1  S   UNL     1       2.309   5.538  19.619  0.00  0.00    +0.000 S 
ATOM      2  O   UNL     1       3.575   5.297  20.266  0.00  0.00    +0.000 OA
ATOM      3  O   UNL     1       1.133   4.747  19.925  0.00  0.00    +0.000 OA
ENDROOT
BRANCH   1  11
ATOM      4  O   UNL     1      -1.639  12.070  20.441  0.00  0.00    +0.000 OA
ATOM      5  C   UNL     1      -0.804  11.384  21.048  0.00  0.00    +0.000 C 
ATOM      6  C   UNL     1      -1.038  11.027  22.499  0.00  0.00    +0.000 C 
ATOM      7  C   UNL     1      -0.642   9.638  22.965  0.00  0.00    +0.000 C 
ATOM      8  C   UNL     1       0.847   9.402  22.815  0.00  0.00    +0.000 C 
ATOM      9  C   UNL     1       1.158   8.993  21.408  0.00  0.00    +0.000 A 
ATOM     10  C   UNL     1       1.631   7.690  21.175  0.00  0.00    +0.000 A 
ATOM     11  C   UNL     1       1.865   7.237  19.874  0.00  0.00    +0.000 A 
ATOM     12  C   UNL     1       1.728   8.107  18.794  0.00  0.00    +0.000 A 
ATOM     13  C   UNL     1       1.303   9.419  19.024  0.00  0.00    +0.000 A 
ATOM     14  C   UNL     1       0.962   9.848  20.319  0.00  0.00    +0.000 A 
ATOM     15  N   UNL     1       0.377  11.130  20.415  0.00  0.00    +0.000 N 
ATOM     16  H   UNL     1       0.369  11.634  19.534  0.00  0.00    +0.000 HD
ENDBRANCH   1  11
BRANCH   1  17
ATOM     17  N   UNL     1       2.552   5.388  17.941  0.00  0.00    +0.000 N 
ATOM     18  H   UNL     1       1.865   5.988  17.483  0.00  0.00    +0.000 HD
BRANCH  17  19
ATOM     19  C   UNL     1       3.838   5.512  17.441  0.00  0.00    +0.000 A 
ATOM     20  C   UNL     1       4.708   4.509  17.099  0.00  0.00    +0.000 A 
ATOM     21  N   UNL     1       5.797   5.172  16.612  0.00  0.00    +0.000 N 
ATOM     22  N   UNL     1       5.615   6.507  16.658  0.00  0.00    +0.000 NA
ATOM     23  N   UNL     1       4.391   6.721  17.120  0.00  0.00    +0.000 NA
BRANCH  21  24
ATOM     24  C   UNL     1       7.000   4.605  16.024  0.00  0.00    +0.000 C 
BRANCH  24  25
ATOM     25  C   UNL     1       6.869   4.563  14.525  0.00  0.00    +0.000 A 
ATOM     26  C   UNL     1       5.998   3.646  13.918  0.00  0.00    +0.000 A 
ATOM     27  C   UNL     1       6.047   3.438  12.541  0.00  0.00    +0.000 A 
ATOM     28  C   UNL     1       6.940   4.164  11.756  0.00  0.00    +0.000 A 
ATOM     29  C   UNL     1       7.752   5.136  12.339  0.00  0.00    +0.000 A 
ATOM     30  C   UNL     1       7.715   5.339  13.719  0.00  0.00    +0.000 A 
ENDBRANCH  24  25
ENDBRANCH  21  24
ENDBRANCH  17  19
ENDBRANCH   1  17
TORSDOF 5
ENDMDL
MODEL 7
REMARK VINA RESULT:      -8.5      4.431      6.852
REMARK  Name = 
REMARK  5 active torsions:
REMARK  status: ('A' for Active; 'I' for Inactive)
REMARK    1  A    between atoms: C_8  and  S_9
REMARK    2  A    between atoms: S_9  and  N_12
REMARK    3  A    between atoms: N_12  and  C_13
REMARK    4  A    between atoms: N_15  and  C_16
REMARK    5  A    between atoms: C_16  and  C_17
REMARK                            x       y       z     vdW  Elec       q    Type
REMARK                         _______ _______ _______ _____ _____    ______ ____
ROOT
ATOM      1  S   UNL     1       2.141   5.674  19.806  0.00  0.00    +0.000 S 
ATOM      2  O   UNL     1       3.518   5.508  20.201  0.00  0.00    +0.000 OA
ATOM      3  O   UNL     1       1.048   5.238  20.653  0.00  0.00    +0.000 OA
ENDROOT
BRANCH   1  11
ATOM      4  O   UNL     1      -1.097  12.362  17.877  0.00  0.00    +0.000 OA
ATOM      5  C   UNL     1      -0.457  11.852  18.808  0.00  0.00    +0.000 C 
ATOM      6  C   UNL     1      -0.963  11.984  20.227  0.00  0.00    +0.000 C 
ATOM      7  C   UNL     1      -0.812  10.791  21.153  0.00  0.00    +0.000 C 
ATOM      8  C   UNL     1       0.643  10.429  21.366  0.00  0.00    +0.000 C 
ATOM      9  C   UNL     1       1.128   9.580  20.231  0.00  0.00    +0.000 A 
ATOM     10  C   UNL     1       1.476   8.243  20.492  0.00  0.00    +0.000 A 
ATOM     11  C   UNL     1       1.863   7.391  19.454  0.00  0.00    +0.000 A 
ATOM     12  C   UNL     1       2.006   7.884  18.158  0.00  0.00    +0.000 A 
ATOM     13  C   UNL     1       1.705   9.225  17.901  0.00  0.00    +0.000 A 
ATOM     14  C   UNL     1       1.212  10.060  18.920  0.00  0.00    +0.000 A 
ATOM     15  N   UNL     1       0.773  11.340  18.516  0.00  0.00    +0.000 N 
ATOM     16  H   UNL     1       0.967  11.541  17.541  0.00  0.00    +0.000 HD
ENDBRANCH   1  11
BRANCH   1  17
ATOM     17  N   UNL     1       1.931   4.874  18.319  0.00  0.00    +0.000 N 
ATOM     18  H   UNL     1       1.337   5.467  17.739  0.00  0.00    +0.000 HD
BRANCH  17  19
ATOM     19  C   UNL     1       3.049   4.380  17.666  0.00  0.00    +0.000 A 
ATOM     20  C   UNL     1       4.116   5.086  17.172  0.00  0.00    +0.000 A 
ATOM     21  N   UNL     1       4.951   4.122  16.688  0.00  0.00    +0.000 N 
ATOM     22  N   UNL     1       4.429   2.892  16.863  0.00  0.00    +0.000 NA
ATOM     23  N   UNL     1       3.281   3.041  17.510  0.00  0.00    +0.000 NA
BRANCH  21  24
ATOM     24  C   UNL     1       6.279   4.292  16.119  0.00  0.00    +0.000 C 
BRANCH  24  25
ATOM     25  C   UNL     1       7.074   5.262  16.953  0.00  0.00    +0.000 A 
ATOM     26  C   UNL     1       7.606   4.861  18.187  0.00  0.00    +0.000 A 
ATOM     27  C   UNL     1       8.132   5.807  19.065  0.00  0.00    +0.000 A 
ATOM     28  C   UNL     1       8.159   7.153  18.706  0.00  0.00    +0.000 A 
ATOM     29  C   UNL     1       7.707   7.551  17.449  0.00  0.00    +0.000 A 
ATOM     30  C   UNL     1       7.170   6.609  16.572  0.00  0.00    +0.000 A 
ENDBRANCH  24  25
ENDBRANCH  21  24
ENDBRANCH  17  19
ENDBRANCH   1  17
TORSDOF 5
ENDMDL
MODEL 8
REMARK VINA RESULT:      -8.5      4.270      6.762
REMARK  Name = 
REMARK  5 active torsions:
REMARK  status: ('A' for Active; 'I' for Inactive)
REMARK    1  A    between atoms: C_8  and  S_9
REMARK    2  A    between atoms: S_9  and  N_12
REMARK    3  A    between atoms: N_12  and  C_13
REMARK    4  A    between atoms: N_15  and  C_16
REMARK    5  A    between atoms: C_16  and  C_17
REMARK                            x       y       z     vdW  Elec       q    Type
REMARK                         _______ _______ _______ _____ _____    ______ ____
ROOT
ATOM      1  S   UNL     1       2.030   5.248  19.978  0.00  0.00    +0.000 S 
ATOM      2  O   UNL     1       3.389   4.977  20.376  0.00  0.00    +0.000 OA
ATOM      3  O   UNL     1       0.904   4.594  20.616  0.00  0.00    +0.000 OA
ENDROOT
BRANCH   1  11
ATOM      4  O   UNL     1      -1.265  12.179  20.112  0.00  0.00    +0.000 OA
ATOM      5  C   UNL     1      -0.557  11.453  20.823  0.00  0.00    +0.000 C 
ATOM      6  C   UNL     1      -0.940  11.212  22.266  0.00  0.00    +0.000 C 
ATOM      7  C   UNL     1      -0.730   9.822  22.838  0.00  0.00    +0.000 C 
ATOM      8  C   UNL     1       0.734   9.429  22.827  0.00  0.00    +0.000 C 
ATOM      9  C   UNL     1       1.110   8.904  21.476  0.00  0.00    +0.000 A 
ATOM     10  C   UNL     1       1.460   7.549  21.353  0.00  0.00    +0.000 A 
ATOM     11  C   UNL     1       1.747   6.995  20.103  0.00  0.00    +0.000 A 
ATOM     12  C   UNL     1       1.788   7.805  18.969  0.00  0.00    +0.000 A 
ATOM     13  C   UNL     1       1.485   9.165  19.092  0.00  0.00    +0.000 A 
ATOM     14  C   UNL     1       1.091   9.706  20.329  0.00  0.00    +0.000 A 
ATOM     15  N   UNL     1       0.637  11.043  20.307  0.00  0.00    +0.000 N 
ATOM     16  H   UNL     1       0.751  11.490  19.403  0.00  0.00    +0.000 HD
ENDBRANCH   1  11
BRANCH   1  17
ATOM     17  N   UNL     1       1.899   4.892  18.319  0.00  0.00    +0.000 N 
ATOM     18  H   UNL     1       1.414   5.676  17.880  0.00  0.00    +0.000 HD
BRANCH  17  19
ATOM     19  C   UNL     1       3.030   4.473  17.637  0.00  0.00    +0.000 A 
ATOM     20  C   UNL     1       4.031   5.248  17.111  0.00  0.00    +0.000 A 
ATOM     21  N   UNL     1       4.918   4.341  16.607  0.00  0.00    +0.000 N 
ATOM     22  N   UNL     1       4.487   3.079  16.803  0.00  0.00    +0.000 NA
ATOM     23  N   UNL     1       3.350   3.152  17.481  0.00  0.00    +0.000 NA
BRANCH  21  24
ATOM     24  C   UNL     1       6.215   4.598  16.001  0.00  0.00    +0.000 C 
BRANCH  24  25
ATOM     25  C   UNL     1       7.046   5.459  16.915  0.00  0.00    +0.000 A 
ATOM     26  C   UNL     1       7.542   4.937  18.119  0.00  0.00    +0.000 A 
ATOM     27  C   UNL     1       8.103   5.784  19.073  0.00  0.00    +0.000 A 
ATOM     28  C   UNL     1       8.203   7.151  18.821  0.00  0.00    +0.000 A 
ATOM     29  C   UNL     1       7.788   7.667  17.594  0.00  0.00    +0.000 A 
ATOM     30  C   UNL     1       7.215   6.824  16.641  0.00  0.00    +0.000 A 
ENDBRANCH  24  25
ENDBRANCH  21  24
ENDBRANCH  17  19
ENDBRANCH   1  17
TORSDOF 5
ENDMDL
MODEL 9
REMARK VINA RESULT:      -8.5      4.628      7.538
REMARK  Name = 
REMARK  5 active torsions:
REMARK  status: ('A' for Active; 'I' for Inactive)
REMARK    1  A    between atoms: C_8  and  S_9
REMARK    2  A    between atoms: S_9  and  N_12
REMARK    3  A    between atoms: N_12  and  C_13
REMARK    4  A    between atoms: N_15  and  C_16
REMARK    5  A    between atoms: C_16  and  C_17
REMARK                            x       y       z     vdW  Elec       q    Type
REMARK                         _______ _______ _______ _____ _____    ______ ____
ROOT
ATOM      1  S   UNL     1       1.928   4.347  20.506  0.00  0.00    +0.000 S 
ATOM      2  O   UNL     1       0.663   4.516  19.834  0.00  0.00    +0.000 OA
ATOM      3  O   UNL     1       2.129   3.311  21.500  0.00  0.00    +0.000 OA
ENDROOT
BRANCH   1  11
ATOM      4  O   UNL     1       6.536   5.302  14.441  0.00  0.00    +0.000 OA
ATOM      5  C   UNL     1       6.605   5.131  15.666  0.00  0.00    +0.000 C 
ATOM      6  C   UNL     1       7.471   6.045  16.504  0.00  0.00    +0.000 C 
ATOM      7  C   UNL     1       6.957   6.462  17.870  0.00  0.00    +0.000 C 
ATOM      8  C   UNL     1       6.773   5.270  18.786  0.00  0.00    +0.000 C 
ATOM      9  C   UNL     1       5.452   4.618  18.514  0.00  0.00    +0.000 A 
ATOM     10  C   UNL     1       4.462   4.660  19.511  0.00  0.00    +0.000 A 
ATOM     11  C   UNL     1       3.190   4.131  19.277  0.00  0.00    +0.000 A 
ATOM     12  C   UNL     1       2.916   3.464  18.085  0.00  0.00    +0.000 A 
ATOM     13  C   UNL     1       3.912   3.379  17.106  0.00  0.00    +0.000 A 
ATOM     14  C   UNL     1       5.158   4.002  17.292  0.00  0.00    +0.000 A 
ATOM     15  N   UNL     1       6.023   4.008  16.176  0.00  0.00    +0.000 N 
ATOM     16  H   UNL     1       5.673   3.461  15.396  0.00  0.00    +0.000 HD
ENDBRANCH   1  11
BRANCH   1  17
ATOM     17  N   UNL     1       2.302   5.816  21.277  0.00  0.00    +0.000 N 
ATOM     18  H   UNL     1       3.293   5.786  21.519  0.00  0.00    +0.000 HD
BRANCH  17  19
ATOM     19  C   UNL     1       1.900   7.002  20.682  0.00  0.00    +0.000 A 
ATOM     20  C   UNL     1       2.208   7.459  19.427  0.00  0.00    +0.000 A 
ATOM     21  N   UNL     1       1.516   8.631  19.326  0.00  0.00    +0.000 N 
ATOM     22  N   UNL     1       0.827   8.888  20.455  0.00  0.00    +0.000 NA
ATOM     23  N   UNL     1       1.020   7.864  21.275  0.00  0.00    +0.000 NA
BRANCH  21  24
ATOM     24  C   UNL     1       1.406   9.509  18.172  0.00  0.00    +0.000 C 
BRANCH  24  25
ATOM     25  C   UNL     1       0.091  10.240  18.207  0.00  0.00    +0.000 A 
ATOM     26  C   UNL     1      -1.053   9.663  17.636  0.00  0.00    +0.000 A 
ATOM     27  C   UNL     1      -2.206  10.425  17.453  0.00  0.00    +0.000 A 
ATOM     28  C   UNL     1      -2.237  11.755  17.866  0.00  0.00    +0.000 A 
ATOM     29  C   UNL     1      -1.132  12.314  18.507  0.00  0.00    +0.000 A 
ATOM     30  C   UNL     1       0.027  11.559  18.682  0.00  0.00    +0.000 A 
ENDBRANCH  24  25
ENDBRANCH  21  24
ENDBRANCH  17  19
ENDBRANCH   1  17
TORSDOF 5
ENDMDL
