MODEL 1
REMARK VINA RESULT:      -8.5      0.000      0.000
REMARK  Name = 
REMARK  2 active torsions:
REMARK  status: ('A' for Active; 'I' for Inactive)
REMARK    1  A    between atoms: N_5  and  C_6
REMARK    2  A    between atoms: C_6  and  C_7
REMARK                            x       y       z     vdW  Elec       q    Type
REMARK                         _______ _______ _______ _____ _____    ______ ____
ROOT
ATOM      1  C   UNL     1       2.294   6.076  19.463  0.00  0.00    +0.000 C 
ATOM      2  C   UNL     1       2.143   6.664  18.054  0.00  0.00    +0.000 C 
ATOM      3  C   UNL     1       2.256   8.171  18.219  0.00  0.00    +0.000 C 
ATOM      4  N   UNL     1       1.796   8.401  19.574  0.00  0.00    +0.000 N 
ATOM      5  C   UNL     1       1.187   9.575  19.994  0.00  0.00    +0.000 A 
ATOM      6  N   UNL     1       1.003  10.543  19.122  0.00  0.00    +0.000 NA
ATOM      7  C   UNL     1       0.350  11.743  19.489  0.00  0.00    +0.000 A 
ATOM      8  C   UNL     1       0.155  12.734  18.529  0.00  0.00    +0.000 A 
ATOM      9  C   UNL     1      -0.503  13.926  18.861  0.00  0.00    +0.000 A 
ATOM     10  C   UNL     1      -0.972  14.138  20.161  0.00  0.00    +0.000 A 
ATOM     11  C   UNL     1      -0.792  13.162  21.137  0.00  0.00    +0.000 A 
ATOM     12  C   UNL     1      -0.136  11.984  20.781  0.00  0.00    +0.000 A 
ATOM     13  N   UNL     1       0.080  10.951  21.683  0.00  0.00    +0.000 N 
ATOM     14  N   UNL     1      -0.287  10.906  22.974  0.00  0.00    +0.000 NA
ATOM     15  N   UNL     1       0.134   9.723  23.407  0.00  0.00    +0.000 NA
ATOM     16  N   UNL     1       0.770   9.022  22.404  0.00  0.00    +0.000 NA
ATOM     17  C   UNL     1       0.714   9.798  21.343  0.00  0.00    +0.000 A 
ATOM     18  C   UNL     1       2.088   7.253  20.422  0.00  0.00    +0.000 C 
ENDROOT
BRANCH   1  19
ATOM     19  C   UNL     1       3.620   5.342  19.698  0.00  0.00    +0.000 C 
BRANCH  19  24
ATOM     20  C   UNL     1       7.075   4.359  16.038  0.00  0.00    +0.000 A 
ATOM     21  C   UNL     1       7.308   4.694  17.364  0.00  0.00    +0.000 A 
ATOM     22  C   UNL     1       6.235   4.764  18.253  0.00  0.00    +0.000 A 
ATOM     23  C   UNL     1       4.954   4.500  17.786  0.00  0.00    +0.000 A 
ATOM     24  N   UNL     1       3.837   4.430  18.588  0.00  0.00    +0.000 N 
ATOM     25  N   UNL     1       4.716   4.192  16.496  0.00  0.00    +0.000 NA
ATOM     26  C   UNL     1       5.769   4.123  15.654  0.00  0.00    +0.000 A 
ATOM     27  H   UNL     1       3.055   4.313  17.947  0.00  0.00    +0.000 HD
ENDBRANCH  19  24
ENDBRANCH   1  19
TORSDOF 2
ENDMDL
MODEL 2
REMARK VINA RESULT:      -8.4      2.575      8.366
REMARK  Name = 
REMARK  2 active torsions:
REMARK  status: ('A' for Active; 'I' for Inactive)
REMARK    1  A    between atoms: N_5  and  C_6
REMARK    2  A    between atoms: C_6  and  C_7
REMARK                            x       y       z     vdW  Elec       q    Type
REMARK                         _______ _______ _______ _____ _____    ______ ____
ROOT
ATOM      1  C   UNL     1       0.695  10.583  19.964  0.00  0.00    +0.000 C 
ATOM      2  C   UNL     1       1.566  11.180  18.851  0.00  0.00    +0.000 C 
ATOM      3  C   UNL     1       1.882  10.030  17.909  0.00  0.00    +0.000 C 
ATOM      4  N   UNL     1       1.820   8.861  18.765  0.00  0.00    +0.000 N 
ATOM      5  C   UNL     1       2.553   7.704  18.545  0.00  0.00    +0.000 A 
ATOM      6  N   UNL     1       3.362   7.651  17.508  0.00  0.00    +0.000 NA
ATOM      7  C   UNL     1       4.162   6.510  17.264  0.00  0.00    +0.000 A 
ATOM      8  C   UNL     1       5.022   6.503  16.167  0.00  0.00    +0.000 A 
ATOM      9  C   UNL     1       5.838   5.393  15.910  0.00  0.00    +0.000 A 
ATOM     10  C   UNL     1       5.800   4.276  16.751  0.00  0.00    +0.000 A 
ATOM     11  C   UNL     1       4.951   4.260  17.854  0.00  0.00    +0.000 A 
ATOM     12  C   UNL     1       4.151   5.378  18.089  0.00  0.00    +0.000 A 
ATOM     13  N   UNL     1       3.282   5.457  19.169  0.00  0.00    +0.000 N 
ATOM     14  N   UNL     1       3.078   4.531  20.120  0.00  0.00    +0.000 NA
ATOM     15  N   UNL     1       2.169   5.066  20.927  0.00  0.00    +0.000 NA
ATOM     16  N   UNL     1       1.791   6.320  20.493  0.00  0.00    +0.000 NA
ATOM     17  C   UNL     1       2.503   6.544  19.408  0.00  0.00    +0.000 A 
ATOM     18  C   UNL     1       0.871   9.064  19.850  0.00  0.00    +0.000 C 
ENDROOT
BRANCH   1  19
ATOM     19  C   UNL     1      -0.775  11.018  19.914  0.00  0.00    +0.000 C 
BRANCH  19  24
ATOM     20  C   UNL     1      -4.773  11.440  16.731  0.00  0.00    +0.000 A 
ATOM     21  C   UNL     1      -4.725  11.738  18.086  0.00  0.00    +0.000 A 
ATOM     22  C   UNL     1      -3.498  11.714  18.751  0.00  0.00    +0.000 A 
ATOM     23  C   UNL     1      -2.352  11.387  18.039  0.00  0.00    +0.000 A 
ATOM     24  N   UNL     1      -1.077  11.438  18.557  0.00  0.00    +0.000 N 
ATOM     25  N   UNL     1      -2.392  11.078  16.727  0.00  0.00    +0.000 NA
ATOM     26  C   UNL     1      -3.588  11.113  16.102  0.00  0.00    +0.000 A 
ATOM     27  H   UNL     1      -0.477  11.060  17.828  0.00  0.00    +0.000 HD
ENDBRANCH  19  24
ENDBRANCH   1  19
TORSDOF 2
ENDMDL
MODEL 3
REMARK VINA RESULT:      -8.3      0.964      1.224
REMARK  Name = 
REMARK  2 active torsions:
REMARK  status: ('A' for Active; 'I' for Inactive)
REMARK    1  A    between atoms: N_5  and  C_6
REMARK    2  A    between atoms: C_6  and  C_7
REMARK                            x       y       z     vdW  Elec       q    Type
REMARK                         _______ _______ _______ _____ _____    ______ ____
ROOT
ATOM      1  C   UNL     1       2.016   5.627  19.587  0.00  0.00    +0.000 C 
ATOM      2  C   UNL     1       2.013   6.186  18.159  0.00  0.00    +0.000 C 
ATOM      3  C   UNL     1       2.322   7.669  18.293  0.00  0.00    +0.000 C 
ATOM      4  N   UNL     1       1.833   8.000  19.618  0.00  0.00    +0.000 N 
ATOM      5  C   UNL     1       1.371   9.257  19.977  0.00  0.00    +0.000 A 
ATOM      6  N   UNL     1       1.362  10.214  19.074  0.00  0.00    +0.000 NA
ATOM      7  C   UNL     1       0.861  11.502  19.379  0.00  0.00    +0.000 A 
ATOM      8  C   UNL     1       0.849  12.481  18.387  0.00  0.00    +0.000 A 
ATOM      9  C   UNL     1       0.344  13.760  18.656  0.00  0.00    +0.000 A 
ATOM     10  C   UNL     1      -0.153  14.073  19.926  0.00  0.00    +0.000 A 
ATOM     11  C   UNL     1      -0.154  13.112  20.932  0.00  0.00    +0.000 A 
ATOM     12  C   UNL     1       0.352  11.845  20.638  0.00  0.00    +0.000 A 
ATOM     13  N   UNL     1       0.383  10.821  21.574  0.00  0.00    +0.000 N 
ATOM     14  N   UNL     1      -0.048  10.866  22.845  0.00  0.00    +0.000 NA
ATOM     15  N   UNL     1       0.187   9.650  23.328  0.00  0.00    +0.000 NA
ATOM     16  N   UNL     1       0.769   8.839  22.376  0.00  0.00    +0.000 NA
ATOM     17  C   UNL     1       0.869   9.583  21.295  0.00  0.00    +0.000 A 
ATOM     18  C   UNL     1       1.926   6.850  20.506  0.00  0.00    +0.000 C 
ENDROOT
BRANCH   1  19
ATOM     19  C   UNL     1       3.217   4.728  19.907  0.00  0.00    +0.000 C 
BRANCH  19  24
ATOM     20  C   UNL     1       7.458   4.683  17.026  0.00  0.00    +0.000 A 
ATOM     21  C   UNL     1       6.160   4.381  16.639  0.00  0.00    +0.000 A 
ATOM     22  C   UNL     1       5.109   4.609  17.528  0.00  0.00    +0.000 A 
ATOM     23  C   UNL     1       5.389   5.131  18.784  0.00  0.00    +0.000 A 
ATOM     24  N   UNL     1       4.429   5.500  19.700  0.00  0.00    +0.000 N 
ATOM     25  N   UNL     1       6.648   5.410  19.174  0.00  0.00    +0.000 NA
ATOM     26  C   UNL     1       7.650   5.188  18.297  0.00  0.00    +0.000 A 
ATOM     27  H   UNL     1       4.946   5.755  20.539  0.00  0.00    +0.000 HD
ENDBRANCH  19  24
ENDBRANCH   1  19
TORSDOF 2
ENDMDL
MODEL 4
REMARK VINA RESULT:      -8.2      1.913      3.191
REMARK  Name = 
REMARK  2 active torsions:
REMARK  status: ('A' for Active; 'I' for Inactive)
REMARK    1  A    between atoms: N_5  and  C_6
REMARK    2  A    between atoms: C_6  and  C_7
REMARK                            x       y       z     vdW  Elec       q    Type
REMARK                         _______ _______ _______ _____ _____    ______ ____
ROOT
ATOM      1  C   UNL     1       3.501   4.795  19.168  0.00  0.00    +0.000 C 
ATOM      2  C   UNL     1       3.072   4.494  20.610  0.00  0.00    +0.000 C 
ATOM      3  C   UNL     1       1.822   5.325  20.853  0.00  0.00    +0.000 C 
ATOM      4  N   UNL     1       1.981   6.450  19.952  0.00  0.00    +0.000 N 
ATOM      5  C   UNL     1       1.447   7.709  20.189  0.00  0.00    +0.000 A 
ATOM      6  N   UNL     1       0.761   7.912  21.293  0.00  0.00    +0.000 NA
ATOM      7  C   UNL     1       0.232   9.188  21.601  0.00  0.00    +0.000 A 
ATOM      8  C   UNL     1      -0.469   9.365  22.792  0.00  0.00    +0.000 A 
ATOM      9  C   UNL     1      -0.990  10.622  23.130  0.00  0.00    +0.000 A 
ATOM     10  C   UNL     1      -0.815  11.715  22.275  0.00  0.00    +0.000 A 
ATOM     11  C   UNL     1      -0.116  11.563  21.081  0.00  0.00    +0.000 A 
ATOM     12  C   UNL     1       0.395  10.303  20.769  0.00  0.00    +0.000 A 
ATOM     13  N   UNL     1       1.113  10.058  19.606  0.00  0.00    +0.000 N 
ATOM     14  N   UNL     1       1.428  10.939  18.643  0.00  0.00    +0.000 NA
ATOM     15  N   UNL     1       2.119  10.237  17.752  0.00  0.00    +0.000 NA
ATOM     16  N   UNL     1       2.240   8.919  18.140  0.00  0.00    +0.000 NA
ATOM     17  C   UNL     1       1.618   8.835  19.297  0.00  0.00    +0.000 A 
ATOM     18  C   UNL     1       2.741   6.065  18.771  0.00  0.00    +0.000 C 
ENDROOT
BRANCH   1  19
ATOM     19  C   UNL     1       3.275   3.635  18.191  0.00  0.00    +0.000 C 
BRANCH  19  24
ATOM     20  C   UNL     1       6.320   5.149  14.352  0.00  0.00    +0.000 A 
ATOM     21  C   UNL     1       5.593   5.943  15.229  0.00  0.00    +0.000 A 
ATOM     22  C   UNL     1       4.948   5.350  16.316  0.00  0.00    +0.000 A 
ATOM     23  C   UNL     1       5.048   3.977  16.493  0.00  0.00    +0.000 A 
ATOM     24  N   UNL     1       4.551   3.299  17.583  0.00  0.00    +0.000 N 
ATOM     25  N   UNL     1       5.736   3.197  15.636  0.00  0.00    +0.000 NA
ATOM     26  C   UNL     1       6.357   3.790  14.594  0.00  0.00    +0.000 A 
ATOM     27  H   UNL     1       4.700   2.314  17.376  0.00  0.00    +0.000 HD
ENDBRANCH  19  24
ENDBRANCH   1  19
TORSDOF 2
ENDMDL
MODEL 5
REMARK VINA RESULT:      -8.1      2.174      3.013
REMARK  Name = 
REMARK  2 active torsions:
REMARK  status: ('A' for Active; 'I' for Inactive)
REMARK    1  A    between atoms: N_5  and  C_6
REMARK    2  A    between atoms: C_6  and  C_7
REMARK                            x       y       z     vdW  Elec       q    Type
REMARK                         _______ _______ _______ _____ _____    ______ ____
ROOT
ATOM      1  C   UNL     1       2.129   7.385  18.692  0.00  0.00    +0.000 C 
ATOM      2  C   UNL     1       1.869   8.280  17.473  0.00  0.00    +0.000 C 
ATOM      3  C   UNL     1       1.891   9.708  17.995  0.00  0.00    +0.000 C 
ATOM      4  N   UNL     1       1.484   9.570  19.380  0.00  0.00    +0.000 N 
ATOM      5  C   UNL     1       0.822  10.560  20.091  0.00  0.00    +0.000 A 
ATOM      6  N   UNL     1       0.531  11.692  19.486  0.00  0.00    +0.000 NA
ATOM      7  C   UNL     1      -0.181  12.716  20.154  0.00  0.00    +0.000 A 
ATOM      8  C   UNL     1      -0.488  13.891  19.470  0.00  0.00    +0.000 A 
ATOM      9  C   UNL     1      -1.205  14.915  20.102  0.00  0.00    +0.000 A 
ATOM     10  C   UNL     1      -1.623  14.773  21.430  0.00  0.00    +0.000 A 
ATOM     11  C   UNL     1      -1.330  13.608  22.133  0.00  0.00    +0.000 A 
ATOM     12  C   UNL     1      -0.617  12.603  21.481  0.00  0.00    +0.000 A 
ATOM     13  N   UNL     1      -0.288  11.403  22.098  0.00  0.00    +0.000 N 
ATOM     14  N   UNL     1      -0.588  11.023  23.351  0.00  0.00    +0.000 NA
ATOM     15  N   UNL     1      -0.068   9.806  23.471  0.00  0.00    +0.000 NA
ATOM     16  N   UNL     1       0.562   9.416  22.308  0.00  0.00    +0.000 NA
ATOM     17  C   UNL     1       0.402  10.417  21.468  0.00  0.00    +0.000 A 
ATOM     18  C   UNL     1       1.893   8.279  19.914  0.00  0.00    +0.000 C 
ENDROOT
BRANCH   1  19
ATOM     19  C   UNL     1       3.510   6.718  18.699  0.00  0.00    +0.000 C 
BRANCH  19  24
ATOM     20  C   UNL     1       1.146   2.483  20.364  0.00  0.00    +0.000 A 
ATOM     21  C   UNL     1       1.506   2.804  19.062  0.00  0.00    +0.000 A 
ATOM     22  C   UNL     1       2.292   3.933  18.827  0.00  0.00    +0.000 A 
ATOM     23  C   UNL     1       2.692   4.713  19.904  0.00  0.00    +0.000 A 
ATOM     24  N   UNL     1       3.556   5.781  19.808  0.00  0.00    +0.000 N 
ATOM     25  N   UNL     1       2.331   4.419  21.169  0.00  0.00    +0.000 NA
ATOM     26  C   UNL     1       1.576   3.319  21.375  0.00  0.00    +0.000 A 
ATOM     27  H   UNL     1       3.577   6.192  20.739  0.00  0.00    +0.000 HD
ENDBRANCH  19  24
ENDBRANCH   1  19
TORSDOF 2
ENDMDL
MODEL 6
REMARK VINA RESULT:      -8.1      0.952      1.033
REMARK  Name = 
REMARK  2 active torsions:
REMARK  status: ('A' for Active; 'I' for Inactive)
REMARK    1  A    between atoms: N_5  and  C_6
REMARK    2  A    between atoms: C_6  and  C_7
REMARK                            x       y       z     vdW  Elec       q    Type
REMARK                         _______ _______ _______ _____ _____    ______ ____
ROOT
ATOM      1  C   UNL     1       2.064   5.910  19.599  0.00  0.00    +0.000 C 
ATOM      2  C   UNL     1       1.973   6.492  18.183  0.00  0.00    +0.000 C 
ATOM      3  C   UNL     1       2.180   7.991  18.336  0.00  0.00    +0.000 C 
ATOM      4  N   UNL     1       1.713   8.262  19.682  0.00  0.00    +0.000 N 
ATOM      5  C   UNL     1       1.175   9.477  20.081  0.00  0.00    +0.000 A 
ATOM      6  N   UNL     1       1.066  10.446  19.197  0.00  0.00    +0.000 NA
ATOM      7  C   UNL     1       0.485  11.689  19.543  0.00  0.00    +0.000 A 
ATOM      8  C   UNL     1       0.370  12.681  18.571  0.00  0.00    +0.000 A 
ATOM      9  C   UNL     1      -0.216  13.916  18.881  0.00  0.00    +0.000 A 
ATOM     10  C   UNL     1      -0.692  14.171  20.172  0.00  0.00    +0.000 A 
ATOM     11  C   UNL     1      -0.589  13.195  21.159  0.00  0.00    +0.000 A 
ATOM     12  C   UNL     1      -0.004  11.973  20.824  0.00  0.00    +0.000 A 
ATOM     13  N   UNL     1       0.131  10.938  21.739  0.00  0.00    +0.000 N 
ATOM     14  N   UNL     1      -0.259  10.930  23.024  0.00  0.00    +0.000 NA
ATOM     15  N   UNL     1       0.079   9.726  23.475  0.00  0.00    +0.000 NA
ATOM     16  N   UNL     1       0.684   8.976  22.489  0.00  0.00    +0.000 NA
ATOM     17  C   UNL     1       0.695   9.744  21.420  0.00  0.00    +0.000 A 
ATOM     18  C   UNL     1       1.918   7.107  20.544  0.00  0.00    +0.000 C 
ENDROOT
BRANCH   1  19
ATOM     19  C   UNL     1       3.336   5.095  19.863  0.00  0.00    +0.000 C 
BRANCH  19  24
ATOM     20  C   UNL     1       7.809   6.392  17.715  0.00  0.00    +0.000 A 
ATOM     21  C   UNL     1       7.580   5.950  19.011  0.00  0.00    +0.000 A 
ATOM     22  C   UNL     1       6.312   5.487  19.364  0.00  0.00    +0.000 A 
ATOM     23  C   UNL     1       5.305   5.484  18.408  0.00  0.00    +0.000 A 
ATOM     24  N   UNL     1       4.051   4.951  18.607  0.00  0.00    +0.000 N 
ATOM     25  N   UNL     1       5.513   5.929  17.153  0.00  0.00    +0.000 NA
ATOM     26  C   UNL     1       6.749   6.366  16.831  0.00  0.00    +0.000 A 
ATOM     27  H   UNL     1       3.527   5.181  17.766  0.00  0.00    +0.000 HD
ENDBRANCH  19  24
ENDBRANCH   1  19
TORSDOF 2
ENDMDL
MODEL 7
REMARK VINA RESULT:      -8.0      2.204      3.863
REMARK  Name = 
REMARK  2 active torsions:
REMARK  status: ('A' for Active; 'I' for Inactive)
REMARK    1  A    between atoms: N_5  and  C_6
REMARK    2  A    between atoms: C_6  and  C_7
REMARK                            x       y       z     vdW  Elec       q    Type
REMARK                         _______ _______ _______ _____ _____    ______ ____
ROOT
ATOM      1  C   UNL     1       4.783   5.998  17.777  0.00  0.00    +0.000 C 
ATOM      2  C   UNL     1       4.554   5.313  19.130  0.00  0.00    +0.000 C 
ATOM      3  C   UNL     1       3.158   5.723  19.571  0.00  0.00    +0.000 C 
ATOM      4  N   UNL     1       2.960   7.007  18.928  0.00  0.00    +0.000 N 
ATOM      5  C   UNL     1       2.147   8.009  19.438  0.00  0.00    +0.000 A 
ATOM      6  N   UNL     1       1.518   7.801  20.575  0.00  0.00    +0.000 NA
ATOM      7  C   UNL     1       0.711   8.806  21.159  0.00  0.00    +0.000 A 
ATOM      8  C   UNL     1       0.081   8.552  22.375  0.00  0.00    +0.000 A 
ATOM      9  C   UNL     1      -0.712   9.535  22.984  0.00  0.00    +0.000 A 
ATOM     10  C   UNL     1      -0.881  10.784  22.379  0.00  0.00    +0.000 A 
ATOM     11  C   UNL     1      -0.259  11.062  21.165  0.00  0.00    +0.000 A 
ATOM     12  C   UNL     1       0.526  10.068  20.580  0.00  0.00    +0.000 A 
ATOM     13  N   UNL     1       1.192  10.257  19.377  0.00  0.00    +0.000 N 
ATOM     14  N   UNL     1       1.202  11.364  18.617  0.00  0.00    +0.000 NA
ATOM     15  N   UNL     1       1.978  11.060  17.582  0.00  0.00    +0.000 NA
ATOM     16  N   UNL     1       2.454   9.769  17.678  0.00  0.00    +0.000 NA
ATOM     17  C   UNL     1       1.962   9.296  18.804  0.00  0.00    +0.000 A 
ATOM     18  C   UNL     1       3.701   7.078  17.676  0.00  0.00    +0.000 C 
ENDROOT
BRANCH   1  19
ATOM     19  C   UNL     1       4.781   5.040  16.580  0.00  0.00    +0.000 C 
BRANCH  19  24
ATOM     20  C   UNL     1       7.005   3.806  12.126  0.00  0.00    +0.000 A 
ATOM     21  C   UNL     1       5.788   3.361  12.625  0.00  0.00    +0.000 A 
ATOM     22  C   UNL     1       5.271   3.938  13.787  0.00  0.00    +0.000 A 
ATOM     23  C   UNL     1       5.991   4.943  14.419  0.00  0.00    +0.000 A 
ATOM     24  N   UNL     1       5.533   5.659  15.502  0.00  0.00    +0.000 N 
ATOM     25  N   UNL     1       7.182   5.368  13.952  0.00  0.00    +0.000 NA
ATOM     26  C   UNL     1       7.661   4.801  12.823  0.00  0.00    +0.000 A 
ATOM     27  H   UNL     1       6.314   6.247  15.783  0.00  0.00    +0.000 HD
ENDBRANCH  19  24
ENDBRANCH   1  19
TORSDOF 2
ENDMDL
MODEL 8
REMARK VINA RESULT:      -7.9      1.087      1.252
REMARK  Name = 
REMARK  2 active torsions:
REMARK  status: ('A' for Active; 'I' for Inactive)
REMARK    1  A    between atoms: N_5  and  C_6
REMARK    2  A    between atoms: C_6  and  C_7
REMARK                            x       y       z     vdW  Elec       q    Type
REMARK                         _______ _______ _______ _____ _____    ______ ____
ROOT
ATOM      1  C   UNL     1       2.278   6.728  18.921  0.00  0.00    +0.000 C 
ATOM      2  C   UNL     1       1.968   7.501  17.633  0.00  0.00    +0.000 C 
ATOM      3  C   UNL     1       1.981   8.972  18.019  0.00  0.00    +0.000 C 
ATOM      4  N   UNL     1       1.618   8.959  19.423  0.00  0.00    +0.000 N 
ATOM      5  C   UNL     1       0.960  10.002  20.059  0.00  0.00    +0.000 A 
ATOM      6  N   UNL     1       0.633  11.068  19.361  0.00  0.00    +0.000 NA
ATOM      7  C   UNL     1      -0.076  12.140  19.953  0.00  0.00    +0.000 A 
ATOM      8  C   UNL     1      -0.423  13.241  19.172  0.00  0.00    +0.000 A 
ATOM      9  C   UNL     1      -1.138  14.310  19.729  0.00  0.00    +0.000 A 
ATOM     10  C   UNL     1      -1.514  14.287  21.076  0.00  0.00    +0.000 A 
ATOM     11  C   UNL     1      -1.180  13.197  21.875  0.00  0.00    +0.000 A 
ATOM     12  C   UNL     1      -0.470  12.145  21.297  0.00  0.00    +0.000 A 
ATOM     13  N   UNL     1      -0.103  11.014  22.013  0.00  0.00    +0.000 N 
ATOM     14  N   UNL     1      -0.358  10.748  23.304  0.00  0.00    +0.000 NA
ATOM     15  N   UNL     1       0.185   9.555  23.520  0.00  0.00    +0.000 NA
ATOM     16  N   UNL     1       0.786   9.066  22.379  0.00  0.00    +0.000 NA
ATOM     17  C   UNL     1       0.585   9.983  21.456  0.00  0.00    +0.000 A 
ATOM     18  C   UNL     1       2.064   7.729  20.062  0.00  0.00    +0.000 C 
ENDROOT
BRANCH   1  19
ATOM     19  C   UNL     1       3.670   6.085  18.947  0.00  0.00    +0.000 C 
BRANCH  19  24
ATOM     20  C   UNL     1       6.642   4.230  15.202  0.00  0.00    +0.000 A 
ATOM     21  C   UNL     1       5.494   3.664  15.740  0.00  0.00    +0.000 A 
ATOM     22  C   UNL     1       4.727   4.400  16.645  0.00  0.00    +0.000 A 
ATOM     23  C   UNL     1       5.133   5.682  16.988  0.00  0.00    +0.000 A 
ATOM     24  N   UNL     1       4.403   6.541  17.779  0.00  0.00    +0.000 N 
ATOM     25  N   UNL     1       6.257   6.232  16.484  0.00  0.00    +0.000 NA
ATOM     26  C   UNL     1       6.981   5.506  15.607  0.00  0.00    +0.000 A 
ATOM     27  H   UNL     1       5.001   7.352  17.916  0.00  0.00    +0.000 HD
ENDBRANCH  19  24
ENDBRANCH   1  19
TORSDOF 2
ENDMDL
MODEL 9
REMARK VINA RESULT:      -7.8      2.573      8.014
REMARK  Name = 
REMARK  2 active torsions:
REMARK  status: ('A' for Active; 'I' for Inactive)
REMARK    1  A    between atoms: N_5  and  C_6
REMARK    2  A    between atoms: C_6  and  C_7
REMARK                            x       y       z     vdW  Elec       q    Type
REMARK                         _______ _______ _______ _____ _____    ______ ____
ROOT
ATOM      1  C   UNL     1       0.720  10.601  19.960  0.00  0.00    +0.000 C 
ATOM      2  C   UNL     1       1.585  11.200  18.844  0.00  0.00    +0.000 C 
ATOM      3  C   UNL     1       1.895  10.051  17.898  0.00  0.00    +0.000 C 
ATOM      4  N   UNL     1       1.837   8.881  18.752  0.00  0.00    +0.000 N 
ATOM      5  C   UNL     1       2.568   7.723  18.527  0.00  0.00    +0.000 A 
ATOM      6  N   UNL     1       3.372   7.671  17.486  0.00  0.00    +0.000 NA
ATOM      7  C   UNL     1       4.170   6.530  17.235  0.00  0.00    +0.000 A 
ATOM      8  C   UNL     1       5.024   6.525  16.135  0.00  0.00    +0.000 A 
ATOM      9  C   UNL     1       5.838   5.414  15.871  0.00  0.00    +0.000 A 
ATOM     10  C   UNL     1       5.804   4.295  16.710  0.00  0.00    +0.000 A 
ATOM     11  C   UNL     1       4.960   4.279  17.818  0.00  0.00    +0.000 A 
ATOM     12  C   UNL     1       4.162   5.397  18.059  0.00  0.00    +0.000 A 
ATOM     13  N   UNL     1       3.299   5.474  19.143  0.00  0.00    +0.000 N 
ATOM     14  N   UNL     1       3.099   4.547  20.094  0.00  0.00    +0.000 NA
ATOM     15  N   UNL     1       2.194   5.082  20.906  0.00  0.00    +0.000 NA
ATOM     16  N   UNL     1       1.815   6.336  20.476  0.00  0.00    +0.000 NA
ATOM     17  C   UNL     1       2.521   6.562  19.388  0.00  0.00    +0.000 A 
ATOM     18  C   UNL     1       0.894   9.083  19.843  0.00  0.00    +0.000 C 
ENDROOT
BRANCH   1  19
ATOM     19  C   UNL     1      -0.750  11.037  19.918  0.00  0.00    +0.000 C 
BRANCH  19  24
ATOM     20  C   UNL     1      -3.782  10.674  15.798  0.00  0.00    +0.000 A 
ATOM     21  C   UNL     1      -2.628  11.432  15.945  0.00  0.00    +0.000 A 
ATOM     22  C   UNL     1      -1.845  11.274  17.090  0.00  0.00    +0.000 A 
ATOM     23  C   UNL     1      -2.243  10.362  18.058  0.00  0.00    +0.000 A 
ATOM     24  N   UNL     1      -1.498  10.041  19.171  0.00  0.00    +0.000 N 
ATOM     25  N   UNL     1      -3.371   9.636  17.933  0.00  0.00    +0.000 NA
ATOM     26  C   UNL     1      -4.111   9.799  16.815  0.00  0.00    +0.000 A 
ATOM     27  H   UNL     1      -2.091   9.423  19.721  0.00  0.00    +0.000 HD
ENDBRANCH  19  24
ENDBRANCH   1  19
TORSDOF 2
ENDMDL
