MODEL 1
REMARK VINA RESULT:      -8.6      0.000      0.000
REMARK  Name = 
REMARK  6 active torsions:
REMARK  status: ('A' for Active; 'I' for Inactive)
REMARK    1  A    between atoms: C_1  and  C_2
REMARK    2  A    between atoms: C_4  and  N_5
REMARK    3  A    between atoms: N_5  and  C_6
REMARK    4  A    between atoms: C_6  and  C_7
REMARK    5  A    between atoms: C_11  and  C_12
REMARK    6  A    between atoms: N_16  and  C_17
REMARK                            x       y       z     vdW  Elec       q    Type
REMARK                         _______ _______ _______ _____ _____    ______ ____
ROOT
ATOM      1  N   UNL     1       3.379   3.981  17.220  0.00  0.00    +0.000 N 
ATOM      2  H   UNL     1       2.748   3.407  16.671  0.00  0.00    +0.000 HD
ENDROOT
BRANCH   1   6
ATOM      3  C   UNL     1       1.713   2.756  21.726  0.00  0.00    +0.000 C 
ATOM      4  C   UNL     1       2.046   3.757  20.662  0.00  0.00    +0.000 A 
ATOM      5  C   UNL     1       2.596   3.360  19.451  0.00  0.00    +0.000 A 
ATOM      6  C   UNL     1       2.815   4.311  18.454  0.00  0.00    +0.000 A 
ATOM      7  C   UNL     1       2.538   5.676  18.746  0.00  0.00    +0.000 A 
ATOM      8  C   UNL     1       2.776   6.731  17.825  0.00  0.00    +0.000 A 
ATOM      9  C   UNL     1       2.477   8.057  18.128  0.00  0.00    +0.000 A 
ATOM     10  C   UNL     1       1.962   8.361  19.374  0.00  0.00    +0.000 A 
ATOM     11  C   UNL     1       1.744   7.335  20.296  0.00  0.00    +0.000 A 
ATOM     12  F   UNL     1       1.257   7.683  21.500  0.00  0.00    +0.000 F 
ATOM     13  C   UNL     1       2.010   5.994  20.017  0.00  0.00    +0.000 A 
ATOM     14  N   UNL     1       1.761   5.045  20.944  0.00  0.00    +0.000 NA
ENDBRANCH   1   6
BRANCH   1  15
ATOM     15  C   UNL     1       4.786   3.671  17.011  0.00  0.00    +0.000 C 
BRANCH  15  16
ATOM     16  C   UNL     1       5.457   4.875  16.332  0.00  0.00    +0.000 C 
ATOM     17  C   UNL     1       5.340   4.893  14.817  0.00  0.00    +0.000 C 
ATOM     18  C   UNL     1       6.706   4.521  14.310  0.00  0.00    +0.000 C 
ATOM     19  O   UNL     1       7.645   4.755  15.353  0.00  0.00    +0.000 OA
ATOM     20  C   UNL     1       6.962   4.902  16.607  0.00  0.00    +0.000 C 
BRANCH  20  21
ATOM     21  C   UNL     1       7.404   6.194  17.247  0.00  0.00    +0.000 A 
ATOM     22  N   UNL     1       7.326   7.382  16.668  0.00  0.00    +0.000 NA
ATOM     23  C   UNL     1       7.801   8.286  17.574  0.00  0.00    +0.000 A 
ATOM     24  C   UNL     1       8.150   7.657  18.742  0.00  0.00    +0.000 A 
ATOM     25  N   UNL     1       7.881   6.331  18.531  0.00  0.00    +0.000 N 
ATOM     26  C   UNL     1       8.065   5.293  19.517  0.00  0.00    +0.000 C 
ENDBRANCH  20  21
ENDBRANCH  15  16
ENDBRANCH   1  15
TORSDOF 4
ENDMDL
MODEL 2
REMARK VINA RESULT:      -8.0      3.035      6.606
REMARK  Name = 
REMARK  6 active torsions:
REMARK  status: ('A' for Active; 'I' for Inactive)
REMARK    1  A    between atoms: C_1  and  C_2
REMARK    2  A    between atoms: C_4  and  N_5
REMARK    3  A    between atoms: N_5  and  C_6
REMARK    4  A    between atoms: C_6  and  C_7
REMARK    5  A    between atoms: C_11  and  C_12
REMARK    6  A    between atoms: N_16  and  C_17
REMARK                            x       y       z     vdW  Elec       q    Type
REMARK                         _______ _______ _______ _____ _____    ______ ____
ROOT
ATOM      1  N   UNL     1       4.258   3.508  16.449  0.00  0.00    +0.000 N 
ATOM      2  H   UNL     1       3.386   3.964  16.202  0.00  0.00    +0.000 HD
ENDROOT
BRANCH   1   6
ATOM      3  C   UNL     1       7.685   6.836  17.775  0.00  0.00    +0.000 C 
ATOM      4  C   UNL     1       7.056   5.903  16.787  0.00  0.00    +0.000 A 
ATOM      5  C   UNL     1       5.962   5.122  17.134  0.00  0.00    +0.000 A 
ATOM      6  C   UNL     1       5.352   4.328  16.163  0.00  0.00    +0.000 A 
ATOM      7  C   UNL     1       5.927   4.286  14.862  0.00  0.00    +0.000 A 
ATOM      8  C   UNL     1       5.421   3.469  13.816  0.00  0.00    +0.000 A 
ATOM      9  C   UNL     1       5.990   3.461  12.545  0.00  0.00    +0.000 A 
ATOM     10  C   UNL     1       7.101   4.248  12.301  0.00  0.00    +0.000 A 
ATOM     11  C   UNL     1       7.621   5.038  13.328  0.00  0.00    +0.000 A 
ATOM     12  F   UNL     1       8.711   5.772  13.047  0.00  0.00    +0.000 F 
ATOM     13  C   UNL     1       7.061   5.088  14.606  0.00  0.00    +0.000 A 
ATOM     14  N   UNL     1       7.599   5.886  15.552  0.00  0.00    +0.000 NA
ENDBRANCH   1   6
BRANCH   1  15
ATOM     15  C   UNL     1       4.158   2.640  17.613  0.00  0.00    +0.000 C 
BRANCH  15  16
ATOM     16  C   UNL     1       3.176   3.271  18.611  0.00  0.00    +0.000 C 
ATOM     17  C   UNL     1       2.276   2.278  19.327  0.00  0.00    +0.000 C 
ATOM     18  C   UNL     1       0.920   2.448  18.698  0.00  0.00    +0.000 C 
ATOM     19  O   UNL     1       0.883   3.720  18.062  0.00  0.00    +0.000 OA
ATOM     20  C   UNL     1       2.214   4.235  17.912  0.00  0.00    +0.000 C 
BRANCH  20  21
ATOM     21  C   UNL     1       2.263   5.622  18.503  0.00  0.00    +0.000 A 
ATOM     22  N   UNL     1       2.441   6.729  17.799  0.00  0.00    +0.000 NA
ATOM     23  C   UNL     1       2.402   7.763  18.689  0.00  0.00    +0.000 A 
ATOM     24  C   UNL     1       2.165   7.297  19.957  0.00  0.00    +0.000 A 
ATOM     25  N   UNL     1       2.063   5.937  19.827  0.00  0.00    +0.000 N 
ATOM     26  C   UNL     1       1.779   5.031  20.915  0.00  0.00    +0.000 C 
ENDBRANCH  20  21
ENDBRANCH  15  16
ENDBRANCH   1  15
TORSDOF 4
ENDMDL
MODEL 3
REMARK VINA RESULT:      -8.0      2.846      6.464
REMARK  Name = 
REMARK  6 active torsions:
REMARK  status: ('A' for Active; 'I' for Inactive)
REMARK    1  A    between atoms: C_1  and  C_2
REMARK    2  A    between atoms: C_4  and  N_5
REMARK    3  A    between atoms: N_5  and  C_6
REMARK    4  A    between atoms: C_6  and  C_7
REMARK    5  A    between atoms: C_11  and  C_12
REMARK    6  A    between atoms: N_16  and  C_17
REMARK                            x       y       z     vdW  Elec       q    Type
REMARK                         _______ _______ _______ _____ _____    ______ ____
ROOT
ATOM      1  N   UNL     1       4.676   3.480  17.758  0.00  0.00    +0.000 N 
ATOM      2  H   UNL     1       3.783   3.590  17.287  0.00  0.00    +0.000 HD
ENDROOT
BRANCH   1   6
ATOM      3  C   UNL     1       7.974   7.138  18.319  0.00  0.00    +0.000 C 
ATOM      4  C   UNL     1       7.267   6.105  17.496  0.00  0.00    +0.000 A 
ATOM      5  C   UNL     1       6.323   5.260  18.064  0.00  0.00    +0.000 A 
ATOM      6  C   UNL     1       5.626   4.368  17.249  0.00  0.00    +0.000 A 
ATOM      7  C   UNL     1       5.966   4.301  15.869  0.00  0.00    +0.000 A 
ATOM      8  C   UNL     1       5.359   3.391  14.963  0.00  0.00    +0.000 A 
ATOM      9  C   UNL     1       5.696   3.358  13.612  0.00  0.00    +0.000 A 
ATOM     10  C   UNL     1       6.673   4.217  13.144  0.00  0.00    +0.000 A 
ATOM     11  C   UNL     1       7.293   5.101  14.029  0.00  0.00    +0.000 A 
ATOM     12  F   UNL     1       8.248   5.904  13.529  0.00  0.00    +0.000 F 
ATOM     13  C   UNL     1       6.962   5.176  15.383  0.00  0.00    +0.000 A 
ATOM     14  N   UNL     1       7.585   6.065  16.185  0.00  0.00    +0.000 NA
ENDBRANCH   1   6
BRANCH   1  15
ATOM     15  C   UNL     1       4.557   3.111  19.161  0.00  0.00    +0.000 C 
BRANCH  15  16
ATOM     16  C   UNL     1       3.171   3.541  19.665  0.00  0.00    +0.000 C 
ATOM     17  C   UNL     1       2.150   2.419  19.743  0.00  0.00    +0.000 C 
ATOM     18  C   UNL     1       1.216   2.650  18.587  0.00  0.00    +0.000 C 
ATOM     19  O   UNL     1       1.343   4.008  18.181  0.00  0.00    +0.000 OA
ATOM     20  C   UNL     1       2.537   4.579  18.735  0.00  0.00    +0.000 C 
BRANCH  20  21
ATOM     21  C   UNL     1       2.173   5.850  19.459  0.00  0.00    +0.000 A 
ATOM     22  N   UNL     1       1.600   5.894  20.651  0.00  0.00    +0.000 NA
ATOM     23  C   UNL     1       1.457   7.216  20.963  0.00  0.00    +0.000 A 
ATOM     24  C   UNL     1       1.976   8.003  19.967  0.00  0.00    +0.000 A 
ATOM     25  N   UNL     1       2.442   7.127  19.022  0.00  0.00    +0.000 N 
ATOM     26  C   UNL     1       3.108   7.519  17.803  0.00  0.00    +0.000 C 
ENDBRANCH  20  21
ENDBRANCH  15  16
ENDBRANCH   1  15
TORSDOF 4
ENDMDL
MODEL 4
REMARK VINA RESULT:      -7.9      2.155      4.164
REMARK  Name = 
REMARK  6 active torsions:
REMARK  status: ('A' for Active; 'I' for Inactive)
REMARK    1  A    between atoms: C_1  and  C_2
REMARK    2  A    between atoms: C_4  and  N_5
REMARK    3  A    between atoms: N_5  and  C_6
REMARK    4  A    between atoms: C_6  and  C_7
REMARK    5  A    between atoms: C_11  and  C_12
REMARK    6  A    between atoms: N_16  and  C_17
REMARK                            x       y       z     vdW  Elec       q    Type
REMARK                         _______ _______ _______ _____ _____    ______ ____
ROOT
ATOM      1  N   UNL     1       3.525   6.390  16.992  0.00  0.00    +0.000 N 
ATOM      2  H   UNL     1       3.095   5.866  16.237  0.00  0.00    +0.000 HD
ENDROOT
BRANCH   1   6
ATOM      3  C   UNL     1       1.603   7.944  21.289  0.00  0.00    +0.000 C 
ATOM      4  C   UNL     1       1.888   6.883  20.270  0.00  0.00    +0.000 A 
ATOM      5  C   UNL     1       2.552   7.183  19.089  0.00  0.00    +0.000 A 
ATOM      6  C   UNL     1       2.872   6.155  18.203  0.00  0.00    +0.000 A 
ATOM      7  C   UNL     1       2.433   4.836  18.508  0.00  0.00    +0.000 A 
ATOM      8  C   UNL     1       2.656   3.725  17.651  0.00  0.00    +0.000 A 
ATOM      9  C   UNL     1       2.234   2.440  17.982  0.00  0.00    +0.000 A 
ATOM     10  C   UNL     1       1.549   2.243  19.167  0.00  0.00    +0.000 A 
ATOM     11  C   UNL     1       1.305   3.331  20.007  0.00  0.00    +0.000 A 
ATOM     12  F   UNL     1       0.621   3.091  21.140  0.00  0.00    +0.000 F 
ATOM     13  C   UNL     1       1.735   4.627  19.718  0.00  0.00    +0.000 A 
ATOM     14  N   UNL     1       1.483   5.634  20.580  0.00  0.00    +0.000 NA
ENDBRANCH   1   6
BRANCH   1  15
ATOM     15  C   UNL     1       4.964   6.554  16.846  0.00  0.00    +0.000 C 
BRANCH  15  16
ATOM     16  C   UNL     1       5.573   5.200  16.449  0.00  0.00    +0.000 C 
ATOM     17  C   UNL     1       6.096   4.376  17.613  0.00  0.00    +0.000 C 
ATOM     18  C   UNL     1       7.594   4.475  17.528  0.00  0.00    +0.000 C 
ATOM     19  O   UNL     1       7.937   4.867  16.204  0.00  0.00    +0.000 OA
ATOM     20  C   UNL     1       6.781   5.382  15.527  0.00  0.00    +0.000 C 
BRANCH  20  21
ATOM     21  C   UNL     1       6.621   4.646  14.221  0.00  0.00    +0.000 A 
ATOM     22  N   UNL     1       5.672   3.756  13.975  0.00  0.00    +0.000 NA
ATOM     23  C   UNL     1       5.855   3.341  12.687  0.00  0.00    +0.000 A 
ATOM     24  C   UNL     1       6.911   4.005  12.115  0.00  0.00    +0.000 A 
ATOM     25  N   UNL     1       7.381   4.843  13.091  0.00  0.00    +0.000 N 
ATOM     26  C   UNL     1       8.477   5.766  12.917  0.00  0.00    +0.000 C 
ENDBRANCH  20  21
ENDBRANCH  15  16
ENDBRANCH   1  15
TORSDOF 4
ENDMDL
MODEL 5
REMARK VINA RESULT:      -7.9      4.057      7.242
REMARK  Name = 
REMARK  6 active torsions:
REMARK  status: ('A' for Active; 'I' for Inactive)
REMARK    1  A    between atoms: C_1  and  C_2
REMARK    2  A    between atoms: C_4  and  N_5
REMARK    3  A    between atoms: N_5  and  C_6
REMARK    4  A    between atoms: C_6  and  C_7
REMARK    5  A    between atoms: C_11  and  C_12
REMARK    6  A    between atoms: N_16  and  C_17
REMARK                            x       y       z     vdW  Elec       q    Type
REMARK                         _______ _______ _______ _____ _____    ______ ____
ROOT
ATOM      1  N   UNL     1       1.986   7.000  20.920  0.00  0.00    +0.000 N 
ATOM      2  H   UNL     1       2.280   6.525  21.767  0.00  0.00    +0.000 HD
ENDROOT
BRANCH   1   6
ATOM      3  C   UNL     1       4.569   6.730  16.697  0.00  0.00    +0.000 C 
ATOM      4  C   UNL     1       3.696   6.133  17.758  0.00  0.00    +0.000 A 
ATOM      5  C   UNL     1       3.295   6.876  18.860  0.00  0.00    +0.000 A 
ATOM      6  C   UNL     1       2.416   6.312  19.783  0.00  0.00    +0.000 A 
ATOM      7  C   UNL     1       2.021   4.957  19.604  0.00  0.00    +0.000 A 
ATOM      8  C   UNL     1       1.175   4.267  20.513  0.00  0.00    +0.000 A 
ATOM      9  C   UNL     1       0.787   2.946  20.304  0.00  0.00    +0.000 A 
ATOM     10  C   UNL     1       1.264   2.274  19.193  0.00  0.00    +0.000 A 
ATOM     11  C   UNL     1       2.114   2.934  18.304  0.00  0.00    +0.000 A 
ATOM     12  F   UNL     1       2.565   2.234  17.250  0.00  0.00    +0.000 F 
ATOM     13  C   UNL     1       2.504   4.265  18.471  0.00  0.00    +0.000 A 
ATOM     14  N   UNL     1       3.314   4.853  17.566  0.00  0.00    +0.000 NA
ENDBRANCH   1   6
BRANCH   1  15
ATOM     15  C   UNL     1       0.702   7.675  21.041  0.00  0.00    +0.000 C 
BRANCH  15  16
ATOM     16  C   UNL     1       0.951   9.124  21.486  0.00  0.00    +0.000 C 
ATOM     17  C   UNL     1       0.636   9.400  22.946  0.00  0.00    +0.000 C 
ATOM     18  C   UNL     1      -0.647  10.185  22.934  0.00  0.00    +0.000 C 
ATOM     19  O   UNL     1      -0.808  10.751  21.638  0.00  0.00    +0.000 OA
ATOM     20  C   UNL     1       0.071  10.105  20.706  0.00  0.00    +0.000 C 
BRANCH  20  21
ATOM     21  C   UNL     1       0.881  11.160  19.996  0.00  0.00    +0.000 A 
ATOM     22  N   UNL     1       1.165  12.350  20.501  0.00  0.00    +0.000 NA
ATOM     23  C   UNL     1       1.927  12.995  19.569  0.00  0.00    +0.000 A 
ATOM     24  C   UNL     1       2.145  12.183  18.484  0.00  0.00    +0.000 A 
ATOM     25  N   UNL     1       1.491  11.015  18.771  0.00  0.00    +0.000 N 
ATOM     26  C   UNL     1       1.481   9.853  17.915  0.00  0.00    +0.000 C 
ENDBRANCH  20  21
ENDBRANCH  15  16
ENDBRANCH   1  15
TORSDOF 4
ENDMDL
MODEL 6
REMARK VINA RESULT:      -7.8      1.541      3.036
REMARK  Name = 
REMARK  6 active torsions:
REMARK  status: ('A' for Active; 'I' for Inactive)
REMARK    1  A    between atoms: C_1  and  C_2
REMARK    2  A    between atoms: C_4  and  N_5
REMARK    3  A    between atoms: N_5  and  C_6
REMARK    4  A    between atoms: C_6  and  C_7
REMARK    5  A    between atoms: C_11  and  C_12
REMARK    6  A    between atoms: N_16  and  C_17
REMARK                            x       y       z     vdW  Elec       q    Type
REMARK                         _______ _______ _______ _____ _____    ______ ____
ROOT
ATOM      1  N   UNL     1       3.961   4.506  17.258  0.00  0.00    +0.000 N 
ATOM      2  H   UNL     1       3.346   4.597  16.455  0.00  0.00    +0.000 HD
ENDROOT
BRANCH   1   6
ATOM      3  C   UNL     1       2.161   3.075  21.650  0.00  0.00    +0.000 C 
ATOM      4  C   UNL     1       2.435   4.111  20.602  0.00  0.00    +0.000 A 
ATOM      5  C   UNL     1       3.113   3.788  19.435  0.00  0.00    +0.000 A 
ATOM      6  C   UNL     1       3.276   4.760  18.448  0.00  0.00    +0.000 A 
ATOM      7  C   UNL     1       2.808   6.078  18.709  0.00  0.00    +0.000 A 
ATOM      8  C   UNL     1       2.971   7.155  17.797  0.00  0.00    +0.000 A 
ATOM      9  C   UNL     1       2.486   8.432  18.068  0.00  0.00    +0.000 A 
ATOM     10  C   UNL     1       1.851   8.666  19.274  0.00  0.00    +0.000 A 
ATOM     11  C   UNL     1       1.704   7.621  20.187  0.00  0.00    +0.000 A 
ATOM     12  F   UNL     1       1.096   7.903  21.352  0.00  0.00    +0.000 F 
ATOM     13  C   UNL     1       2.157   6.324  19.938  0.00  0.00    +0.000 A 
ATOM     14  N   UNL     1       1.969   5.352  20.854  0.00  0.00    +0.000 NA
ENDBRANCH   1   6
BRANCH   1  15
ATOM     15  C   UNL     1       4.989   3.487  17.096  0.00  0.00    +0.000 C 
BRANCH  15  16
ATOM     16  C   UNL     1       6.284   4.168  16.630  0.00  0.00    +0.000 C 
ATOM     17  C   UNL     1       7.076   4.844  17.737  0.00  0.00    +0.000 C 
ATOM     18  C   UNL     1       6.856   6.319  17.537  0.00  0.00    +0.000 C 
ATOM     19  O   UNL     1       6.423   6.525  16.198  0.00  0.00    +0.000 OA
ATOM     20  C   UNL     1       5.996   5.282  15.621  0.00  0.00    +0.000 C 
BRANCH  20  21
ATOM     21  C   UNL     1       6.729   5.078  14.318  0.00  0.00    +0.000 A 
ATOM     22  N   UNL     1       7.916   5.594  14.039  0.00  0.00    +0.000 NA
ATOM     23  C   UNL     1       8.239   5.162  12.785  0.00  0.00    +0.000 A 
ATOM     24  C   UNL     1       7.255   4.344  12.291  0.00  0.00    +0.000 A 
ATOM     25  N   UNL     1       6.307   4.284  13.277  0.00  0.00    +0.000 N 
ATOM     26  C   UNL     1       5.098   3.499  13.202  0.00  0.00    +0.000 C 
ENDBRANCH  20  21
ENDBRANCH  15  16
ENDBRANCH   1  15
TORSDOF 4
ENDMDL
MODEL 7
REMARK VINA RESULT:      -7.8      4.127      6.930
REMARK  Name = 
REMARK  6 active torsions:
REMARK  status: ('A' for Active; 'I' for Inactive)
REMARK    1  A    between atoms: C_1  and  C_2
REMARK    2  A    between atoms: C_4  and  N_5
REMARK    3  A    between atoms: N_5  and  C_6
REMARK    4  A    between atoms: C_6  and  C_7
REMARK    5  A    between atoms: C_11  and  C_12
REMARK    6  A    between atoms: N_16  and  C_17
REMARK                            x       y       z     vdW  Elec       q    Type
REMARK                         _______ _______ _______ _____ _____    ______ ____
ROOT
ATOM      1  N   UNL     1       1.985   7.428  20.394  0.00  0.00    +0.000 N 
ATOM      2  H   UNL     1       2.818   7.956  20.633  0.00  0.00    +0.000 HD
ENDROOT
BRANCH   1   6
ATOM      3  C   UNL     1       1.671   2.521  21.027  0.00  0.00    +0.000 C 
ATOM      4  C   UNL     1       2.134   3.735  20.281  0.00  0.00    +0.000 A 
ATOM      5  C   UNL     1       1.787   5.011  20.702  0.00  0.00    +0.000 A 
ATOM      6  C   UNL     1       2.306   6.118  20.031  0.00  0.00    +0.000 A 
ATOM      7  C   UNL     1       3.115   5.897  18.882  0.00  0.00    +0.000 A 
ATOM      8  C   UNL     1       3.648   6.951  18.092  0.00  0.00    +0.000 A 
ATOM      9  C   UNL     1       4.453   6.708  16.983  0.00  0.00    +0.000 A 
ATOM     10  C   UNL     1       4.718   5.400  16.619  0.00  0.00    +0.000 A 
ATOM     11  C   UNL     1       4.182   4.355  17.374  0.00  0.00    +0.000 A 
ATOM     12  F   UNL     1       4.454   3.102  16.971  0.00  0.00    +0.000 F 
ATOM     13  C   UNL     1       3.391   4.564  18.505  0.00  0.00    +0.000 A 
ATOM     14  N   UNL     1       2.916   3.511  19.204  0.00  0.00    +0.000 NA
ENDBRANCH   1   6
BRANCH   1  15
ATOM     15  C   UNL     1       0.809   7.808  21.163  0.00  0.00    +0.000 C 
BRANCH  15  16
ATOM     16  C   UNL     1       0.968   9.269  21.610  0.00  0.00    +0.000 C 
ATOM     17  C   UNL     1       0.562   9.537  23.049  0.00  0.00    +0.000 C 
ATOM     18  C   UNL     1      -0.752  10.264  22.961  0.00  0.00    +0.000 C 
ATOM     19  O   UNL     1      -0.867  10.816  21.655  0.00  0.00    +0.000 OA
ATOM     20  C   UNL     1       0.090  10.206  20.777  0.00  0.00    +0.000 C 
BRANCH  20  21
ATOM     21  C   UNL     1       0.890  11.294  20.105  0.00  0.00    +0.000 A 
ATOM     22  N   UNL     1       1.153  12.472  20.649  0.00  0.00    +0.000 NA
ATOM     23  C   UNL     1       1.912  13.155  19.742  0.00  0.00    +0.000 A 
ATOM     24  C   UNL     1       2.150  12.380  18.635  0.00  0.00    +0.000 A 
ATOM     25  N   UNL     1       1.510  11.194  18.881  0.00  0.00    +0.000 N 
ATOM     26  C   UNL     1       1.522  10.059  17.990  0.00  0.00    +0.000 C 
ENDBRANCH  20  21
ENDBRANCH  15  16
ENDBRANCH   1  15
TORSDOF 4
ENDMDL
MODEL 8
REMARK VINA RESULT:      -7.7      4.148      7.207
REMARK  Name = 
REMARK  6 active torsions:
REMARK  status: ('A' for Active; 'I' for Inactive)
REMARK    1  A    between atoms: C_1  and  C_2
REMARK    2  A    between atoms: C_4  and  N_5
REMARK    3  A    between atoms: N_5  and  C_6
REMARK    4  A    between atoms: C_6  and  C_7
REMARK    5  A    between atoms: C_11  and  C_12
REMARK    6  A    between atoms: N_16  and  C_17
REMARK                            x       y       z     vdW  Elec       q    Type
REMARK                         _______ _______ _______ _____ _____    ______ ____
ROOT
ATOM      1  N   UNL     1       2.459   7.719  19.803  0.00  0.00    +0.000 N 
ATOM      2  H   UNL     1       3.254   8.084  20.318  0.00  0.00    +0.000 HD
ENDROOT
BRANCH   1   6
ATOM      3  C   UNL     1       1.256   3.121  21.214  0.00  0.00    +0.000 C 
ATOM      4  C   UNL     1       1.937   4.092  20.298  0.00  0.00    +0.000 A 
ATOM      5  C   UNL     1       1.824   5.462  20.493  0.00  0.00    +0.000 A 
ATOM      6  C   UNL     1       2.539   6.331  19.670  0.00  0.00    +0.000 A 
ATOM      7  C   UNL     1       3.302   5.781  18.602  0.00  0.00    +0.000 A 
ATOM      8  C   UNL     1       4.023   6.578  17.672  0.00  0.00    +0.000 A 
ATOM      9  C   UNL     1       4.779   6.014  16.647  0.00  0.00    +0.000 A 
ATOM     10  C   UNL     1       4.805   4.638  16.511  0.00  0.00    +0.000 A 
ATOM     11  C   UNL     1       4.083   3.846  17.406  0.00  0.00    +0.000 A 
ATOM     12  F   UNL     1       4.126   2.515  17.222  0.00  0.00    +0.000 F 
ATOM     13  C   UNL     1       3.335   4.377  18.458  0.00  0.00    +0.000 A 
ATOM     14  N   UNL     1       2.672   3.557  19.301  0.00  0.00    +0.000 NA
ENDBRANCH   1   6
BRANCH   1  15
ATOM     15  C   UNL     1       1.224   8.458  20.029  0.00  0.00    +0.000 C 
BRANCH  15  16
ATOM     16  C   UNL     1       0.881   9.238  18.751  0.00  0.00    +0.000 C 
ATOM     17  C   UNL     1       2.085   9.689  17.942  0.00  0.00    +0.000 C 
ATOM     18  C   UNL     1       2.191  11.170  18.183  0.00  0.00    +0.000 C 
ATOM     19  O   UNL     1       0.929  11.635  18.647  0.00  0.00    +0.000 OA
ATOM     20  C   UNL     1       0.122  10.528  19.073  0.00  0.00    +0.000 C 
BRANCH  20  21
ATOM     21  C   UNL     1      -1.209  10.601  18.367  0.00  0.00    +0.000 A 
ATOM     22  N   UNL     1      -1.541   9.864  17.319  0.00  0.00    +0.000 NA
ATOM     23  C   UNL     1      -2.821  10.209  16.994  0.00  0.00    +0.000 A 
ATOM     24  C   UNL     1      -3.302  11.149  17.870  0.00  0.00    +0.000 A 
ATOM     25  N   UNL     1      -2.277  11.381  18.748  0.00  0.00    +0.000 N 
ATOM     26  C   UNL     1      -2.351  12.283  19.872  0.00  0.00    +0.000 C 
ENDBRANCH  20  21
ENDBRANCH  15  16
ENDBRANCH   1  15
TORSDOF 4
ENDMDL
MODEL 9
REMARK VINA RESULT:      -7.6      4.192      7.399
REMARK  Name = 
REMARK  6 active torsions:
REMARK  status: ('A' for Active; 'I' for Inactive)
REMARK    1  A    between atoms: C_1  and  C_2
REMARK    2  A    between atoms: C_4  and  N_5
REMARK    3  A    between atoms: N_5  and  C_6
REMARK    4  A    between atoms: C_6  and  C_7
REMARK    5  A    between atoms: C_11  and  C_12
REMARK    6  A    between atoms: N_16  and  C_17
REMARK                            x       y       z     vdW  Elec       q    Type
REMARK                         _______ _______ _______ _____ _____    ______ ____
ROOT
ATOM      1  N   UNL     1       2.408   7.235  19.244  0.00  0.00    +0.000 N 
ATOM      2  H   UNL     1       1.895   6.965  20.076  0.00  0.00    +0.000 HD
ENDROOT
BRANCH   1   6
ATOM      3  C   UNL     1       5.388   5.137  15.883  0.00  0.00    +0.000 C 
ATOM      4  C   UNL     1       4.394   5.066  17.002  0.00  0.00    +0.000 A 
ATOM      5  C   UNL     1       3.911   6.220  17.606  0.00  0.00    +0.000 A 
ATOM      6  C   UNL     1       2.926   6.117  18.587  0.00  0.00    +0.000 A 
ATOM      7  C   UNL     1       2.505   4.820  18.993  0.00  0.00    +0.000 A 
ATOM      8  C   UNL     1       1.550   4.599  20.021  0.00  0.00    +0.000 A 
ATOM      9  C   UNL     1       1.141   3.320  20.387  0.00  0.00    +0.000 A 
ATOM     10  C   UNL     1       1.703   2.228  19.752  0.00  0.00    +0.000 A 
ATOM     11  C   UNL     1       2.659   2.431  18.755  0.00  0.00    +0.000 A 
ATOM     12  F   UNL     1       3.189   1.338  18.179  0.00  0.00    +0.000 F 
ATOM     13  C   UNL     1       3.075   3.700  18.348  0.00  0.00    +0.000 A 
ATOM     14  N   UNL     1       3.990   3.831  17.365  0.00  0.00    +0.000 NA
ENDBRANCH   1   6
BRANCH   1  15
ATOM     15  C   UNL     1       1.865   8.409  18.575  0.00  0.00    +0.000 C 
BRANCH  15  16
ATOM     16  C   UNL     1       1.458   9.436  19.642  0.00  0.00    +0.000 C 
ATOM     17  C   UNL     1       1.336   8.873  21.047  0.00  0.00    +0.000 C 
ATOM     18  C   UNL     1      -0.141   8.797  21.318  0.00  0.00    +0.000 C 
ATOM     19  O   UNL     1      -0.803   9.673  20.413  0.00  0.00    +0.000 OA
ATOM     20  C   UNL     1       0.081  10.035  19.342  0.00  0.00    +0.000 C 
BRANCH  20  21
ATOM     21  C   UNL     1       0.122  11.539  19.237  0.00  0.00    +0.000 A 
ATOM     22  N   UNL     1       1.064  12.301  19.770  0.00  0.00    +0.000 NA
ATOM     23  C   UNL     1       0.755  13.588  19.436  0.00  0.00    +0.000 A 
ATOM     24  C   UNL     1      -0.375  13.624  18.660  0.00  0.00    +0.000 A 
ATOM     25  N   UNL     1      -0.762  12.317  18.526  0.00  0.00    +0.000 N 
ATOM     26  C   UNL     1      -1.898  11.877  17.752  0.00  0.00    +0.000 C 
ENDBRANCH  20  21
ENDBRANCH  15  16
ENDBRANCH   1  15
TORSDOF 4
ENDMDL
