MODEL 1
REMARK VINA RESULT:      -8.4      0.000      0.000
REMARK  Name = 
REMARK  2 active torsions:
REMARK  status: ('A' for Active; 'I' for Inactive)
REMARK    1  A    between atoms: C_2  and  C_3
REMARK    2  A    between atoms: C_17  and  C_18
REMARK                            x       y       z     vdW  Elec       q    Type
REMARK                         _______ _______ _______ _____ _____    ______ ____
ROOT
ATOM      1  O   UNL     1       2.248   5.068  21.003  0.00  0.00    +0.000 OA
ATOM      2  C   UNL     1       2.560   5.798  20.063  0.00  0.00    +0.000 C 
ATOM      3  N   UNL     1       1.946   7.027  19.895  0.00  0.00    +0.000 N 
ATOM      4  C   UNL     1       2.275   8.044  18.919  0.00  0.00    +0.000 C 
ATOM      5  C   UNL     1       1.455   9.194  19.352  0.00  0.00    +0.000 C 
ATOM      6  C   UNL     1       0.779   8.923  20.476  0.00  0.00    +0.000 C 
ATOM      7  C   UNL     1       1.097   7.545  20.963  0.00  0.00    +0.000 C 
ENDROOT
BRANCH   2   8
ATOM      8  C   UNL     1       3.620   5.422  19.143  0.00  0.00    +0.000 A 
ATOM      9  C   UNL     1       3.463   5.006  17.830  0.00  0.00    +0.000 A 
ATOM     10  C   UNL     1       4.745   4.774  17.266  0.00  0.00    +0.000 A 
ATOM     11  C   UNL     1       5.210   4.381  16.000  0.00  0.00    +0.000 A 
ATOM     12  F   UNL     1       4.347   4.125  15.006  0.00  0.00    +0.000 F 
ATOM     13  C   UNL     1       6.582   4.284  15.778  0.00  0.00    +0.000 A 
ATOM     14  F   UNL     1       7.041   3.953  14.563  0.00  0.00    +0.000 F 
ATOM     15  C   UNL     1       7.497   4.535  16.796  0.00  0.00    +0.000 A 
ATOM     16  C   UNL     1       7.061   4.911  18.070  0.00  0.00    +0.000 A 
ATOM     17  C   UNL     1       5.681   5.042  18.264  0.00  0.00    +0.000 A 
ATOM     18  N   UNL     1       4.977   5.467  19.365  0.00  0.00    +0.000 N 
ATOM     19  H   UNL     1       5.419   5.816  20.202  0.00  0.00    +0.000 HD
ENDBRANCH   2   8
BRANCH   6  20
ATOM     20  C   UNL     1      -0.080   9.877  21.176  0.00  0.00    +0.000 A 
ATOM     21  C   UNL     1      -0.641  10.965  20.488  0.00  0.00    +0.000 A 
ATOM     22  C   UNL     1      -1.411  11.917  21.149  0.00  0.00    +0.000 A 
ATOM     23  C   UNL     1      -1.644  11.790  22.516  0.00  0.00    +0.000 A 
ATOM     24  C   UNL     1      -1.120  10.702  23.211  0.00  0.00    +0.000 A 
ATOM     25  C   UNL     1      -0.349   9.746  22.543  0.00  0.00    +0.000 A 
ENDBRANCH   6  20
TORSDOF 2
ENDMDL
MODEL 2
REMARK VINA RESULT:      -8.1      1.295      1.947
REMARK  Name = 
REMARK  2 active torsions:
REMARK  status: ('A' for Active; 'I' for Inactive)
REMARK    1  A    between atoms: C_2  and  C_3
REMARK    2  A    between atoms: C_17  and  C_18
REMARK                            x       y       z     vdW  Elec       q    Type
REMARK                         _______ _______ _______ _____ _____    ______ ____
ROOT
ATOM      1  O   UNL     1       2.895   5.152  20.481  0.00  0.00    +0.000 OA
ATOM      2  C   UNL     1       2.942   5.893  19.500  0.00  0.00    +0.000 C 
ATOM      3  N   UNL     1       2.210   7.067  19.471  0.00  0.00    +0.000 N 
ATOM      4  C   UNL     1       2.242   8.096  18.453  0.00  0.00    +0.000 C 
ATOM      5  C   UNL     1       1.441   9.182  19.055  0.00  0.00    +0.000 C 
ATOM      6  C   UNL     1       1.042   8.870  20.295  0.00  0.00    +0.000 C 
ATOM      7  C   UNL     1       1.566   7.528  20.697  0.00  0.00    +0.000 C 
ENDROOT
BRANCH   2   8
ATOM      8  C   UNL     1       3.812   5.593  18.375  0.00  0.00    +0.000 A 
ATOM      9  C   UNL     1       5.024   6.201  18.084  0.00  0.00    +0.000 A 
ATOM     10  C   UNL     1       5.576   5.594  16.926  0.00  0.00    +0.000 A 
ATOM     11  C   UNL     1       6.764   5.759  16.195  0.00  0.00    +0.000 A 
ATOM     12  F   UNL     1       7.669   6.677  16.566  0.00  0.00    +0.000 F 
ATOM     13  C   UNL     1       7.006   4.942  15.093  0.00  0.00    +0.000 A 
ATOM     14  F   UNL     1       8.156   5.059  14.414  0.00  0.00    +0.000 F 
ATOM     15  C   UNL     1       6.077   3.990  14.684  0.00  0.00    +0.000 A 
ATOM     16  C   UNL     1       4.879   3.815  15.383  0.00  0.00    +0.000 A 
ATOM     17  C   UNL     1       4.670   4.619  16.510  0.00  0.00    +0.000 A 
ATOM     18  N   UNL     1       3.643   4.614  17.422  0.00  0.00    +0.000 N 
ATOM     19  H   UNL     1       2.895   3.937  17.410  0.00  0.00    +0.000 HD
ENDBRANCH   2   8
BRANCH   6  20
ATOM     20  C   UNL     1       0.275   9.761  21.166  0.00  0.00    +0.000 A 
ATOM     21  C   UNL     1      -0.037   9.376  22.479  0.00  0.00    +0.000 A 
ATOM     22  C   UNL     1      -0.817  10.183  23.302  0.00  0.00    +0.000 A 
ATOM     23  C   UNL     1      -1.291  11.401  22.826  0.00  0.00    +0.000 A 
ATOM     24  C   UNL     1      -0.969  11.815  21.535  0.00  0.00    +0.000 A 
ATOM     25  C   UNL     1      -0.184  11.003  20.712  0.00  0.00    +0.000 A 
ENDBRANCH   6  20
TORSDOF 2
ENDMDL
MODEL 3
REMARK VINA RESULT:      -7.9      0.818      1.303
REMARK  Name = 
REMARK  2 active torsions:
REMARK  status: ('A' for Active; 'I' for Inactive)
REMARK    1  A    between atoms: C_2  and  C_3
REMARK    2  A    between atoms: C_17  and  C_18
REMARK                            x       y       z     vdW  Elec       q    Type
REMARK                         _______ _______ _______ _____ _____    ______ ____
ROOT
ATOM      1  O   UNL     1       3.037   5.004  20.479  0.00  0.00    +0.000 OA
ATOM      2  C   UNL     1       3.141   5.754  19.509  0.00  0.00    +0.000 C 
ATOM      3  N   UNL     1       2.407   6.925  19.444  0.00  0.00    +0.000 N 
ATOM      4  C   UNL     1       2.497   7.962  18.439  0.00  0.00    +0.000 C 
ATOM      5  C   UNL     1       1.657   9.041  18.999  0.00  0.00    +0.000 C 
ATOM      6  C   UNL     1       1.182   8.717  20.209  0.00  0.00    +0.000 C 
ATOM      7  C   UNL     1       1.686   7.373  20.632  0.00  0.00    +0.000 C 
ENDROOT
BRANCH   2   8
ATOM      8  C   UNL     1       4.080   5.467  18.437  0.00  0.00    +0.000 A 
ATOM      9  C   UNL     1       3.779   4.904  17.206  0.00  0.00    +0.000 A 
ATOM     10  C   UNL     1       4.968   4.829  16.433  0.00  0.00    +0.000 A 
ATOM     11  C   UNL     1       5.274   4.394  15.133  0.00  0.00    +0.000 A 
ATOM     12  F   UNL     1       4.313   3.907  14.334  0.00  0.00    +0.000 F 
ATOM     13  C   UNL     1       6.584   4.498  14.671  0.00  0.00    +0.000 A 
ATOM     14  F   UNL     1       6.881   4.129  13.417  0.00  0.00    +0.000 F 
ATOM     15  C   UNL     1       7.599   4.991  15.485  0.00  0.00    +0.000 A 
ATOM     16  C   UNL     1       7.325   5.415  16.789  0.00  0.00    +0.000 A 
ATOM     17  C   UNL     1       5.996   5.339  17.223  0.00  0.00    +0.000 A 
ATOM     18  N   UNL     1       5.426   5.751  18.403  0.00  0.00    +0.000 N 
ATOM     19  H   UNL     1       5.934   6.246  19.120  0.00  0.00    +0.000 HD
ENDBRANCH   2   8
BRANCH   6  20
ATOM     20  C   UNL     1       0.359   9.597  21.038  0.00  0.00    +0.000 A 
ATOM     21  C   UNL     1       0.202   9.340  22.409  0.00  0.00    +0.000 A 
ATOM     22  C   UNL     1      -0.625  10.130  23.202  0.00  0.00    +0.000 A 
ATOM     23  C   UNL     1      -1.304  11.205  22.635  0.00  0.00    +0.000 A 
ATOM     24  C   UNL     1      -1.139  11.494  21.282  0.00  0.00    +0.000 A 
ATOM     25  C   UNL     1      -0.305  10.700  20.489  0.00  0.00    +0.000 A 
ENDBRANCH   6  20
TORSDOF 2
ENDMDL
MODEL 4
REMARK VINA RESULT:      -7.8      2.534      3.025
REMARK  Name = 
REMARK  2 active torsions:
REMARK  status: ('A' for Active; 'I' for Inactive)
REMARK    1  A    between atoms: C_2  and  C_3
REMARK    2  A    between atoms: C_17  and  C_18
REMARK                            x       y       z     vdW  Elec       q    Type
REMARK                         _______ _______ _______ _____ _____    ______ ____
ROOT
ATOM      1  O   UNL     1       2.306   8.710  17.836  0.00  0.00    +0.000 OA
ATOM      2  C   UNL     1       2.127   8.036  18.849  0.00  0.00    +0.000 C 
ATOM      3  N   UNL     1       1.475   8.575  19.945  0.00  0.00    +0.000 N 
ATOM      4  C   UNL     1       1.087   7.888  21.158  0.00  0.00    +0.000 C 
ATOM      5  C   UNL     1       0.250   8.890  21.851  0.00  0.00    +0.000 C 
ATOM      6  C   UNL     1       0.104  10.001  21.118  0.00  0.00    +0.000 C 
ATOM      7  C   UNL     1       0.805   9.864  19.804  0.00  0.00    +0.000 C 
ENDROOT
BRANCH   2   8
ATOM      8  C   UNL     1       2.535   6.642  18.903  0.00  0.00    +0.000 A 
ATOM      9  C   UNL     1       2.223   5.655  17.981  0.00  0.00    +0.000 A 
ATOM     10  C   UNL     1       2.846   4.443  18.378  0.00  0.00    +0.000 A 
ATOM     11  C   UNL     1       2.917   3.147  17.840  0.00  0.00    +0.000 A 
ATOM     12  F   UNL     1       2.287   2.850  16.694  0.00  0.00    +0.000 F 
ATOM     13  C   UNL     1       3.672   2.177  18.497  0.00  0.00    +0.000 A 
ATOM     14  F   UNL     1       3.785   0.949  17.971  0.00  0.00    +0.000 F 
ATOM     15  C   UNL     1       4.326   2.459  19.692  0.00  0.00    +0.000 A 
ATOM     16  C   UNL     1       4.258   3.736  20.259  0.00  0.00    +0.000 A 
ATOM     17  C   UNL     1       3.528   4.708  19.565  0.00  0.00    +0.000 A 
ATOM     18  N   UNL     1       3.356   6.045  19.832  0.00  0.00    +0.000 N 
ATOM     19  H   UNL     1       3.824   6.522  20.588  0.00  0.00    +0.000 HD
ENDBRANCH   2   8
BRANCH   6  20
ATOM     20  C   UNL     1      -0.708  11.152  21.514  0.00  0.00    +0.000 A 
ATOM     21  C   UNL     1      -1.216  11.248  22.819  0.00  0.00    +0.000 A 
ATOM     22  C   UNL     1      -2.039  12.304  23.197  0.00  0.00    +0.000 A 
ATOM     23  C   UNL     1      -2.361  13.294  22.274  0.00  0.00    +0.000 A 
ATOM     24  C   UNL     1      -1.844  13.232  20.981  0.00  0.00    +0.000 A 
ATOM     25  C   UNL     1      -1.015  12.171  20.606  0.00  0.00    +0.000 A 
ENDBRANCH   6  20
TORSDOF 2
ENDMDL
MODEL 5
REMARK VINA RESULT:      -7.8      2.203      2.988
REMARK  Name = 
REMARK  2 active torsions:
REMARK  status: ('A' for Active; 'I' for Inactive)
REMARK    1  A    between atoms: C_2  and  C_3
REMARK    2  A    between atoms: C_17  and  C_18
REMARK                            x       y       z     vdW  Elec       q    Type
REMARK                         _______ _______ _______ _____ _____    ______ ____
ROOT
ATOM      1  O   UNL     1       2.001   9.609  17.314  0.00  0.00    +0.000 OA
ATOM      2  C   UNL     1       2.019   8.801  18.241  0.00  0.00    +0.000 C 
ATOM      3  N   UNL     1       1.431   9.112  19.455  0.00  0.00    +0.000 N 
ATOM      4  C   UNL     1       1.266   8.240  20.598  0.00  0.00    +0.000 C 
ATOM      5  C   UNL     1       0.395   9.030  21.493  0.00  0.00    +0.000 C 
ATOM      6  C   UNL     1       0.033  10.191  20.931  0.00  0.00    +0.000 C 
ATOM      7  C   UNL     1       0.597  10.306  19.550  0.00  0.00    +0.000 C 
ENDROOT
BRANCH   2   8
ATOM      8  C   UNL     1       2.598   7.479  18.072  0.00  0.00    +0.000 A 
ATOM      9  C   UNL     1       1.968   6.266  18.311  0.00  0.00    +0.000 A 
ATOM     10  C   UNL     1       2.863   5.213  17.986  0.00  0.00    +0.000 A 
ATOM     11  C   UNL     1       2.781   3.811  17.990  0.00  0.00    +0.000 A 
ATOM     12  F   UNL     1       1.654   3.196  18.378  0.00  0.00    +0.000 F 
ATOM     13  C   UNL     1       3.875   3.063  17.562  0.00  0.00    +0.000 A 
ATOM     14  F   UNL     1       3.794   1.726  17.519  0.00  0.00    +0.000 F 
ATOM     15  C   UNL     1       5.058   3.678  17.165  0.00  0.00    +0.000 A 
ATOM     16  C   UNL     1       5.174   5.071  17.167  0.00  0.00    +0.000 A 
ATOM     17  C   UNL     1       4.051   5.808  17.563  0.00  0.00    +0.000 A 
ATOM     18  N   UNL     1       3.847   7.167  17.587  0.00  0.00    +0.000 N 
ATOM     19  H   UNL     1       4.519   7.833  17.238  0.00  0.00    +0.000 HD
ENDBRANCH   2   8
BRANCH   6  20
ATOM     20  C   UNL     1      -0.864  11.166  21.550  0.00  0.00    +0.000 A 
ATOM     21  C   UNL     1      -1.220  11.045  22.902  0.00  0.00    +0.000 A 
ATOM     22  C   UNL     1      -2.120  11.928  23.493  0.00  0.00    +0.000 A 
ATOM     23  C   UNL     1      -2.673  12.958  22.739  0.00  0.00    +0.000 A 
ATOM     24  C   UNL     1      -2.311  13.112  21.403  0.00  0.00    +0.000 A 
ATOM     25  C   UNL     1      -1.405  12.225  20.813  0.00  0.00    +0.000 A 
ENDBRANCH   6  20
TORSDOF 2
ENDMDL
MODEL 6
REMARK VINA RESULT:      -7.8      0.881      1.312
REMARK  Name = 
REMARK  2 active torsions:
REMARK  status: ('A' for Active; 'I' for Inactive)
REMARK    1  A    between atoms: C_2  and  C_3
REMARK    2  A    between atoms: C_17  and  C_18
REMARK                            x       y       z     vdW  Elec       q    Type
REMARK                         _______ _______ _______ _____ _____    ______ ____
ROOT
ATOM      1  O   UNL     1       2.074   5.638  20.837  0.00  0.00    +0.000 OA
ATOM      2  C   UNL     1       2.425   6.371  19.913  0.00  0.00    +0.000 C 
ATOM      3  N   UNL     1       1.819   7.600  19.722  0.00  0.00    +0.000 N 
ATOM      4  C   UNL     1       2.187   8.620  18.764  0.00  0.00    +0.000 C 
ATOM      5  C   UNL     1       1.350   9.769  19.165  0.00  0.00    +0.000 C 
ATOM      6  C   UNL     1       0.627   9.494  20.260  0.00  0.00    +0.000 C 
ATOM      7  C   UNL     1       0.925   8.115  20.755  0.00  0.00    +0.000 C 
ENDROOT
BRANCH   2   8
ATOM      8  C   UNL     1       3.523   5.999  19.037  0.00  0.00    +0.000 A 
ATOM      9  C   UNL     1       3.619   6.259  17.678  0.00  0.00    +0.000 A 
ATOM     10  C   UNL     1       4.863   5.767  17.203  0.00  0.00    +0.000 A 
ATOM     11  C   UNL     1       5.515   5.768  15.959  0.00  0.00    +0.000 A 
ATOM     12  F   UNL     1       4.933   6.324  14.886  0.00  0.00    +0.000 F 
ATOM     13  C   UNL     1       6.786   5.208  15.856  0.00  0.00    +0.000 A 
ATOM     14  F   UNL     1       7.438   5.243  14.685  0.00  0.00    +0.000 F 
ATOM     15  C   UNL     1       7.406   4.618  16.952  0.00  0.00    +0.000 A 
ATOM     16  C   UNL     1       6.772   4.587  18.198  0.00  0.00    +0.000 A 
ATOM     17  C   UNL     1       5.512   5.189  18.293  0.00  0.00    +0.000 A 
ATOM     18  N   UNL     1       4.702   5.380  19.386  0.00  0.00    +0.000 N 
ATOM     19  H   UNL     1       4.976   5.139  20.327  0.00  0.00    +0.000 HD
ENDBRANCH   2   8
BRANCH   6  20
ATOM     20  C   UNL     1      -0.261  10.446  20.926  0.00  0.00    +0.000 A 
ATOM     21  C   UNL     1      -0.368  10.458  22.325  0.00  0.00    +0.000 A 
ATOM     22  C   UNL     1      -1.253  11.315  22.974  0.00  0.00    +0.000 A 
ATOM     23  C   UNL     1      -2.041  12.187  22.230  0.00  0.00    +0.000 A 
ATOM     24  C   UNL     1      -1.929  12.210  20.841  0.00  0.00    +0.000 A 
ATOM     25  C   UNL     1      -1.038  11.350  20.193  0.00  0.00    +0.000 A 
ENDBRANCH   6  20
TORSDOF 2
ENDMDL
MODEL 7
REMARK VINA RESULT:      -7.7      2.650      4.127
REMARK  Name = 
REMARK  2 active torsions:
REMARK  status: ('A' for Active; 'I' for Inactive)
REMARK    1  A    between atoms: C_2  and  C_3
REMARK    2  A    between atoms: C_17  and  C_18
REMARK                            x       y       z     vdW  Elec       q    Type
REMARK                         _______ _______ _______ _____ _____    ______ ____
ROOT
ATOM      1  O   UNL     1       1.318  10.533  19.163  0.00  0.00    +0.000 OA
ATOM      2  C   UNL     1       1.164   9.704  20.059  0.00  0.00    +0.000 C 
ATOM      3  N   UNL     1       0.503  10.046  21.226  0.00  0.00    +0.000 N 
ATOM      4  C   UNL     1       0.141   9.168  22.317  0.00  0.00    +0.000 C 
ATOM      5  C   UNL     1      -0.721  10.024  23.159  0.00  0.00    +0.000 C 
ATOM      6  C   UNL     1      -0.904  11.231  22.608  0.00  0.00    +0.000 C 
ATOM      7  C   UNL     1      -0.205  11.321  21.289  0.00  0.00    +0.000 C 
ENDROOT
BRANCH   2   8
ATOM      8  C   UNL     1       1.613   8.332  19.895  0.00  0.00    +0.000 A 
ATOM      9  C   UNL     1       2.243   7.797  18.781  0.00  0.00    +0.000 A 
ATOM     10  C   UNL     1       2.553   6.436  19.039  0.00  0.00    +0.000 A 
ATOM     11  C   UNL     1       3.201   5.419  18.319  0.00  0.00    +0.000 A 
ATOM     12  F   UNL     1       3.678   5.652  17.088  0.00  0.00    +0.000 F 
ATOM     13  C   UNL     1       3.368   4.167  18.909  0.00  0.00    +0.000 A 
ATOM     14  F   UNL     1       4.024   3.201  18.252  0.00  0.00    +0.000 F 
ATOM     15  C   UNL     1       2.873   3.899  20.182  0.00  0.00    +0.000 A 
ATOM     16  C   UNL     1       2.209   4.888  20.913  0.00  0.00    +0.000 A 
ATOM     17  C   UNL     1       2.086   6.150  20.320  0.00  0.00    +0.000 A 
ATOM     18  N   UNL     1       1.564   7.318  20.824  0.00  0.00    +0.000 N 
ATOM     19  H   UNL     1       1.240   7.414  21.774  0.00  0.00    +0.000 HD
ENDBRANCH   2   8
BRANCH   6  20
ATOM     20  C   UNL     1      -1.746  12.282  23.179  0.00  0.00    +0.000 A 
ATOM     21  C   UNL     1      -1.241  13.579  23.357  0.00  0.00    +0.000 A 
ATOM     22  C   UNL     1      -2.006  14.576  23.954  0.00  0.00    +0.000 A 
ATOM     23  C   UNL     1      -3.302  14.293  24.376  0.00  0.00    +0.000 A 
ATOM     24  C   UNL     1      -3.832  13.019  24.183  0.00  0.00    +0.000 A 
ATOM     25  C   UNL     1      -3.061  12.021  23.581  0.00  0.00    +0.000 A 
ENDBRANCH   6  20
TORSDOF 2
ENDMDL
MODEL 8
REMARK VINA RESULT:      -7.7      2.687      3.348
REMARK  Name = 
REMARK  2 active torsions:
REMARK  status: ('A' for Active; 'I' for Inactive)
REMARK    1  A    between atoms: C_2  and  C_3
REMARK    2  A    between atoms: C_17  and  C_18
REMARK                            x       y       z     vdW  Elec       q    Type
REMARK                         _______ _______ _______ _____ _____    ______ ____
ROOT
ATOM      1  O   UNL     1       2.285   8.765  17.454  0.00  0.00    +0.000 OA
ATOM      2  C   UNL     1       2.170   8.072  18.464  0.00  0.00    +0.000 C 
ATOM      3  N   UNL     1       1.727   8.628  19.651  0.00  0.00    +0.000 N 
ATOM      4  C   UNL     1       1.430   7.936  20.887  0.00  0.00    +0.000 C 
ATOM      5  C   UNL     1       0.800   8.987  21.712  0.00  0.00    +0.000 C 
ATOM      6  C   UNL     1       0.676  10.136  21.035  0.00  0.00    +0.000 C 
ATOM      7  C   UNL     1       1.183   9.982  19.637  0.00  0.00    +0.000 C 
ENDROOT
BRANCH   2   8
ATOM      8  C   UNL     1       2.434   6.643  18.426  0.00  0.00    +0.000 A 
ATOM      9  C   UNL     1       3.570   6.001  18.897  0.00  0.00    +0.000 A 
ATOM     10  C   UNL     1       3.417   4.603  18.709  0.00  0.00    +0.000 A 
ATOM     11  C   UNL     1       4.199   3.475  19.009  0.00  0.00    +0.000 A 
ATOM     12  F   UNL     1       5.393   3.613  19.604  0.00  0.00    +0.000 F 
ATOM     13  C   UNL     1       3.710   2.206  18.706  0.00  0.00    +0.000 A 
ATOM     14  F   UNL     1       4.426   1.120  19.028  0.00  0.00    +0.000 F 
ATOM     15  C   UNL     1       2.479   2.038  18.080  0.00  0.00    +0.000 A 
ATOM     16  C   UNL     1       1.687   3.144  17.754  0.00  0.00    +0.000 A 
ATOM     17  C   UNL     1       2.177   4.409  18.102  0.00  0.00    +0.000 A 
ATOM     18  N   UNL     1       1.594   5.647  17.983  0.00  0.00    +0.000 N 
ATOM     19  H   UNL     1       0.649   5.785  17.659  0.00  0.00    +0.000 HD
ENDBRANCH   2   8
BRANCH   6  20
ATOM     20  C   UNL     1       0.049  11.346  21.567  0.00  0.00    +0.000 A 
ATOM     21  C   UNL     1       0.466  12.613  21.132  0.00  0.00    +0.000 A 
ATOM     22  C   UNL     1      -0.076  13.777  21.670  0.00  0.00    +0.000 A 
ATOM     23  C   UNL     1      -1.060  13.691  22.651  0.00  0.00    +0.000 A 
ATOM     24  C   UNL     1      -1.508  12.442  23.076  0.00  0.00    +0.000 A 
ATOM     25  C   UNL     1      -0.963  11.276  22.531  0.00  0.00    +0.000 A 
ENDBRANCH   6  20
TORSDOF 2
ENDMDL
MODEL 9
REMARK VINA RESULT:      -7.7      2.214      2.809
REMARK  Name = 
REMARK  2 active torsions:
REMARK  status: ('A' for Active; 'I' for Inactive)
REMARK    1  A    between atoms: C_2  and  C_3
REMARK    2  A    between atoms: C_17  and  C_18
REMARK                            x       y       z     vdW  Elec       q    Type
REMARK                         _______ _______ _______ _____ _____    ______ ____
ROOT
ATOM      1  O   UNL     1       1.988   9.410  17.265  0.00  0.00    +0.000 OA
ATOM      2  C   UNL     1       2.023   8.646  18.229  0.00  0.00    +0.000 C 
ATOM      3  N   UNL     1       1.478   9.023  19.444  0.00  0.00    +0.000 N 
ATOM      4  C   UNL     1       1.335   8.208  20.632  0.00  0.00    +0.000 C 
ATOM      5  C   UNL     1       0.505   9.052  21.515  0.00  0.00    +0.000 C 
ATOM      6  C   UNL     1       0.143  10.191  20.909  0.00  0.00    +0.000 C 
ATOM      7  C   UNL     1       0.665  10.233  19.508  0.00  0.00    +0.000 C 
ENDROOT
BRANCH   2   8
ATOM      8  C   UNL     1       2.576   7.308  18.105  0.00  0.00    +0.000 A 
ATOM      9  C   UNL     1       1.878   6.114  18.204  0.00  0.00    +0.000 A 
ATOM     10  C   UNL     1       2.776   5.037  17.982  0.00  0.00    +0.000 A 
ATOM     11  C   UNL     1       2.647   3.639  17.926  0.00  0.00    +0.000 A 
ATOM     12  F   UNL     1       1.454   3.057  18.118  0.00  0.00    +0.000 F 
ATOM     13  C   UNL     1       3.769   2.863  17.644  0.00  0.00    +0.000 A 
ATOM     14  F   UNL     1       3.651   1.531  17.544  0.00  0.00    +0.000 F 
ATOM     15  C   UNL     1       5.019   3.443  17.452  0.00  0.00    +0.000 A 
ATOM     16  C   UNL     1       5.179   4.831  17.519  0.00  0.00    +0.000 A 
ATOM     17  C   UNL     1       4.034   5.598  17.765  0.00  0.00    +0.000 A 
ATOM     18  N   UNL     1       3.874   6.962  17.804  0.00  0.00    +0.000 N 
ATOM     19  H   UNL     1       4.613   7.612  17.584  0.00  0.00    +0.000 HD
ENDBRANCH   2   8
BRANCH   6  20
ATOM     20  C   UNL     1      -0.720  11.209  21.509  0.00  0.00    +0.000 A 
ATOM     21  C   UNL     1      -1.107  12.338  20.770  0.00  0.00    +0.000 A 
ATOM     22  C   UNL     1      -1.876  13.346  21.341  0.00  0.00    +0.000 A 
ATOM     23  C   UNL     1      -2.284  13.236  22.668  0.00  0.00    +0.000 A 
ATOM     24  C   UNL     1      -1.935  12.110  23.410  0.00  0.00    +0.000 A 
ATOM     25  C   UNL     1      -1.163  11.098  22.831  0.00  0.00    +0.000 A 
ENDBRANCH   6  20
TORSDOF 2
ENDMDL
