MODEL 1
REMARK VINA RESULT:      -8.2      0.000      0.000
REMARK  Name = 
REMARK  7 active torsions:
REMARK  status: ('A' for Active; 'I' for Inactive)
REMARK    1  A    between atoms: C_1  and  N_2
REMARK    2  A    between atoms: C_3  and  C_4
REMARK    3  A    between atoms: N_6  and  C_7
REMARK    4  A    between atoms: C_7  and  C_8
REMARK    5  A    between atoms: C_8  and  C_9
REMARK    6  A    between atoms: C_12  and  S_13
REMARK    7  A    between atoms: S_13  and  N_14
REMARK                            x       y       z     vdW  Elec       q    Type
REMARK                         _______ _______ _______ _____ _____    ______ ____
ROOT
ATOM      1  C   UNL     1       1.760   5.348  20.694  0.00  0.00    +0.000 C 
ATOM      2  O   UNL     1       2.515   4.869  21.533  0.00  0.00    +0.000 OA
ATOM      3  N   UNL     1       1.080   4.518  19.812  0.00  0.00    +0.000 N 
ATOM      4  H   UNL     1       0.385   4.899  19.190  0.00  0.00    +0.000 HD
ENDROOT
BRANCH   1   7
ATOM      5  C   UNL     1       2.729   7.194  18.337  0.00  0.00    +0.000 C 
ATOM      6  N   UNL     1       1.943   7.587  19.488  0.00  0.00    +0.000 N 
ATOM      7  C   UNL     1       1.511   6.777  20.544  0.00  0.00    +0.000 A 
ATOM      8  C   UNL     1       0.800   7.612  21.400  0.00  0.00    +0.000 A 
ATOM      9  C   UNL     1       0.800   8.908  20.855  0.00  0.00    +0.000 A 
ATOM     10  C   UNL     1       0.216  10.139  21.317  0.00  0.00    +0.000 A 
ATOM     11  O   UNL     1      -0.418  10.192  22.364  0.00  0.00    +0.000 OA
ATOM     12  N   UNL     1       0.453  11.221  20.454  0.00  0.00    +0.000 N 
ATOM     13  C   UNL     1      -0.075  12.458  20.808  0.00  0.00    +0.000 A 
ATOM     14  C   UNL     1       0.096  13.547  20.053  0.00  0.00    +0.000 A 
ATOM     15  C   UNL     1       0.846  13.458  18.829  0.00  0.00    +0.000 A 
ATOM     16  C   UNL     1       1.379  12.293  18.437  0.00  0.00    +0.000 A 
ATOM     17  C   UNL     1       1.202  11.060  19.266  0.00  0.00    +0.000 A 
ATOM     18  N   UNL     1       1.735   9.932  18.855  0.00  0.00    +0.000 NA
ATOM     19  C   UNL     1       1.505   8.883  19.682  0.00  0.00    +0.000 A 
ENDBRANCH   1   7
BRANCH   3  20
ATOM     20  C   UNL     1       1.266   3.079  19.914  0.00  0.00    +0.000 C 
BRANCH  20  21
ATOM     21  C   UNL     1       1.984   2.439  18.722  0.00  0.00    +0.000 C 
BRANCH  21  22
ATOM     22  C   UNL     1       3.238   3.187  18.306  0.00  0.00    +0.000 A 
ATOM     23  C   UNL     1       3.347   3.689  16.998  0.00  0.00    +0.000 A 
ATOM     24  C   UNL     1       4.532   4.292  16.561  0.00  0.00    +0.000 A 
ATOM     25  C   UNL     1       5.608   4.415  17.441  0.00  0.00    +0.000 A 
ATOM     26  C   UNL     1       5.497   3.983  18.762  0.00  0.00    +0.000 A 
ATOM     27  C   UNL     1       4.317   3.364  19.184  0.00  0.00    +0.000 A 
BRANCH  25  28
ATOM     28  S   UNL     1       7.154   5.053  16.858  0.00  0.00    +0.000 S 
ATOM     29  O   UNL     1       7.309   4.662  15.470  0.00  0.00    +0.000 OA
ATOM     30  O   UNL     1       7.289   6.415  17.305  0.00  0.00    +0.000 OA
BRANCH  28  31
ATOM     31  N   UNL     1       8.212   4.137  17.751  0.00  0.00    +0.000 NA
ATOM     32  H   UNL     1       7.996   3.157  17.879  0.00  0.00    +0.000 HD
ATOM     33  H   UNL     1       8.889   4.631  18.320  0.00  0.00    +0.000 HD
ENDBRANCH  28  31
ENDBRANCH  25  28
ENDBRANCH  21  22
ENDBRANCH  20  21
ENDBRANCH   3  20
TORSDOF 6
ENDMDL
MODEL 2
REMARK VINA RESULT:      -8.0      0.685      1.118
REMARK  Name = 
REMARK  7 active torsions:
REMARK  status: ('A' for Active; 'I' for Inactive)
REMARK    1  A    between atoms: C_1  and  N_2
REMARK    2  A    between atoms: C_3  and  C_4
REMARK    3  A    between atoms: N_6  and  C_7
REMARK    4  A    between atoms: C_7  and  C_8
REMARK    5  A    between atoms: C_8  and  C_9
REMARK    6  A    between atoms: C_12  and  S_13
REMARK    7  A    between atoms: S_13  and  N_14
REMARK                            x       y       z     vdW  Elec       q    Type
REMARK                         _______ _______ _______ _____ _____    ______ ____
ROOT
ATOM      1  C   UNL     1       1.795   5.263  20.679  0.00  0.00    +0.000 C 
ATOM      2  O   UNL     1       2.520   4.779  21.542  0.00  0.00    +0.000 OA
ATOM      3  N   UNL     1       1.156   4.438  19.762  0.00  0.00    +0.000 N 
ATOM      4  H   UNL     1       0.483   4.822  19.117  0.00  0.00    +0.000 HD
ENDROOT
BRANCH   1   7
ATOM      5  C   UNL     1       2.776   7.127  18.342  0.00  0.00    +0.000 C 
ATOM      6  N   UNL     1       1.979   7.509  19.489  0.00  0.00    +0.000 N 
ATOM      7  C   UNL     1       1.541   6.691  20.536  0.00  0.00    +0.000 A 
ATOM      8  C   UNL     1       0.819   7.518  21.391  0.00  0.00    +0.000 A 
ATOM      9  C   UNL     1       0.818   8.817  20.854  0.00  0.00    +0.000 A 
ATOM     10  C   UNL     1       0.225  10.043  21.319  0.00  0.00    +0.000 A 
ATOM     11  O   UNL     1      -0.418  10.087  22.360  0.00  0.00    +0.000 OA
ATOM     12  N   UNL     1       0.465  11.131  20.465  0.00  0.00    +0.000 N 
ATOM     13  C   UNL     1      -0.071  12.364  20.822  0.00  0.00    +0.000 A 
ATOM     14  C   UNL     1       0.101  13.458  20.075  0.00  0.00    +0.000 A 
ATOM     15  C   UNL     1       0.862  13.380  18.857  0.00  0.00    +0.000 A 
ATOM     16  C   UNL     1       1.403  12.220  18.463  0.00  0.00    +0.000 A 
ATOM     17  C   UNL     1       1.225  10.980  19.282  0.00  0.00    +0.000 A 
ATOM     18  N   UNL     1       1.766   9.858  18.869  0.00  0.00    +0.000 NA
ATOM     19  C   UNL     1       1.534   8.803  19.687  0.00  0.00    +0.000 A 
ENDBRANCH   1   7
BRANCH   3  20
ATOM     20  C   UNL     1       1.349   2.999  19.854  0.00  0.00    +0.000 C 
BRANCH  20  21
ATOM     21  C   UNL     1       2.047   2.366  18.647  0.00  0.00    +0.000 C 
BRANCH  21  22
ATOM     22  C   UNL     1       3.292   3.120  18.212  0.00  0.00    +0.000 A 
ATOM     23  C   UNL     1       4.343   3.312  19.125  0.00  0.00    +0.000 A 
ATOM     24  C   UNL     1       5.455   4.088  18.782  0.00  0.00    +0.000 A 
ATOM     25  C   UNL     1       5.529   4.660  17.511  0.00  0.00    +0.000 A 
ATOM     26  C   UNL     1       4.529   4.427  16.568  0.00  0.00    +0.000 A 
ATOM     27  C   UNL     1       3.412   3.666  16.927  0.00  0.00    +0.000 A 
BRANCH  25  28
ATOM     28  S   UNL     1       6.865   5.753  17.114  0.00  0.00    +0.000 S 
ATOM     29  O   UNL     1       6.307   6.948  16.512  0.00  0.00    +0.000 OA
ATOM     30  O   UNL     1       7.775   5.794  18.229  0.00  0.00    +0.000 OA
BRANCH  28  31
ATOM     31  N   UNL     1       7.609   4.891  15.906  0.00  0.00    +0.000 NA
ATOM     32  H   UNL     1       8.468   4.406  16.131  0.00  0.00    +0.000 HD
ATOM     33  H   UNL     1       7.314   5.075  14.954  0.00  0.00    +0.000 HD
ENDBRANCH  28  31
ENDBRANCH  25  28
ENDBRANCH  21  22
ENDBRANCH  20  21
ENDBRANCH   3  20
TORSDOF 6
ENDMDL
MODEL 3
REMARK VINA RESULT:      -8.0      3.990      5.327
REMARK  Name = 
REMARK  7 active torsions:
REMARK  status: ('A' for Active; 'I' for Inactive)
REMARK    1  A    between atoms: C_1  and  N_2
REMARK    2  A    between atoms: C_3  and  C_4
REMARK    3  A    between atoms: N_6  and  C_7
REMARK    4  A    between atoms: C_7  and  C_8
REMARK    5  A    between atoms: C_8  and  C_9
REMARK    6  A    between atoms: C_12  and  S_13
REMARK    7  A    between atoms: S_13  and  N_14
REMARK                            x       y       z     vdW  Elec       q    Type
REMARK                         _______ _______ _______ _____ _____    ______ ____
ROOT
ATOM      1  C   UNL     1       0.183   9.965  19.062  0.00  0.00    +0.000 C 
ATOM      2  O   UNL     1       0.675   9.699  20.154  0.00  0.00    +0.000 OA
ATOM      3  N   UNL     1       0.890   9.705  17.896  0.00  0.00    +0.000 N 
ATOM      4  H   UNL     1       0.450   9.828  16.997  0.00  0.00    +0.000 HD
ENDROOT
BRANCH   1   7
ATOM      5  C   UNL     1      -1.299  11.893  21.060  0.00  0.00    +0.000 C 
ATOM      6  N   UNL     1      -1.785  11.417  19.781  0.00  0.00    +0.000 N 
ATOM      7  C   UNL     1      -1.138  10.556  18.888  0.00  0.00    +0.000 A 
ATOM      8  C   UNL     1      -2.009  10.395  17.814  0.00  0.00    +0.000 A 
ATOM      9  C   UNL     1      -3.161  11.160  18.060  0.00  0.00    +0.000 A 
ATOM     10  C   UNL     1      -4.359  11.360  17.288  0.00  0.00    +0.000 A 
ATOM     11  O   UNL     1      -4.518  10.814  16.203  0.00  0.00    +0.000 OA
ATOM     12  N   UNL     1      -5.279  12.222  17.908  0.00  0.00    +0.000 N 
ATOM     13  C   UNL     1      -6.470  12.485  17.239  0.00  0.00    +0.000 A 
ATOM     14  C   UNL     1      -7.407  13.292  17.746  0.00  0.00    +0.000 A 
ATOM     15  C   UNL     1      -7.196  13.919  19.022  0.00  0.00    +0.000 A 
ATOM     16  C   UNL     1      -6.069  13.702  19.713  0.00  0.00    +0.000 A 
ATOM     17  C   UNL     1      -5.005  12.802  19.167  0.00  0.00    +0.000 A 
ATOM     18  N   UNL     1      -3.910  12.610  19.866  0.00  0.00    +0.000 NA
ATOM     19  C   UNL     1      -3.016  11.783  19.271  0.00  0.00    +0.000 A 
ENDBRANCH   1   7
BRANCH   3  20
ATOM     20  C   UNL     1       2.209   9.099  17.991  0.00  0.00    +0.000 C 
BRANCH  20  21
ATOM     21  C   UNL     1       2.206   7.603  18.318  0.00  0.00    +0.000 C 
BRANCH  21  22
ATOM     22  C   UNL     1       3.426   6.871  17.788  0.00  0.00    +0.000 A 
ATOM     23  C   UNL     1       4.288   7.519  16.887  0.00  0.00    +0.000 A 
ATOM     24  C   UNL     1       5.362   6.834  16.307  0.00  0.00    +0.000 A 
ATOM     25  C   UNL     1       5.590   5.499  16.644  0.00  0.00    +0.000 A 
ATOM     26  C   UNL     1       4.786   4.858  17.586  0.00  0.00    +0.000 A 
ATOM     27  C   UNL     1       3.704   5.545  18.146  0.00  0.00    +0.000 A 
BRANCH  25  28
ATOM     28  S   UNL     1       6.861   4.586  15.815  0.00  0.00    +0.000 S 
ATOM     29  O   UNL     1       6.272   3.371  15.287  0.00  0.00    +0.000 OA
ATOM     30  O   UNL     1       7.631   5.496  15.007  0.00  0.00    +0.000 OA
BRANCH  28  31
ATOM     31  N   UNL     1       7.811   4.154  17.106  0.00  0.00    +0.000 NA
ATOM     32  H   UNL     1       8.718   3.753  16.912  0.00  0.00    +0.000 HD
ATOM     33  H   UNL     1       7.361   4.087  18.012  0.00  0.00    +0.000 HD
ENDBRANCH  28  31
ENDBRANCH  25  28
ENDBRANCH  21  22
ENDBRANCH  20  21
ENDBRANCH   3  20
TORSDOF 6
ENDMDL
MODEL 4
REMARK VINA RESULT:      -8.0      3.951      5.313
REMARK  Name = 
REMARK  7 active torsions:
REMARK  status: ('A' for Active; 'I' for Inactive)
REMARK    1  A    between atoms: C_1  and  N_2
REMARK    2  A    between atoms: C_3  and  C_4
REMARK    3  A    between atoms: N_6  and  C_7
REMARK    4  A    between atoms: C_7  and  C_8
REMARK    5  A    between atoms: C_8  and  C_9
REMARK    6  A    between atoms: C_12  and  S_13
REMARK    7  A    between atoms: S_13  and  N_14
REMARK                            x       y       z     vdW  Elec       q    Type
REMARK                         _______ _______ _______ _____ _____    ______ ____
ROOT
ATOM      1  C   UNL     1       0.381  10.316  19.123  0.00  0.00    +0.000 C 
ATOM      2  O   UNL     1       1.378  10.907  18.722  0.00  0.00    +0.000 OA
ATOM      3  N   UNL     1       0.508   9.099  19.780  0.00  0.00    +0.000 N 
ATOM      4  H   UNL     1      -0.298   8.661  20.198  0.00  0.00    +0.000 HD
ENDROOT
BRANCH   1   7
ATOM      5  C   UNL     1      -1.270  12.022  21.187  0.00  0.00    +0.000 C 
ATOM      6  N   UNL     1      -1.703  11.573  19.880  0.00  0.00    +0.000 N 
ATOM      7  C   UNL     1      -0.980  10.810  18.956  0.00  0.00    +0.000 A 
ATOM      8  C   UNL     1      -1.823  10.636  17.863  0.00  0.00    +0.000 A 
ATOM      9  C   UNL     1      -3.034  11.296  18.128  0.00  0.00    +0.000 A 
ATOM     10  C   UNL     1      -4.235  11.440  17.347  0.00  0.00    +0.000 A 
ATOM     11  O   UNL     1      -4.338  10.937  16.235  0.00  0.00    +0.000 OA
ATOM     12  N   UNL     1      -5.226  12.196  17.993  0.00  0.00    +0.000 N 
ATOM     13  C   UNL     1      -6.426  12.399  17.320  0.00  0.00    +0.000 A 
ATOM     14  C   UNL     1      -7.430  13.104  17.850  0.00  0.00    +0.000 A 
ATOM     15  C   UNL     1      -7.283  13.682  19.159  0.00  0.00    +0.000 A 
ATOM     16  C   UNL     1      -6.151  13.520  19.855  0.00  0.00    +0.000 A 
ATOM     17  C   UNL     1      -5.013  12.733  19.283  0.00  0.00    +0.000 A 
ATOM     18  N   UNL     1      -3.915  12.593  19.989  0.00  0.00    +0.000 NA
ATOM     19  C   UNL     1      -2.953  11.867  19.369  0.00  0.00    +0.000 A 
ENDBRANCH   1   7
BRANCH   3  20
ATOM     20  C   UNL     1       1.838   8.551  19.998  0.00  0.00    +0.000 C 
BRANCH  20  21
ATOM     21  C   UNL     1       1.914   7.022  19.977  0.00  0.00    +0.000 C 
BRANCH  21  22
ATOM     22  C   UNL     1       3.051   6.490  19.124  0.00  0.00    +0.000 A 
ATOM     23  C   UNL     1       3.848   5.438  19.605  0.00  0.00    +0.000 A 
ATOM     24  C   UNL     1       4.964   4.998  18.883  0.00  0.00    +0.000 A 
ATOM     25  C   UNL     1       5.274   5.600  17.662  0.00  0.00    +0.000 A 
ATOM     26  C   UNL     1       4.458   6.600  17.136  0.00  0.00    +0.000 A 
ATOM     27  C   UNL     1       3.357   7.045  17.873  0.00  0.00    +0.000 A 
BRANCH  25  28
ATOM     28  S   UNL     1       6.758   5.144  16.808  0.00  0.00    +0.000 S 
ATOM     29  O   UNL     1       6.418   4.140  15.819  0.00  0.00    +0.000 OA
ATOM     30  O   UNL     1       7.492   6.340  16.487  0.00  0.00    +0.000 OA
BRANCH  28  31
ATOM     31  N   UNL     1       7.582   4.376  18.029  0.00  0.00    +0.000 NA
ATOM     32  H   UNL     1       7.481   3.373  18.108  0.00  0.00    +0.000 HD
ATOM     33  H   UNL     1       7.951   4.954  18.775  0.00  0.00    +0.000 HD
ENDBRANCH  28  31
ENDBRANCH  25  28
ENDBRANCH  21  22
ENDBRANCH  20  21
ENDBRANCH   3  20
TORSDOF 6
ENDMDL
MODEL 5
REMARK VINA RESULT:      -7.9      4.281      6.288
REMARK  Name = 
REMARK  7 active torsions:
REMARK  status: ('A' for Active; 'I' for Inactive)
REMARK    1  A    between atoms: C_1  and  N_2
REMARK    2  A    between atoms: C_3  and  C_4
REMARK    3  A    between atoms: N_6  and  C_7
REMARK    4  A    between atoms: C_7  and  C_8
REMARK    5  A    between atoms: C_8  and  C_9
REMARK    6  A    between atoms: C_12  and  S_13
REMARK    7  A    between atoms: S_13  and  N_14
REMARK                            x       y       z     vdW  Elec       q    Type
REMARK                         _______ _______ _______ _____ _____    ______ ____
ROOT
ATOM      1  C   UNL     1      -0.028  10.422  19.398  0.00  0.00    +0.000 C 
ATOM      2  O   UNL     1       0.407  10.112  20.502  0.00  0.00    +0.000 OA
ATOM      3  N   UNL     1       0.769  10.279  18.269  0.00  0.00    +0.000 N 
ATOM      4  H   UNL     1       0.382  10.436  17.352  0.00  0.00    +0.000 HD
ENDROOT
BRANCH   1   7
ATOM      5  C   UNL     1      -1.702  12.232  21.352  0.00  0.00    +0.000 C 
ATOM      6  N   UNL     1      -2.102  11.756  20.044  0.00  0.00    +0.000 N 
ATOM      7  C   UNL     1      -1.369  10.946  19.169  0.00  0.00    +0.000 A 
ATOM      8  C   UNL     1      -2.178  10.761  18.053  0.00  0.00    +0.000 A 
ATOM      9  C   UNL     1      -3.380  11.460  18.256  0.00  0.00    +0.000 A 
ATOM     10  C   UNL     1      -4.548  11.611  17.430  0.00  0.00    +0.000 A 
ATOM     11  O   UNL     1      -4.627  11.078  16.330  0.00  0.00    +0.000 OA
ATOM     12  N   UNL     1      -5.540  12.413  18.018  0.00  0.00    +0.000 N 
ATOM     13  C   UNL     1      -6.711  12.626  17.297  0.00  0.00    +0.000 A 
ATOM     14  C   UNL     1      -7.712  13.373  17.771  0.00  0.00    +0.000 A 
ATOM     15  C   UNL     1      -7.595  13.987  19.066  0.00  0.00    +0.000 A 
ATOM     16  C   UNL     1      -6.492  13.816  19.807  0.00  0.00    +0.000 A 
ATOM     17  C   UNL     1      -5.357  12.983  19.298  0.00  0.00    +0.000 A 
ATOM     18  N   UNL     1      -4.289  12.835  20.046  0.00  0.00    +0.000 NA
ATOM     19  C   UNL     1      -3.325  12.067  19.482  0.00  0.00    +0.000 A 
ENDBRANCH   1   7
BRANCH   3  20
ATOM     20  C   UNL     1       2.113   9.745  18.418  0.00  0.00    +0.000 C 
BRANCH  20  21
ATOM     21  C   UNL     1       2.405   8.499  17.578  0.00  0.00    +0.000 C 
BRANCH  21  22
ATOM     22  C   UNL     1       2.436   7.219  18.395  0.00  0.00    +0.000 A 
ATOM     23  C   UNL     1       2.728   5.998  17.764  0.00  0.00    +0.000 A 
ATOM     24  C   UNL     1       2.663   4.794  18.474  0.00  0.00    +0.000 A 
ATOM     25  C   UNL     1       2.325   4.810  19.828  0.00  0.00    +0.000 A 
ATOM     26  C   UNL     1       2.096   6.016  20.488  0.00  0.00    +0.000 A 
ATOM     27  C   UNL     1       2.144   7.213  19.766  0.00  0.00    +0.000 A 
BRANCH  25  28
ATOM     28  S   UNL     1       2.108   3.283  20.699  0.00  0.00    +0.000 S 
ATOM     29  O   UNL     1       2.856   2.255  20.001  0.00  0.00    +0.000 OA
ATOM     30  O   UNL     1       2.254   3.532  22.110  0.00  0.00    +0.000 OA
BRANCH  28  31
ATOM     31  N   UNL     1       0.497   3.002  20.415  0.00  0.00    +0.000 NA
ATOM     32  H   UNL     1       0.034   3.570  19.717  0.00  0.00    +0.000 HD
ATOM     33  H   UNL     1      -0.007   2.453  21.101  0.00  0.00    +0.000 HD
ENDBRANCH  28  31
ENDBRANCH  25  28
ENDBRANCH  21  22
ENDBRANCH  20  21
ENDBRANCH   3  20
TORSDOF 6
ENDMDL
MODEL 6
REMARK VINA RESULT:      -7.9      1.384      1.626
REMARK  Name = 
REMARK  7 active torsions:
REMARK  status: ('A' for Active; 'I' for Inactive)
REMARK    1  A    between atoms: C_1  and  N_2
REMARK    2  A    between atoms: C_3  and  C_4
REMARK    3  A    between atoms: N_6  and  C_7
REMARK    4  A    between atoms: C_7  and  C_8
REMARK    5  A    between atoms: C_8  and  C_9
REMARK    6  A    between atoms: C_12  and  S_13
REMARK    7  A    between atoms: S_13  and  N_14
REMARK                            x       y       z     vdW  Elec       q    Type
REMARK                         _______ _______ _______ _____ _____    ______ ____
ROOT
ATOM      1  C   UNL     1       1.578   5.144  20.553  0.00  0.00    +0.000 C 
ATOM      2  O   UNL     1       0.650   4.394  20.273  0.00  0.00    +0.000 OA
ATOM      3  N   UNL     1       2.765   4.629  21.058  0.00  0.00    +0.000 N 
ATOM      4  H   UNL     1       3.563   5.230  21.193  0.00  0.00    +0.000 HD
ENDROOT
BRANCH   1   7
ATOM      5  C   UNL     1       2.533   6.792  18.048  0.00  0.00    +0.000 C 
ATOM      6  N   UNL     1       1.954   7.314  19.269  0.00  0.00    +0.000 N 
ATOM      7  C   UNL     1       1.531   6.592  20.391  0.00  0.00    +0.000 A 
ATOM      8  C   UNL     1       1.059   7.537  21.297  0.00  0.00    +0.000 A 
ATOM      9  C   UNL     1       1.190   8.810  20.718  0.00  0.00    +0.000 A 
ATOM     10  C   UNL     1       0.856  10.122  21.207  0.00  0.00    +0.000 A 
ATOM     11  O   UNL     1       0.364  10.283  22.316  0.00  0.00    +0.000 OA
ATOM     12  N   UNL     1       1.151  11.145  20.291  0.00  0.00    +0.000 N 
ATOM     13  C   UNL     1       0.860  12.452  20.666  0.00  0.00    +0.000 A 
ATOM     14  C   UNL     1       1.104  13.494  19.865  0.00  0.00    +0.000 A 
ATOM     15  C   UNL     1       1.684  13.276  18.567  0.00  0.00    +0.000 A 
ATOM     16  C   UNL     1       1.986  12.039  18.152  0.00  0.00    +0.000 A 
ATOM     17  C   UNL     1       1.724  10.857  19.031  0.00  0.00    +0.000 A 
ATOM     18  N   UNL     1       2.029   9.657  18.596  0.00  0.00    +0.000 NA
ATOM     19  C   UNL     1       1.742   8.665  19.473  0.00  0.00    +0.000 A 
ENDBRANCH   1   7
BRANCH   3  20
ATOM     20  C   UNL     1       2.892   3.190  21.231  0.00  0.00    +0.000 C 
BRANCH  20  21
ATOM     21  C   UNL     1       4.063   2.554  20.477  0.00  0.00    +0.000 C 
BRANCH  21  22
ATOM     22  C   UNL     1       4.470   3.329  19.237  0.00  0.00    +0.000 A 
ATOM     23  C   UNL     1       3.800   3.101  18.023  0.00  0.00    +0.000 A 
ATOM     24  C   UNL     1       4.222   3.727  16.845  0.00  0.00    +0.000 A 
ATOM     25  C   UNL     1       5.308   4.605  16.882  0.00  0.00    +0.000 A 
ATOM     26  C   UNL     1       5.943   4.896  18.088  0.00  0.00    +0.000 A 
ATOM     27  C   UNL     1       5.527   4.250  19.257  0.00  0.00    +0.000 A 
BRANCH  25  28
ATOM     28  S   UNL     1       5.933   5.296  15.377  0.00  0.00    +0.000 S 
ATOM     29  O   UNL     1       7.347   5.563  15.555  0.00  0.00    +0.000 OA
ATOM     30  O   UNL     1       5.416   4.535  14.269  0.00  0.00    +0.000 OA
BRANCH  28  31
ATOM     31  N   UNL     1       5.150   6.760  15.372  0.00  0.00    +0.000 NA
ATOM     32  H   UNL     1       4.348   6.869  15.979  0.00  0.00    +0.000 HD
ATOM     33  H   UNL     1       5.351   7.393  14.606  0.00  0.00    +0.000 HD
ENDBRANCH  28  31
ENDBRANCH  25  28
ENDBRANCH  21  22
ENDBRANCH  20  21
ENDBRANCH   3  20
TORSDOF 6
ENDMDL
MODEL 7
REMARK VINA RESULT:      -7.8      4.248      6.120
REMARK  Name = 
REMARK  7 active torsions:
REMARK  status: ('A' for Active; 'I' for Inactive)
REMARK    1  A    between atoms: C_1  and  N_2
REMARK    2  A    between atoms: C_3  and  C_4
REMARK    3  A    between atoms: N_6  and  C_7
REMARK    4  A    between atoms: C_7  and  C_8
REMARK    5  A    between atoms: C_8  and  C_9
REMARK    6  A    between atoms: C_12  and  S_13
REMARK    7  A    between atoms: S_13  and  N_14
REMARK                            x       y       z     vdW  Elec       q    Type
REMARK                         _______ _______ _______ _____ _____    ______ ____
ROOT
ATOM      1  C   UNL     1       0.518  11.020  18.636  0.00  0.00    +0.000 C 
ATOM      2  O   UNL     1       1.401  11.863  18.754  0.00  0.00    +0.000 OA
ATOM      3  N   UNL     1       0.849   9.678  18.494  0.00  0.00    +0.000 N 
ATOM      4  H   UNL     1       0.128   8.974  18.499  0.00  0.00    +0.000 HD
ENDROOT
BRANCH   1   7
ATOM      5  C   UNL     1      -1.127  12.342  20.970  0.00  0.00    +0.000 C 
ATOM      6  N   UNL     1      -1.627  11.921  19.678  0.00  0.00    +0.000 N 
ATOM      7  C   UNL     1      -0.907  11.328  18.635  0.00  0.00    +0.000 A 
ATOM      8  C   UNL     1      -1.826  11.106  17.614  0.00  0.00    +0.000 A 
ATOM      9  C   UNL     1      -3.082  11.571  18.040  0.00  0.00    +0.000 A 
ATOM     10  C   UNL     1      -4.364  11.594  17.388  0.00  0.00    +0.000 A 
ATOM     11  O   UNL     1      -4.512  11.154  16.254  0.00  0.00    +0.000 OA
ATOM     12  N   UNL     1      -5.376  12.161  18.179  0.00  0.00    +0.000 N 
ATOM     13  C   UNL     1      -6.655  12.235  17.637  0.00  0.00    +0.000 A 
ATOM     14  C   UNL     1      -7.685  12.758  18.311  0.00  0.00    +0.000 A 
ATOM     15  C   UNL     1      -7.483  13.266  19.641  0.00  0.00    +0.000 A 
ATOM     16  C   UNL     1      -6.274  13.220  20.215  0.00  0.00    +0.000 A 
ATOM     17  C   UNL     1      -5.106  12.640  19.481  0.00  0.00    +0.000 A 
ATOM     18  N   UNL     1      -3.933  12.610  20.070  0.00  0.00    +0.000 NA
ATOM     19  C   UNL     1      -2.951  12.068  19.309  0.00  0.00    +0.000 A 
ENDBRANCH   1   7
BRANCH   3  20
ATOM     20  C   UNL     1       2.251   9.294  18.504  0.00  0.00    +0.000 C 
BRANCH  20  21
ATOM     21  C   UNL     1       2.596   8.100  17.609  0.00  0.00    +0.000 C 
BRANCH  21  22
ATOM     22  C   UNL     1       2.732   6.796  18.375  0.00  0.00    +0.000 A 
ATOM     23  C   UNL     1       3.339   5.688  17.761  0.00  0.00    +0.000 A 
ATOM     24  C   UNL     1       3.386   4.448  18.408  0.00  0.00    +0.000 A 
ATOM     25  C   UNL     1       2.842   4.318  19.687  0.00  0.00    +0.000 A 
ATOM     26  C   UNL     1       2.294   5.421  20.340  0.00  0.00    +0.000 A 
ATOM     27  C   UNL     1       2.235   6.651  19.678  0.00  0.00    +0.000 A 
BRANCH  25  28
ATOM     28  S   UNL     1       2.775   2.725  20.457  0.00  0.00    +0.000 S 
ATOM     29  O   UNL     1       1.737   1.951  19.805  0.00  0.00    +0.000 OA
ATOM     30  O   UNL     1       4.120   2.239  20.629  0.00  0.00    +0.000 OA
BRANCH  28  31
ATOM     31  N   UNL     1       2.209   3.143  21.961  0.00  0.00    +0.000 NA
ATOM     32  H   UNL     1       2.557   3.997  22.376  0.00  0.00    +0.000 HD
ATOM     33  H   UNL     1       1.735   2.424  22.496  0.00  0.00    +0.000 HD
ENDBRANCH  28  31
ENDBRANCH  25  28
ENDBRANCH  21  22
ENDBRANCH  20  21
ENDBRANCH   3  20
TORSDOF 6
ENDMDL
MODEL 8
REMARK VINA RESULT:      -7.8      1.329      1.888
REMARK  Name = 
REMARK  7 active torsions:
REMARK  status: ('A' for Active; 'I' for Inactive)
REMARK    1  A    between atoms: C_1  and  N_2
REMARK    2  A    between atoms: C_3  and  C_4
REMARK    3  A    between atoms: N_6  and  C_7
REMARK    4  A    between atoms: C_7  and  C_8
REMARK    5  A    between atoms: C_8  and  C_9
REMARK    6  A    between atoms: C_12  and  S_13
REMARK    7  A    between atoms: S_13  and  N_14
REMARK                            x       y       z     vdW  Elec       q    Type
REMARK                         _______ _______ _______ _____ _____    ______ ____
ROOT
ATOM      1  C   UNL     1       2.106   6.714  20.352  0.00  0.00    +0.000 C 
ATOM      2  O   UNL     1       3.208   6.511  19.854  0.00  0.00    +0.000 OA
ATOM      3  N   UNL     1       1.348   5.651  20.828  0.00  0.00    +0.000 N 
ATOM      4  H   UNL     1       0.490   5.824  21.327  0.00  0.00    +0.000 HD
ENDROOT
BRANCH   1   7
ATOM      5  C   UNL     1       1.789   8.885  18.097  0.00  0.00    +0.000 C 
ATOM      6  N   UNL     1       1.366   8.992  19.478  0.00  0.00    +0.000 N 
ATOM      7  C   UNL     1       1.507   8.036  20.490  0.00  0.00    +0.000 A 
ATOM      8  C   UNL     1       0.955   8.606  21.633  0.00  0.00    +0.000 A 
ATOM      9  C   UNL     1       0.481   9.887  21.304  0.00  0.00    +0.000 A 
ATOM     10  C   UNL     1      -0.176  10.895  22.093  0.00  0.00    +0.000 A 
ATOM     11  O   UNL     1      -0.418  10.720  23.281  0.00  0.00    +0.000 OA
ATOM     12  N   UNL     1      -0.491  12.052  21.361  0.00  0.00    +0.000 N 
ATOM     13  C   UNL     1      -1.135  13.087  22.032  0.00  0.00    +0.000 A 
ATOM     14  C   UNL     1      -1.476  14.226  21.423  0.00  0.00    +0.000 A 
ATOM     15  C   UNL     1      -1.179  14.407  20.028  0.00  0.00    +0.000 A 
ATOM     16  C   UNL     1      -0.561  13.446  19.330  0.00  0.00    +0.000 A 
ATOM     17  C   UNL     1      -0.167  12.161  19.990  0.00  0.00    +0.000 A 
ATOM     18  N   UNL     1       0.437  11.237  19.279  0.00  0.00    +0.000 NA
ATOM     19  C   UNL     1       0.739  10.116  19.979  0.00  0.00    +0.000 A 
ENDBRANCH   1   7
BRANCH   3  20
ATOM     20  C   UNL     1       1.890   4.305  20.739  0.00  0.00    +0.000 C 
BRANCH  20  21
ATOM     21  C   UNL     1       1.793   3.664  19.352  0.00  0.00    +0.000 C 
BRANCH  21  22
ATOM     22  C   UNL     1       3.068   3.801  18.539  0.00  0.00    +0.000 A 
ATOM     23  C   UNL     1       4.312   3.579  19.153  0.00  0.00    +0.000 A 
ATOM     24  C   UNL     1       5.504   3.797  18.453  0.00  0.00    +0.000 A 
ATOM     25  C   UNL     1       5.454   4.220  17.123  0.00  0.00    +0.000 A 
ATOM     26  C   UNL     1       4.231   4.382  16.476  0.00  0.00    +0.000 A 
ATOM     27  C   UNL     1       3.045   4.180  17.189  0.00  0.00    +0.000 A 
BRANCH  25  28
ATOM     28  S   UNL     1       6.953   4.629  16.273  0.00  0.00    +0.000 S 
ATOM     29  O   UNL     1       8.069   4.234  17.111  0.00  0.00    +0.000 OA
ATOM     30  O   UNL     1       6.828   4.223  14.897  0.00  0.00    +0.000 OA
BRANCH  28  31
ATOM     31  N   UNL     1       6.873   6.287  16.305  0.00  0.00    +0.000 NA
ATOM     32  H   UNL     1       5.964   6.718  16.199  0.00  0.00    +0.000 HD
ATOM     33  H   UNL     1       7.741   6.796  16.189  0.00  0.00    +0.000 HD
ENDBRANCH  28  31
ENDBRANCH  25  28
ENDBRANCH  21  22
ENDBRANCH  20  21
ENDBRANCH   3  20
TORSDOF 6
ENDMDL
MODEL 9
REMARK VINA RESULT:      -7.8      1.009      1.473
REMARK  Name = 
REMARK  7 active torsions:
REMARK  status: ('A' for Active; 'I' for Inactive)
REMARK    1  A    between atoms: C_1  and  N_2
REMARK    2  A    between atoms: C_3  and  C_4
REMARK    3  A    between atoms: N_6  and  C_7
REMARK    4  A    between atoms: C_7  and  C_8
REMARK    5  A    between atoms: C_8  and  C_9
REMARK    6  A    between atoms: C_12  and  S_13
REMARK    7  A    between atoms: S_13  and  N_14
REMARK                            x       y       z     vdW  Elec       q    Type
REMARK                         _______ _______ _______ _____ _____    ______ ____
ROOT
ATOM      1  C   UNL     1       1.855   5.231  20.494  0.00  0.00    +0.000 C 
ATOM      2  O   UNL     1       2.272   4.718  21.528  0.00  0.00    +0.000 OA
ATOM      3  N   UNL     1       1.510   4.434  19.410  0.00  0.00    +0.000 N 
ATOM      4  H   UNL     1       1.073   4.843  18.599  0.00  0.00    +0.000 HD
ENDROOT
BRANCH   1   7
ATOM      5  C   UNL     1       2.930   6.961  18.096  0.00  0.00    +0.000 C 
ATOM      6  N   UNL     1       2.165   7.425  19.235  0.00  0.00    +0.000 N 
ATOM      7  C   UNL     1       1.686   6.667  20.309  0.00  0.00    +0.000 A 
ATOM      8  C   UNL     1       1.022   7.561  21.142  0.00  0.00    +0.000 A 
ATOM      9  C   UNL     1       1.095   8.841  20.566  0.00  0.00    +0.000 A 
ATOM     10  C   UNL     1       0.580  10.114  20.996  0.00  0.00    +0.000 A 
ATOM     11  O   UNL     1      -0.052  10.228  22.039  0.00  0.00    +0.000 OA
ATOM     12  N   UNL     1       0.878  11.159  20.107  0.00  0.00    +0.000 N 
ATOM     13  C   UNL     1       0.420  12.433  20.429  0.00  0.00    +0.000 A 
ATOM     14  C   UNL     1       0.652  13.492  19.648  0.00  0.00    +0.000 A 
ATOM     15  C   UNL     1       1.398  13.330  18.429  0.00  0.00    +0.000 A 
ATOM     16  C   UNL     1       1.866  12.128  18.068  0.00  0.00    +0.000 A 
ATOM     17  C   UNL     1       1.619  10.928  18.926  0.00  0.00    +0.000 A 
ATOM     18  N   UNL     1       2.089   9.763  18.545  0.00  0.00    +0.000 NA
ATOM     19  C   UNL     1       1.800   8.748  19.396  0.00  0.00    +0.000 A 
ENDBRANCH   1   7
BRANCH   3  20
ATOM     20  C   UNL     1       1.635   2.990  19.528  0.00  0.00    +0.000 C 
BRANCH  20  21
ATOM     21  C   UNL     1       3.073   2.480  19.662  0.00  0.00    +0.000 C 
BRANCH  21  22
ATOM     22  C   UNL     1       4.046   3.178  18.730  0.00  0.00    +0.000 A 
ATOM     23  C   UNL     1       5.106   3.928  19.266  0.00  0.00    +0.000 A 
ATOM     24  C   UNL     1       5.956   4.663  18.431  0.00  0.00    +0.000 A 
ATOM     25  C   UNL     1       5.758   4.633  17.049  0.00  0.00    +0.000 A 
ATOM     26  C   UNL     1       4.754   3.842  16.493  0.00  0.00    +0.000 A 
ATOM     27  C   UNL     1       3.898   3.127  17.337  0.00  0.00    +0.000 A 
BRANCH  25  28
ATOM     28  S   UNL     1       6.741   5.664  15.997  0.00  0.00    +0.000 S 
ATOM     29  O   UNL     1       7.481   6.588  16.834  0.00  0.00    +0.000 OA
ATOM     30  O   UNL     1       7.372   4.838  14.999  0.00  0.00    +0.000 OA
BRANCH  28  31
ATOM     31  N   UNL     1       5.551   6.533  15.233  0.00  0.00    +0.000 NA
ATOM     32  H   UNL     1       5.744   6.883  14.303  0.00  0.00    +0.000 HD
ATOM     33  H   UNL     1       4.787   6.877  15.803  0.00  0.00    +0.000 HD
ENDBRANCH  28  31
ENDBRANCH  25  28
ENDBRANCH  21  22
ENDBRANCH  20  21
ENDBRANCH   3  20
TORSDOF 6
ENDMDL
