MODEL 1
REMARK VINA RESULT:      -8.3      0.000      0.000
REMARK  Name = 
REMARK  2 active torsions:
REMARK  status: ('A' for Active; 'I' for Inactive)
REMARK    1  A    between atoms: C_2  and  C_3
REMARK    2  A    between atoms: C_17  and  C_18
REMARK                            x       y       z     vdW  Elec       q    Type
REMARK                         _______ _______ _______ _____ _____    ______ ____
ROOT
ATOM      1  O   UNL     1       3.395   7.822  18.344  0.00  0.00    +0.000 OA
ATOM      2  C   UNL     1       2.454   7.391  19.015  0.00  0.00    +0.000 C 
ATOM      3  N   UNL     1       2.379   6.052  19.395  0.00  0.00    +0.000 N 
ATOM      4  C   UNL     1       1.371   5.454  20.261  0.00  0.00    +0.000 C 
ATOM      5  C   UNL     1       2.169   4.619  21.242  0.00  0.00    +0.000 C 
ATOM      6  C   UNL     1       3.338   4.118  20.415  0.00  0.00    +0.000 C 
ATOM      7  C   UNL     1       3.593   5.223  19.366  0.00  0.00    +0.000 C 
ENDROOT
BRANCH   2   8
ATOM      8  C   UNL     1       1.488   8.403  19.549  0.00  0.00    +0.000 A 
ATOM      9  C   UNL     1       1.069   9.395  18.667  0.00  0.00    +0.000 A 
ATOM     10  C   UNL     1       0.266  10.419  19.153  0.00  0.00    +0.000 A 
ATOM     11  C   UNL     1      -0.104  10.419  20.500  0.00  0.00    +0.000 A 
ATOM     12  C   UNL     1      -0.897  11.446  21.037  0.00  0.00    +0.000 A 
ATOM     13  C   UNL     1      -1.245  11.432  22.385  0.00  0.00    +0.000 A 
ATOM     14  C   UNL     1      -0.796  10.397  23.198  0.00  0.00    +0.000 A 
ATOM     15  C   UNL     1      -0.008   9.374  22.659  0.00  0.00    +0.000 A 
ATOM     16  C   UNL     1       0.350   9.360  21.318  0.00  0.00    +0.000 A 
ATOM     17  N   UNL     1       1.125   8.361  20.851  0.00  0.00    +0.000 NA
ENDBRANCH   2   8
BRANCH   7  18
ATOM     18  C   UNL     1       3.892   4.629  18.024  0.00  0.00    +0.000 A 
ATOM     19  N   UNL     1       3.193   3.677  17.424  0.00  0.00    +0.000 NA
ATOM     20  N   UNL     1       3.877   3.251  16.314  0.00  0.00    +0.000 NA
ATOM     21  C   UNL     1       4.974   3.967  16.224  0.00  0.00    +0.000 A 
ATOM     22  C   UNL     1       6.043   3.961  15.285  0.00  0.00    +0.000 A 
ATOM     23  C   UNL     1       7.058   4.837  15.424  0.00  0.00    +0.000 A 
ATOM     24  C   UNL     1       7.092   5.778  16.531  0.00  0.00    +0.000 A 
ATOM     25  C   UNL     1       6.102   5.758  17.440  0.00  0.00    +0.000 A 
ATOM     26  N   UNL     1       5.036   4.869  17.280  0.00  0.00    +0.000 N 
ENDBRANCH   7  18
TORSDOF 2
ENDMDL
MODEL 2
REMARK VINA RESULT:      -7.7      2.536      7.960
REMARK  Name = 
REMARK  2 active torsions:
REMARK  status: ('A' for Active; 'I' for Inactive)
REMARK    1  A    between atoms: C_2  and  C_3
REMARK    2  A    between atoms: C_17  and  C_18
REMARK                            x       y       z     vdW  Elec       q    Type
REMARK                         _______ _______ _______ _____ _____    ______ ____
ROOT
ATOM      1  O   UNL     1       1.960   9.477  17.841  0.00  0.00    +0.000 OA
ATOM      2  C   UNL     1       1.978   8.656  18.761  0.00  0.00    +0.000 C 
ATOM      3  N   UNL     1       1.396   8.931  19.998  0.00  0.00    +0.000 N 
ATOM      4  C   UNL     1       1.273   8.011  21.120  0.00  0.00    +0.000 C 
ATOM      5  C   UNL     1      -0.167   8.155  21.567  0.00  0.00    +0.000 C 
ATOM      6  C   UNL     1      -0.473   9.620  21.315  0.00  0.00    +0.000 C 
ATOM      7  C   UNL     1       0.405  10.012  20.107  0.00  0.00    +0.000 C 
ENDROOT
BRANCH   2   8
ATOM      8  C   UNL     1       2.497   7.290  18.437  0.00  0.00    +0.000 A 
ATOM      9  C   UNL     1       3.681   7.227  17.709  0.00  0.00    +0.000 A 
ATOM     10  C   UNL     1       4.136   5.985  17.287  0.00  0.00    +0.000 A 
ATOM     11  C   UNL     1       3.402   4.840  17.610  0.00  0.00    +0.000 A 
ATOM     12  C   UNL     1       3.815   3.567  17.186  0.00  0.00    +0.000 A 
ATOM     13  C   UNL     1       3.062   2.441  17.511  0.00  0.00    +0.000 A 
ATOM     14  C   UNL     1       1.895   2.588  18.254  0.00  0.00    +0.000 A 
ATOM     15  C   UNL     1       1.489   3.858  18.677  0.00  0.00    +0.000 A 
ATOM     16  C   UNL     1       2.222   4.997  18.371  0.00  0.00    +0.000 A 
ATOM     17  N   UNL     1       1.779   6.199  18.789  0.00  0.00    +0.000 NA
ENDBRANCH   2   8
BRANCH   7  18
ATOM     18  C   UNL     1       1.006  11.372  20.300  0.00  0.00    +0.000 A 
ATOM     19  N   UNL     1       1.895  11.702  21.224  0.00  0.00    +0.000 NA
ATOM     20  N   UNL     1       2.058  13.064  21.223  0.00  0.00    +0.000 NA
ATOM     21  C   UNL     1       1.291  13.555  20.277  0.00  0.00    +0.000 A 
ATOM     22  C   UNL     1       1.061  14.886  19.829  0.00  0.00    +0.000 A 
ATOM     23  C   UNL     1       0.217  15.108  18.802  0.00  0.00    +0.000 A 
ATOM     24  C   UNL     1      -0.480  14.010  18.151  0.00  0.00    +0.000 A 
ATOM     25  C   UNL     1      -0.292  12.757  18.599  0.00  0.00    +0.000 A 
ATOM     26  N   UNL     1       0.603  12.524  19.646  0.00  0.00    +0.000 N 
ENDBRANCH   7  18
TORSDOF 2
ENDMDL
MODEL 3
REMARK VINA RESULT:      -7.7      2.278      8.132
REMARK  Name = 
REMARK  2 active torsions:
REMARK  status: ('A' for Active; 'I' for Inactive)
REMARK    1  A    between atoms: C_2  and  C_3
REMARK    2  A    between atoms: C_17  and  C_18
REMARK                            x       y       z     vdW  Elec       q    Type
REMARK                         _______ _______ _______ _____ _____    ______ ____
ROOT
ATOM      1  O   UNL     1       1.836   9.484  17.613  0.00  0.00    +0.000 OA
ATOM      2  C   UNL     1       2.078   8.603  18.441  0.00  0.00    +0.000 C 
ATOM      3  N   UNL     1       1.606   8.680  19.751  0.00  0.00    +0.000 N 
ATOM      4  C   UNL     1       1.748   7.662  20.782  0.00  0.00    +0.000 C 
ATOM      5  C   UNL     1       0.362   7.542  21.382  0.00  0.00    +0.000 C 
ATOM      6  C   UNL     1      -0.182   8.956  21.308  0.00  0.00    +0.000 C 
ATOM      7  C   UNL     1       0.486   9.580  20.063  0.00  0.00    +0.000 C 
ENDROOT
BRANCH   2   8
ATOM      8  C   UNL     1       2.752   7.367  17.932  0.00  0.00    +0.000 A 
ATOM      9  C   UNL     1       2.103   6.159  18.166  0.00  0.00    +0.000 A 
ATOM     10  C   UNL     1       2.748   4.980  17.815  0.00  0.00    +0.000 A 
ATOM     11  C   UNL     1       4.017   5.040  17.232  0.00  0.00    +0.000 A 
ATOM     12  C   UNL     1       4.712   3.872  16.881  0.00  0.00    +0.000 A 
ATOM     13  C   UNL     1       5.980   3.955  16.311  0.00  0.00    +0.000 A 
ATOM     14  C   UNL     1       6.555   5.203  16.098  0.00  0.00    +0.000 A 
ATOM     15  C   UNL     1       5.858   6.365  16.446  0.00  0.00    +0.000 A 
ATOM     16  C   UNL     1       4.591   6.312  17.012  0.00  0.00    +0.000 A 
ATOM     17  N   UNL     1       3.968   7.459  17.345  0.00  0.00    +0.000 NA
ENDBRANCH   2   8
BRANCH   7  18
ATOM     18  C   UNL     1       0.898  10.996  20.329  0.00  0.00    +0.000 A 
ATOM     19  N   UNL     1       1.630  11.411  21.353  0.00  0.00    +0.000 NA
ATOM     20  N   UNL     1       1.633  12.782  21.375  0.00  0.00    +0.000 NA
ATOM     21  C   UNL     1       0.929  13.198  20.347  0.00  0.00    +0.000 A 
ATOM     22  C   UNL     1       0.600  14.501  19.879  0.00  0.00    +0.000 A 
ATOM     23  C   UNL     1      -0.138  14.641  18.760  0.00  0.00    +0.000 A 
ATOM     24  C   UNL     1      -0.623  13.482  18.029  0.00  0.00    +0.000 A 
ATOM     25  C   UNL     1      -0.345  12.251  18.492  0.00  0.00    +0.000 A 
ATOM     26  N   UNL     1       0.443  12.105  19.636  0.00  0.00    +0.000 N 
ENDBRANCH   7  18
TORSDOF 2
ENDMDL
MODEL 4
REMARK VINA RESULT:      -7.6      2.915      8.499
REMARK  Name = 
REMARK  2 active torsions:
REMARK  status: ('A' for Active; 'I' for Inactive)
REMARK    1  A    between atoms: C_2  and  C_3
REMARK    2  A    between atoms: C_17  and  C_18
REMARK                            x       y       z     vdW  Elec       q    Type
REMARK                         _______ _______ _______ _____ _____    ______ ____
ROOT
ATOM      1  O   UNL     1       1.494   8.537  22.056  0.00  0.00    +0.000 OA
ATOM      2  C   UNL     1       1.324   8.497  20.835  0.00  0.00    +0.000 C 
ATOM      3  N   UNL     1       0.934   9.625  20.114  0.00  0.00    +0.000 N 
ATOM      4  C   UNL     1       0.794   9.721  18.667  0.00  0.00    +0.000 C 
ATOM      5  C   UNL     1       1.510  11.007  18.307  0.00  0.00    +0.000 C 
ATOM      6  C   UNL     1       1.238  11.911  19.495  0.00  0.00    +0.000 C 
ATOM      7  C   UNL     1       1.115  10.959  20.705  0.00  0.00    +0.000 C 
ENDROOT
BRANCH   2   8
ATOM      8  C   UNL     1       1.721   7.233  20.139  0.00  0.00    +0.000 A 
ATOM      9  C   UNL     1       2.454   7.368  18.964  0.00  0.00    +0.000 A 
ATOM     10  C   UNL     1       2.742   6.228  18.226  0.00  0.00    +0.000 A 
ATOM     11  C   UNL     1       2.301   4.984  18.686  0.00  0.00    +0.000 A 
ATOM     12  C   UNL     1       2.554   3.809  17.961  0.00  0.00    +0.000 A 
ATOM     13  C   UNL     1       2.096   2.581  18.433  0.00  0.00    +0.000 A 
ATOM     14  C   UNL     1       1.380   2.528  19.625  0.00  0.00    +0.000 A 
ATOM     15  C   UNL     1       1.133   3.702  20.346  0.00  0.00    +0.000 A 
ATOM     16  C   UNL     1       1.583   4.938  19.902  0.00  0.00    +0.000 A 
ATOM     17  N   UNL     1       1.304   6.041  20.625  0.00  0.00    +0.000 NA
ENDBRANCH   2   8
BRANCH   7  18
ATOM     18  C   UNL     1      -0.005  11.382  21.607  0.00  0.00    +0.000 A 
ATOM     19  N   UNL     1      -0.046  11.217  22.921  0.00  0.00    +0.000 NA
ATOM     20  N   UNL     1      -1.300  11.541  23.373  0.00  0.00    +0.000 NA
ATOM     21  C   UNL     1      -2.007  11.933  22.339  0.00  0.00    +0.000 A 
ATOM     22  C   UNL     1      -3.353  12.380  22.216  0.00  0.00    +0.000 A 
ATOM     23  C   UNL     1      -3.826  12.747  21.009  0.00  0.00    +0.000 A 
ATOM     24  C   UNL     1      -2.991  12.676  19.821  0.00  0.00    +0.000 A 
ATOM     25  C   UNL     1      -1.733  12.217  19.930  0.00  0.00    +0.000 A 
ATOM     26  N   UNL     1      -1.234  11.863  21.185  0.00  0.00    +0.000 N 
ENDBRANCH   7  18
TORSDOF 2
ENDMDL
MODEL 5
REMARK VINA RESULT:      -7.6      2.491      8.165
REMARK  Name = 
REMARK  2 active torsions:
REMARK  status: ('A' for Active; 'I' for Inactive)
REMARK    1  A    between atoms: C_2  and  C_3
REMARK    2  A    between atoms: C_17  and  C_18
REMARK                            x       y       z     vdW  Elec       q    Type
REMARK                         _______ _______ _______ _____ _____    ______ ____
ROOT
ATOM      1  O   UNL     1       1.758   9.073  17.140  0.00  0.00    +0.000 OA
ATOM      2  C   UNL     1       1.971   8.482  18.201  0.00  0.00    +0.000 C 
ATOM      3  N   UNL     1       1.506   8.975  19.420  0.00  0.00    +0.000 N 
ATOM      4  C   UNL     1       1.615   8.320  20.716  0.00  0.00    +0.000 C 
ATOM      5  C   UNL     1       0.228   8.440  21.313  0.00  0.00    +0.000 C 
ATOM      6  C   UNL     1      -0.265   9.781  20.802  0.00  0.00    +0.000 C 
ATOM      7  C   UNL     1       0.421   9.967  19.431  0.00  0.00    +0.000 C 
ENDROOT
BRANCH   2   8
ATOM      8  C   UNL     1       2.598   7.126  18.103  0.00  0.00    +0.000 A 
ATOM      9  C   UNL     1       3.943   7.082  17.750  0.00  0.00    +0.000 A 
ATOM     10  C   UNL     1       4.533   5.843  17.535  0.00  0.00    +0.000 A 
ATOM     11  C   UNL     1       3.768   4.684  17.687  0.00  0.00    +0.000 A 
ATOM     12  C   UNL     1       4.319   3.413  17.460  0.00  0.00    +0.000 A 
ATOM     13  C   UNL     1       3.535   2.272  17.607  0.00  0.00    +0.000 A 
ATOM     14  C   UNL     1       2.199   2.400  17.975  0.00  0.00    +0.000 A 
ATOM     15  C   UNL     1       1.655   3.668  18.204  0.00  0.00    +0.000 A 
ATOM     16  C   UNL     1       2.414   4.822  18.069  0.00  0.00    +0.000 A 
ATOM     17  N   UNL     1       1.838   6.021  18.285  0.00  0.00    +0.000 NA
ENDBRANCH   2   8
BRANCH   7  18
ATOM     18  C   UNL     1       0.885  11.380  19.252  0.00  0.00    +0.000 A 
ATOM     19  N   UNL     1       2.117  11.758  18.944  0.00  0.00    +0.000 NA
ATOM     20  N   UNL     1       2.210  13.122  19.064  0.00  0.00    +0.000 NA
ATOM     21  C   UNL     1       1.027  13.572  19.412  0.00  0.00    +0.000 A 
ATOM     22  C   UNL     1       0.544  14.885  19.672  0.00  0.00    +0.000 A 
ATOM     23  C   UNL     1      -0.751  15.066  20.000  0.00  0.00    +0.000 A 
ATOM     24  C   UNL     1      -1.663  13.940  20.113  0.00  0.00    +0.000 A 
ATOM     25  C   UNL     1      -1.197  12.696  19.905  0.00  0.00    +0.000 A 
ATOM     26  N   UNL     1       0.137  12.511  19.538  0.00  0.00    +0.000 N 
ENDBRANCH   7  18
TORSDOF 2
ENDMDL
MODEL 6
REMARK VINA RESULT:      -7.5      1.591      2.366
REMARK  Name = 
REMARK  2 active torsions:
REMARK  status: ('A' for Active; 'I' for Inactive)
REMARK    1  A    between atoms: C_2  and  C_3
REMARK    2  A    between atoms: C_17  and  C_18
REMARK                            x       y       z     vdW  Elec       q    Type
REMARK                         _______ _______ _______ _____ _____    ______ ____
ROOT
ATOM      1  O   UNL     1       4.862   6.744  19.212  0.00  0.00    +0.000 OA
ATOM      2  C   UNL     1       3.778   6.469  18.692  0.00  0.00    +0.000 C 
ATOM      3  N   UNL     1       3.566   5.255  18.041  0.00  0.00    +0.000 N 
ATOM      4  C   UNL     1       2.308   4.785  17.476  0.00  0.00    +0.000 C 
ATOM      5  C   UNL     1       2.183   3.360  17.976  0.00  0.00    +0.000 C 
ATOM      6  C   UNL     1       3.618   2.868  18.012  0.00  0.00    +0.000 C 
ATOM      7  C   UNL     1       4.467   4.124  18.307  0.00  0.00    +0.000 C 
ENDROOT
BRANCH   2   8
ATOM      8  C   UNL     1       2.650   7.421  18.942  0.00  0.00    +0.000 A 
ATOM      9  C   UNL     1       2.257   8.221  17.874  0.00  0.00    +0.000 A 
ATOM     10  C   UNL     1       1.295   9.198  18.094  0.00  0.00    +0.000 A 
ATOM     11  C   UNL     1       0.745   9.343  19.371  0.00  0.00    +0.000 A 
ATOM     12  C   UNL     1      -0.215  10.330  19.642  0.00  0.00    +0.000 A 
ATOM     13  C   UNL     1      -0.741  10.464  20.924  0.00  0.00    +0.000 A 
ATOM     14  C   UNL     1      -0.305   9.616  21.936  0.00  0.00    +0.000 A 
ATOM     15  C   UNL     1       0.650   8.631  21.661  0.00  0.00    +0.000 A 
ATOM     16  C   UNL     1       1.188   8.472  20.391  0.00  0.00    +0.000 A 
ATOM     17  N   UNL     1       2.118   7.519  20.182  0.00  0.00    +0.000 NA
ENDBRANCH   2   8
BRANCH   7  18
ATOM     18  C   UNL     1       5.716   4.133  17.480  0.00  0.00    +0.000 A 
ATOM     19  N   UNL     1       6.952   4.251  17.943  0.00  0.00    +0.000 NA
ATOM     20  N   UNL     1       7.811   4.420  16.888  0.00  0.00    +0.000 NA
ATOM     21  C   UNL     1       7.101   4.373  15.784  0.00  0.00    +0.000 A 
ATOM     22  C   UNL     1       7.459   4.486  14.412  0.00  0.00    +0.000 A 
ATOM     23  C   UNL     1       6.508   4.378  13.463  0.00  0.00    +0.000 A 
ATOM     24  C   UNL     1       5.114   4.165  13.817  0.00  0.00    +0.000 A 
ATOM     25  C   UNL     1       4.770   4.097  15.114  0.00  0.00    +0.000 A 
ATOM     26  N   UNL     1       5.759   4.182  16.096  0.00  0.00    +0.000 N 
ENDBRANCH   7  18
TORSDOF 2
ENDMDL
MODEL 7
REMARK VINA RESULT:      -7.4      3.014      9.302
REMARK  Name = 
REMARK  2 active torsions:
REMARK  status: ('A' for Active; 'I' for Inactive)
REMARK    1  A    between atoms: C_2  and  C_3
REMARK    2  A    between atoms: C_17  and  C_18
REMARK                            x       y       z     vdW  Elec       q    Type
REMARK                         _______ _______ _______ _____ _____    ______ ____
ROOT
ATOM      1  O   UNL     1      -0.673   9.212  20.899  0.00  0.00    +0.000 OA
ATOM      2  C   UNL     1       0.177   9.806  20.231  0.00  0.00    +0.000 C 
ATOM      3  N   UNL     1       0.261  11.198  20.225  0.00  0.00    +0.000 N 
ATOM      4  C   UNL     1       1.275  11.999  19.553  0.00  0.00    +0.000 C 
ATOM      5  C   UNL     1       1.708  13.006  20.599  0.00  0.00    +0.000 C 
ATOM      6  C   UNL     1       0.436  13.280  21.379  0.00  0.00    +0.000 C 
ATOM      7  C   UNL     1      -0.371  11.965  21.308  0.00  0.00    +0.000 C 
ENDROOT
BRANCH   2   8
ATOM      8  C   UNL     1       1.221   8.964  19.566  0.00  0.00    +0.000 A 
ATOM      9  C   UNL     1       1.606   9.341  18.283  0.00  0.00    +0.000 A 
ATOM     10  C   UNL     1       2.485   8.522  17.586  0.00  0.00    +0.000 A 
ATOM     11  C   UNL     1       2.961   7.356  18.191  0.00  0.00    +0.000 A 
ATOM     12  C   UNL     1       3.834   6.490  17.514  0.00  0.00    +0.000 A 
ATOM     13  C   UNL     1       4.289   5.328  18.132  0.00  0.00    +0.000 A 
ATOM     14  C   UNL     1       3.866   5.027  19.422  0.00  0.00    +0.000 A 
ATOM     15  C   UNL     1       2.997   5.895  20.094  0.00  0.00    +0.000 A 
ATOM     16  C   UNL     1       2.533   7.063  19.505  0.00  0.00    +0.000 A 
ATOM     17  N   UNL     1       1.685   7.856  20.188  0.00  0.00    +0.000 NA
ENDBRANCH   2   8
BRANCH   7  18
ATOM     18  C   UNL     1      -1.827  12.241  21.089  0.00  0.00    +0.000 A 
ATOM     19  N   UNL     1      -2.399  12.511  19.925  0.00  0.00    +0.000 NA
ATOM     20  N   UNL     1      -3.695  12.904  20.143  0.00  0.00    +0.000 NA
ATOM     21  C   UNL     1      -3.918  12.841  21.435  0.00  0.00    +0.000 A 
ATOM     22  C   UNL     1      -5.069  13.127  22.221  0.00  0.00    +0.000 A 
ATOM     23  C   UNL     1      -5.026  12.952  23.556  0.00  0.00    +0.000 A 
ATOM     24  C   UNL     1      -3.814  12.494  24.216  0.00  0.00    +0.000 A 
ATOM     25  C   UNL     1      -2.715  12.261  23.478  0.00  0.00    +0.000 A 
ATOM     26  N   UNL     1      -2.768  12.415  22.091  0.00  0.00    +0.000 N 
ENDBRANCH   7  18
TORSDOF 2
ENDMDL
MODEL 8
REMARK VINA RESULT:      -7.4      0.777      1.636
REMARK  Name = 
REMARK  2 active torsions:
REMARK  status: ('A' for Active; 'I' for Inactive)
REMARK    1  A    between atoms: C_2  and  C_3
REMARK    2  A    between atoms: C_17  and  C_18
REMARK                            x       y       z     vdW  Elec       q    Type
REMARK                         _______ _______ _______ _____ _____    ______ ____
ROOT
ATOM      1  O   UNL     1       3.518   7.769  18.428  0.00  0.00    +0.000 OA
ATOM      2  C   UNL     1       2.555   7.379  19.091  0.00  0.00    +0.000 C 
ATOM      3  N   UNL     1       2.405   6.039  19.445  0.00  0.00    +0.000 N 
ATOM      4  C   UNL     1       1.366   5.481  20.300  0.00  0.00    +0.000 C 
ATOM      5  C   UNL     1       2.115   4.585  21.264  0.00  0.00    +0.000 C 
ATOM      6  C   UNL     1       3.255   4.035  20.426  0.00  0.00    +0.000 C 
ATOM      7  C   UNL     1       3.571   5.144  19.399  0.00  0.00    +0.000 C 
ENDROOT
BRANCH   2   8
ATOM      8  C   UNL     1       1.647   8.433  19.646  0.00  0.00    +0.000 A 
ATOM      9  C   UNL     1       1.420   8.404  21.018  0.00  0.00    +0.000 A 
ATOM     10  C   UNL     1       0.495   9.289  21.556  0.00  0.00    +0.000 A 
ATOM     11  C   UNL     1      -0.169  10.184  20.713  0.00  0.00    +0.000 A 
ATOM     12  C   UNL     1      -1.126  11.081  21.212  0.00  0.00    +0.000 A 
ATOM     13  C   UNL     1      -1.783  11.957  20.352  0.00  0.00    +0.000 A 
ATOM     14  C   UNL     1      -1.490  11.932  18.992  0.00  0.00    +0.000 A 
ATOM     15  C   UNL     1      -0.533  11.038  18.499  0.00  0.00    +0.000 A 
ATOM     16  C   UNL     1       0.141  10.157  19.335  0.00  0.00    +0.000 A 
ATOM     17  N   UNL     1       1.041   9.305  18.807  0.00  0.00    +0.000 NA
ENDBRANCH   2   8
BRANCH   7  18
ATOM     18  C   UNL     1       3.837   4.560  18.045  0.00  0.00    +0.000 A 
ATOM     19  N   UNL     1       3.110   3.629  17.446  0.00  0.00    +0.000 NA
ATOM     20  N   UNL     1       3.766   3.204  16.320  0.00  0.00    +0.000 NA
ATOM     21  C   UNL     1       4.875   3.900  16.219  0.00  0.00    +0.000 A 
ATOM     22  C   UNL     1       5.928   3.886  15.262  0.00  0.00    +0.000 A 
ATOM     23  C   UNL     1       6.961   4.741  15.394  0.00  0.00    +0.000 A 
ATOM     24  C   UNL     1       7.031   5.669  16.511  0.00  0.00    +0.000 A 
ATOM     25  C   UNL     1       6.056   5.655  17.436  0.00  0.00    +0.000 A 
ATOM     26  N   UNL     1       4.972   4.789  17.284  0.00  0.00    +0.000 N 
ENDBRANCH   7  18
TORSDOF 2
ENDMDL
MODEL 9
REMARK VINA RESULT:      -7.4      2.776      8.852
REMARK  Name = 
REMARK  2 active torsions:
REMARK  status: ('A' for Active; 'I' for Inactive)
REMARK    1  A    between atoms: C_2  and  C_3
REMARK    2  A    between atoms: C_17  and  C_18
REMARK                            x       y       z     vdW  Elec       q    Type
REMARK                         _______ _______ _______ _____ _____    ______ ____
ROOT
ATOM      1  O   UNL     1       0.205  10.437  18.922  0.00  0.00    +0.000 OA
ATOM      2  C   UNL     1       0.816   9.848  19.817  0.00  0.00    +0.000 C 
ATOM      3  N   UNL     1       0.625  10.162  21.162  0.00  0.00    +0.000 N 
ATOM      4  C   UNL     1       1.217   9.476  22.303  0.00  0.00    +0.000 C 
ATOM      5  C   UNL     1       0.056   9.261  23.253  0.00  0.00    +0.000 C 
ATOM      6  C   UNL     1      -0.809  10.490  23.043  0.00  0.00    +0.000 C 
ATOM      7  C   UNL     1      -0.583  10.894  21.569  0.00  0.00    +0.000 C 
ENDROOT
BRANCH   2   8
ATOM      8  C   UNL     1       1.640   8.667  19.407  0.00  0.00    +0.000 A 
ATOM      9  C   UNL     1       2.308   8.762  18.191  0.00  0.00    +0.000 A 
ATOM     10  C   UNL     1       2.988   7.646  17.718  0.00  0.00    +0.000 A 
ATOM     11  C   UNL     1       2.990   6.473  18.477  0.00  0.00    +0.000 A 
ATOM     12  C   UNL     1       3.648   5.317  18.027  0.00  0.00    +0.000 A 
ATOM     13  C   UNL     1       3.628   4.155  18.794  0.00  0.00    +0.000 A 
ATOM     14  C   UNL     1       2.947   4.146  20.007  0.00  0.00    +0.000 A 
ATOM     15  C   UNL     1       2.296   5.301  20.453  0.00  0.00    +0.000 A 
ATOM     16  C   UNL     1       2.303   6.474  19.711  0.00  0.00    +0.000 A 
ATOM     17  N   UNL     1       1.646   7.555  20.177  0.00  0.00    +0.000 NA
ENDBRANCH   2   8
BRANCH   7  18
ATOM     18  C   UNL     1      -0.469  12.382  21.433  0.00  0.00    +0.000 A 
ATOM     19  N   UNL     1       0.632  13.095  21.620  0.00  0.00    +0.000 NA
ATOM     20  N   UNL     1       0.309  14.428  21.607  0.00  0.00    +0.000 NA
ATOM     21  C   UNL     1      -0.981  14.523  21.380  0.00  0.00    +0.000 A 
ATOM     22  C   UNL     1      -1.850  15.644  21.262  0.00  0.00    +0.000 A 
ATOM     23  C   UNL     1      -3.158  15.449  21.002  0.00  0.00    +0.000 A 
ATOM     24  C   UNL     1      -3.705  14.110  20.859  0.00  0.00    +0.000 A 
ATOM     25  C   UNL     1      -2.892  13.050  21.009  0.00  0.00    +0.000 A 
ATOM     26  N   UNL     1      -1.531  13.252  21.251  0.00  0.00    +0.000 N 
ENDBRANCH   7  18
TORSDOF 2
ENDMDL
