MODEL 1
REMARK VINA RESULT:      -8.9      0.000      0.000
REMARK  Name = 
REMARK  10 active torsions:
REMARK  status: ('A' for Active; 'I' for Inactive)
REMARK    1  A    between atoms: C_1  and  N_2
REMARK    2  A    between atoms: N_2  and  C_3
REMARK    3  A    between atoms: C_3  and  C_4
REMARK    4  A    between atoms: C_4  and  C_5
REMARK    5  A    between atoms: C_9  and  C_10
REMARK    6  A    between atoms: N_16  and  C_17
REMARK    7  A    between atoms: C_21  and  C_22
REMARK    8  A    between atoms: C_22  and  C_23
REMARK    9  A    between atoms: C_22  and  C_24
REMARK   10  A    between atoms: N_28  and  C_29
REMARK                            x       y       z     vdW  Elec       q    Type
REMARK                         _______ _______ _______ _____ _____    ______ ____
ROOT
ATOM      1  C   UNL     1       4.022   4.789  17.721  0.00  0.00    +0.000 A 
ATOM      2  C   UNL     1       3.630   6.131  17.704  0.00  0.00    +0.000 A 
ATOM      3  C   UNL     1       2.799   6.575  18.712  0.00  0.00    +0.000 A 
ATOM      4  C   UNL     1       2.330   5.756  19.733  0.00  0.00    +0.000 A 
ATOM      5  C   UNL     1       2.659   4.405  19.751  0.00  0.00    +0.000 A 
ATOM      6  C   UNL     1       3.518   3.934  18.730  0.00  0.00    +0.000 A 
ATOM      7  C   UNL     1       1.517   6.580  20.684  0.00  0.00    +0.000 C 
ATOM      8  N   UNL     1       1.527   7.904  20.077  0.00  0.00    +0.000 N 
ATOM      9  C   UNL     1       2.287   7.929  18.909  0.00  0.00    +0.000 C 
ATOM     10  O   UNL     1       2.565   8.839  18.150  0.00  0.00    +0.000 OA
ENDROOT
BRANCH   8  11
ATOM     11  C   UNL     1       0.871   9.024  20.645  0.00  0.00    +0.000 A 
ATOM     12  C   UNL     1       0.631   9.091  22.023  0.00  0.00    +0.000 A 
ATOM     13  C   UNL     1      -0.055  10.168  22.583  0.00  0.00    +0.000 A 
ATOM     14  C   UNL     1      -0.515  11.196  21.770  0.00  0.00    +0.000 A 
ATOM     15  C   UNL     1      -0.276  11.176  20.388  0.00  0.00    +0.000 A 
ATOM     16  C   UNL     1       0.433  10.087  19.843  0.00  0.00    +0.000 A 
BRANCH  15  17
ATOM     17  C   UNL     1      -0.758  12.300  19.482  0.00  0.00    +0.000 C 
ATOM     18  C   UNL     1       0.361  12.802  18.558  0.00  0.00    +0.000 C 
BRANCH  17  19
ATOM     19  C   UNL     1      -1.988  11.902  18.713  0.00  0.00    +0.000 A 
ATOM     20  C   UNL     1      -2.134  11.262  17.495  0.00  0.00    +0.000 A 
ATOM     21  N   UNL     1      -3.452  11.072  17.183  0.00  0.00    +0.000 NA
ATOM     22  C   UNL     1      -4.119  11.577  18.195  0.00  0.00    +0.000 A 
ATOM     23  N   UNL     1      -3.283  12.102  19.138  0.00  0.00    +0.000 N 
ATOM     24  C   UNL     1      -3.718  12.743  20.353  0.00  0.00    +0.000 C 
ENDBRANCH  17  19
ENDBRANCH  15  17
ENDBRANCH   8  11
BRANCH   5  25
ATOM     25  C   UNL     1       2.134   3.450  20.790  0.00  0.00    +0.000 C 
ATOM     26  F   UNL     1       2.617   2.182  20.658  0.00  0.00    +0.000 F 
ATOM     27  F   UNL     1       2.450   3.835  22.056  0.00  0.00    +0.000 F 
ATOM     28  F   UNL     1       0.780   3.334  20.758  0.00  0.00    +0.000 F 
ENDBRANCH   5  25
BRANCH   1  29
ATOM     29  C   UNL     1       4.959   4.270  16.653  0.00  0.00    +0.000 C 
BRANCH  29  30
ATOM     30  C   UNL     1       6.374   4.860  16.782  0.00  0.00    +0.000 C 
BRANCH  30  32
ATOM     31  C   UNL     1       7.537   5.479  18.792  0.00  0.00    +0.000 C 
ATOM     32  N   UNL     1       7.034   4.368  17.993  0.00  0.00    +0.000 NA
ATOM     33  H   UNL     1       6.373   3.827  18.551  0.00  0.00    +0.000 HD
ENDBRANCH  30  32
ENDBRANCH  29  30
ENDBRANCH   1  29
TORSDOF 7
ENDMDL
MODEL 2
REMARK VINA RESULT:      -8.7      2.367      8.441
REMARK  Name = 
REMARK  10 active torsions:
REMARK  status: ('A' for Active; 'I' for Inactive)
REMARK    1  A    between atoms: C_1  and  N_2
REMARK    2  A    between atoms: N_2  and  C_3
REMARK    3  A    between atoms: C_3  and  C_4
REMARK    4  A    between atoms: C_4  and  C_5
REMARK    5  A    between atoms: C_9  and  C_10
REMARK    6  A    between atoms: N_16  and  C_17
REMARK    7  A    between atoms: C_21  and  C_22
REMARK    8  A    between atoms: C_22  and  C_23
REMARK    9  A    between atoms: C_22  and  C_24
REMARK   10  A    between atoms: N_28  and  C_29
REMARK                            x       y       z     vdW  Elec       q    Type
REMARK                         _______ _______ _______ _____ _____    ______ ____
ROOT
ATOM      1  C   UNL     1       0.463  11.533  19.448  0.00  0.00    +0.000 A 
ATOM      2  C   UNL     1       1.230  10.608  18.735  0.00  0.00    +0.000 A 
ATOM      3  C   UNL     1       1.486   9.387  19.325  0.00  0.00    +0.000 A 
ATOM      4  C   UNL     1       1.026   9.038  20.590  0.00  0.00    +0.000 A 
ATOM      5  C   UNL     1       0.304   9.953  21.347  0.00  0.00    +0.000 A 
ATOM      6  C   UNL     1       0.024  11.207  20.753  0.00  0.00    +0.000 A 
ATOM      7  C   UNL     1       1.428   7.624  20.881  0.00  0.00    +0.000 C 
ATOM      8  N   UNL     1       2.193   7.241  19.702  0.00  0.00    +0.000 N 
ATOM      9  C   UNL     1       2.237   8.268  18.761  0.00  0.00    +0.000 C 
ATOM     10  O   UNL     1       2.736   8.322  17.652  0.00  0.00    +0.000 OA
ENDROOT
BRANCH   8  11
ATOM     11  C   UNL     1       2.778   5.961  19.538  0.00  0.00    +0.000 A 
ATOM     12  C   UNL     1       2.268   4.849  20.217  0.00  0.00    +0.000 A 
ATOM     13  C   UNL     1       2.867   3.594  20.096  0.00  0.00    +0.000 A 
ATOM     14  C   UNL     1       3.990   3.436  19.296  0.00  0.00    +0.000 A 
ATOM     15  C   UNL     1       4.519   4.522  18.582  0.00  0.00    +0.000 A 
ATOM     16  C   UNL     1       3.890   5.777  18.704  0.00  0.00    +0.000 A 
BRANCH  15  17
ATOM     17  C   UNL     1       5.740   4.367  17.687  0.00  0.00    +0.000 C 
ATOM     18  C   UNL     1       5.360   3.820  16.303  0.00  0.00    +0.000 C 
BRANCH  17  19
ATOM     19  C   UNL     1       6.523   5.647  17.593  0.00  0.00    +0.000 A 
ATOM     20  C   UNL     1       6.528   6.644  16.634  0.00  0.00    +0.000 A 
ATOM     21  N   UNL     1       7.387   7.656  16.967  0.00  0.00    +0.000 NA
ATOM     22  C   UNL     1       7.902   7.301  18.121  0.00  0.00    +0.000 A 
ATOM     23  N   UNL     1       7.424   6.091  18.535  0.00  0.00    +0.000 N 
ATOM     24  C   UNL     1       7.818   5.428  19.754  0.00  0.00    +0.000 C 
ENDBRANCH  17  19
ENDBRANCH  15  17
ENDBRANCH   8  11
BRANCH   5  25
ATOM     25  C   UNL     1      -0.170   9.663  22.746  0.00  0.00    +0.000 C 
ATOM     26  F   UNL     1       0.844   9.426  23.626  0.00  0.00    +0.000 F 
ATOM     27  F   UNL     1      -0.885  10.692  23.276  0.00  0.00    +0.000 F 
ATOM     28  F   UNL     1      -0.976   8.571  22.810  0.00  0.00    +0.000 F 
ENDBRANCH   5  25
BRANCH   1  29
ATOM     29  C   UNL     1       0.132  12.870  18.823  0.00  0.00    +0.000 C 
BRANCH  29  30
ATOM     30  C   UNL     1      -1.354  12.982  18.438  0.00  0.00    +0.000 C 
BRANCH  30  32
ATOM     31  C   UNL     1      -2.619  11.241  17.368  0.00  0.00    +0.000 C 
ATOM     32  N   UNL     1      -1.620  12.286  17.178  0.00  0.00    +0.000 NA
ATOM     33  H   UNL     1      -1.959  12.951  16.482  0.00  0.00    +0.000 HD
ENDBRANCH  30  32
ENDBRANCH  29  30
ENDBRANCH   1  29
TORSDOF 7
ENDMDL
MODEL 3
REMARK VINA RESULT:      -8.6      0.762      1.018
REMARK  Name = 
REMARK  10 active torsions:
REMARK  status: ('A' for Active; 'I' for Inactive)
REMARK    1  A    between atoms: C_1  and  N_2
REMARK    2  A    between atoms: N_2  and  C_3
REMARK    3  A    between atoms: C_3  and  C_4
REMARK    4  A    between atoms: C_4  and  C_5
REMARK    5  A    between atoms: C_9  and  C_10
REMARK    6  A    between atoms: N_16  and  C_17
REMARK    7  A    between atoms: C_21  and  C_22
REMARK    8  A    between atoms: C_22  and  C_23
REMARK    9  A    between atoms: C_22  and  C_24
REMARK   10  A    between atoms: N_28  and  C_29
REMARK                            x       y       z     vdW  Elec       q    Type
REMARK                         _______ _______ _______ _____ _____    ______ ____
ROOT
ATOM      1  C   UNL     1       3.974   5.158  17.681  0.00  0.00    +0.000 A 
ATOM      2  C   UNL     1       3.531   6.483  17.741  0.00  0.00    +0.000 A 
ATOM      3  C   UNL     1       2.687   6.837  18.774  0.00  0.00    +0.000 A 
ATOM      4  C   UNL     1       2.255   5.945  19.749  0.00  0.00    +0.000 A 
ATOM      5  C   UNL     1       2.636   4.609  19.690  0.00  0.00    +0.000 A 
ATOM      6  C   UNL     1       3.508   4.230  18.642  0.00  0.00    +0.000 A 
ATOM      7  C   UNL     1       1.414   6.682  20.746  0.00  0.00    +0.000 C 
ATOM      8  N   UNL     1       1.371   8.037  20.214  0.00  0.00    +0.000 N 
ATOM      9  C   UNL     1       2.124   8.157  19.048  0.00  0.00    +0.000 C 
ATOM     10  O   UNL     1       2.363   9.118  18.340  0.00  0.00    +0.000 OA
ENDROOT
BRANCH   8  11
ATOM     11  C   UNL     1       0.674   9.097  20.846  0.00  0.00    +0.000 A 
ATOM     12  C   UNL     1       0.416   9.066  22.221  0.00  0.00    +0.000 A 
ATOM     13  C   UNL     1      -0.309  10.083  22.841  0.00  0.00    +0.000 A 
ATOM     14  C   UNL     1      -0.791  11.148  22.092  0.00  0.00    +0.000 A 
ATOM     15  C   UNL     1      -0.535  11.227  20.714  0.00  0.00    +0.000 A 
ATOM     16  C   UNL     1       0.213  10.198  20.109  0.00  0.00    +0.000 A 
BRANCH  15  17
ATOM     17  C   UNL     1      -1.041  12.393  19.878  0.00  0.00    +0.000 C 
ATOM     18  C   UNL     1      -0.084  12.716  18.721  0.00  0.00    +0.000 C 
BRANCH  17  19
ATOM     19  C   UNL     1      -2.447  12.162  19.399  0.00  0.00    +0.000 A 
ATOM     20  C   UNL     1      -2.938  11.445  18.322  0.00  0.00    +0.000 A 
ATOM     21  N   UNL     1      -4.305  11.479  18.278  0.00  0.00    +0.000 NA
ATOM     22  C   UNL     1      -4.663  12.197  19.316  0.00  0.00    +0.000 A 
ATOM     23  N   UNL     1      -3.580  12.644  20.018  0.00  0.00    +0.000 N 
ATOM     24  C   UNL     1      -3.652  13.472  21.196  0.00  0.00    +0.000 C 
ENDBRANCH  17  19
ENDBRANCH  15  17
ENDBRANCH   8  11
BRANCH   5  25
ATOM     25  C   UNL     1       2.153   3.577  20.675  0.00  0.00    +0.000 C 
ATOM     26  F   UNL     1       0.797   3.439  20.699  0.00  0.00    +0.000 F 
ATOM     27  F   UNL     1       2.646   2.337  20.411  0.00  0.00    +0.000 F 
ATOM     28  F   UNL     1       2.517   3.864  21.953  0.00  0.00    +0.000 F 
ENDBRANCH   5  25
BRANCH   1  29
ATOM     29  C   UNL     1       4.926   4.737  16.584  0.00  0.00    +0.000 C 
BRANCH  29  30
ATOM     30  C   UNL     1       6.352   4.497  17.109  0.00  0.00    +0.000 C 
BRANCH  30  32
ATOM     31  C   UNL     1       7.248   6.722  17.263  0.00  0.00    +0.000 C 
ATOM     32  N   UNL     1       7.289   5.462  16.531  0.00  0.00    +0.000 NA
ATOM     33  H   UNL     1       8.237   5.085  16.565  0.00  0.00    +0.000 HD
ENDBRANCH  30  32
ENDBRANCH  29  30
ENDBRANCH   1  29
TORSDOF 7
ENDMDL
MODEL 4
REMARK VINA RESULT:      -8.5      1.450      2.422
REMARK  Name = 
REMARK  10 active torsions:
REMARK  status: ('A' for Active; 'I' for Inactive)
REMARK    1  A    between atoms: C_1  and  N_2
REMARK    2  A    between atoms: N_2  and  C_3
REMARK    3  A    between atoms: C_3  and  C_4
REMARK    4  A    between atoms: C_4  and  C_5
REMARK    5  A    between atoms: C_9  and  C_10
REMARK    6  A    between atoms: N_16  and  C_17
REMARK    7  A    between atoms: C_21  and  C_22
REMARK    8  A    between atoms: C_22  and  C_23
REMARK    9  A    between atoms: C_22  and  C_24
REMARK   10  A    between atoms: N_28  and  C_29
REMARK                            x       y       z     vdW  Elec       q    Type
REMARK                         _______ _______ _______ _____ _____    ______ ____
ROOT
ATOM      1  C   UNL     1       4.370   4.562  17.648  0.00  0.00    +0.000 A 
ATOM      2  C   UNL     1       3.947   5.892  17.566  0.00  0.00    +0.000 A 
ATOM      3  C   UNL     1       3.093   6.361  18.543  0.00  0.00    +0.000 A 
ATOM      4  C   UNL     1       2.632   5.579  19.596  0.00  0.00    +0.000 A 
ATOM      5  C   UNL     1       2.993   4.239  19.679  0.00  0.00    +0.000 A 
ATOM      6  C   UNL     1       3.875   3.743  18.690  0.00  0.00    +0.000 A 
ATOM      7  C   UNL     1       1.787   6.426  20.498  0.00  0.00    +0.000 C 
ATOM      8  N   UNL     1       1.774   7.720  19.831  0.00  0.00    +0.000 N 
ATOM      9  C   UNL     1       2.546   7.710  18.671  0.00  0.00    +0.000 C 
ATOM     10  O   UNL     1       2.812   8.590  17.873  0.00  0.00    +0.000 OA
ENDROOT
BRANCH   8  11
ATOM     11  C   UNL     1       1.084   8.849  20.340  0.00  0.00    +0.000 A 
ATOM     12  C   UNL     1       0.925   9.029  21.718  0.00  0.00    +0.000 A 
ATOM     13  C   UNL     1       0.208  10.114  22.225  0.00  0.00    +0.000 A 
ATOM     14  C   UNL     1      -0.366  11.032  21.356  0.00  0.00    +0.000 A 
ATOM     15  C   UNL     1      -0.211  10.898  19.968  0.00  0.00    +0.000 A 
ATOM     16  C   UNL     1       0.531   9.806  19.477  0.00  0.00    +0.000 A 
BRANCH  15  17
ATOM     17  C   UNL     1      -0.818  11.903  19.000  0.00  0.00    +0.000 C 
ATOM     18  C   UNL     1      -2.352  11.846  19.011  0.00  0.00    +0.000 C 
BRANCH  17  19
ATOM     19  C   UNL     1      -0.303  13.294  19.252  0.00  0.00    +0.000 A 
ATOM     20  C   UNL     1      -0.880  14.377  19.891  0.00  0.00    +0.000 A 
ATOM     21  N   UNL     1      -0.034  15.452  19.917  0.00  0.00    +0.000 NA
ATOM     22  C   UNL     1       1.057  15.044  19.312  0.00  0.00    +0.000 A 
ATOM     23  N   UNL     1       0.941  13.754  18.880  0.00  0.00    +0.000 N 
ATOM     24  C   UNL     1       1.965  13.034  18.165  0.00  0.00    +0.000 C 
ENDBRANCH  17  19
ENDBRANCH  15  17
ENDBRANCH   8  11
BRANCH   5  25
ATOM     25  C   UNL     1       2.479   3.320  20.756  0.00  0.00    +0.000 C 
ATOM     26  F   UNL     1       2.421   3.901  21.987  0.00  0.00    +0.000 F 
ATOM     27  F   UNL     1       1.219   2.874  20.500  0.00  0.00    +0.000 F 
ATOM     28  F   UNL     1       3.249   2.210  20.908  0.00  0.00    +0.000 F 
ENDBRANCH   5  25
BRANCH   1  29
ATOM     29  C   UNL     1       5.332   4.018  16.616  0.00  0.00    +0.000 C 
BRANCH  29  30
ATOM     30  C   UNL     1       6.726   4.660  16.722  0.00  0.00    +0.000 C 
BRANCH  30  32
ATOM     31  C   UNL     1       7.640   5.555  18.757  0.00  0.00    +0.000 C 
ATOM     32  N   UNL     1       7.351   4.338  18.007  0.00  0.00    +0.000 NA
ATOM     33  H   UNL     1       6.726   3.747  18.555  0.00  0.00    +0.000 HD
ENDBRANCH  30  32
ENDBRANCH  29  30
ENDBRANCH   1  29
TORSDOF 7
ENDMDL
MODEL 5
REMARK VINA RESULT:      -8.5      2.740      8.576
REMARK  Name = 
REMARK  10 active torsions:
REMARK  status: ('A' for Active; 'I' for Inactive)
REMARK    1  A    between atoms: C_1  and  N_2
REMARK    2  A    between atoms: N_2  and  C_3
REMARK    3  A    between atoms: C_3  and  C_4
REMARK    4  A    between atoms: C_4  and  C_5
REMARK    5  A    between atoms: C_9  and  C_10
REMARK    6  A    between atoms: N_16  and  C_17
REMARK    7  A    between atoms: C_21  and  C_22
REMARK    8  A    between atoms: C_22  and  C_23
REMARK    9  A    between atoms: C_22  and  C_24
REMARK   10  A    between atoms: N_28  and  C_29
REMARK                            x       y       z     vdW  Elec       q    Type
REMARK                         _______ _______ _______ _____ _____    ______ ____
ROOT
ATOM      1  C   UNL     1       0.030  11.462  19.249  0.00  0.00    +0.000 A 
ATOM      2  C   UNL     1       0.815  10.535  18.555  0.00  0.00    +0.000 A 
ATOM      3  C   UNL     1       1.196   9.386  19.217  0.00  0.00    +0.000 A 
ATOM      4  C   UNL     1       0.846   9.109  20.533  0.00  0.00    +0.000 A 
ATOM      5  C   UNL     1       0.109  10.032  21.268  0.00  0.00    +0.000 A 
ATOM      6  C   UNL     1      -0.298  11.212  20.602  0.00  0.00    +0.000 A 
ATOM      7  C   UNL     1       1.367   7.753  20.901  0.00  0.00    +0.000 C 
ATOM      8  N   UNL     1       2.079   7.329  19.704  0.00  0.00    +0.000 N 
ATOM      9  C   UNL     1       1.988   8.278  18.688  0.00  0.00    +0.000 C 
ATOM     10  O   UNL     1       2.409   8.276  17.545  0.00  0.00    +0.000 OA
ENDROOT
BRANCH   8  11
ATOM     11  C   UNL     1       2.743   6.082  19.596  0.00  0.00    +0.000 A 
ATOM     12  C   UNL     1       2.350   4.992  20.381  0.00  0.00    +0.000 A 
ATOM     13  C   UNL     1       3.029   3.775  20.313  0.00  0.00    +0.000 A 
ATOM     14  C   UNL     1       4.115   3.632  19.461  0.00  0.00    +0.000 A 
ATOM     15  C   UNL     1       4.527   4.695  18.643  0.00  0.00    +0.000 A 
ATOM     16  C   UNL     1       3.819   5.911  18.713  0.00  0.00    +0.000 A 
BRANCH  15  17
ATOM     17  C   UNL     1       5.705   4.555  17.690  0.00  0.00    +0.000 C 
ATOM     18  C   UNL     1       5.256   4.079  16.301  0.00  0.00    +0.000 C 
BRANCH  17  19
ATOM     19  C   UNL     1       6.513   5.821  17.619  0.00  0.00    +0.000 A 
ATOM     20  C   UNL     1       6.504   6.858  16.703  0.00  0.00    +0.000 A 
ATOM     21  N   UNL     1       7.397   7.837  17.045  0.00  0.00    +0.000 NA
ATOM     22  C   UNL     1       7.948   7.423  18.162  0.00  0.00    +0.000 A 
ATOM     23  N   UNL     1       7.459   6.206  18.544  0.00  0.00    +0.000 N 
ATOM     24  C   UNL     1       7.884   5.484  19.717  0.00  0.00    +0.000 C 
ENDBRANCH  17  19
ENDBRANCH  15  17
ENDBRANCH   8  11
BRANCH   5  25
ATOM     25  C   UNL     1      -0.250   9.824  22.715  0.00  0.00    +0.000 C 
ATOM     26  F   UNL     1       0.828   9.590  23.517  0.00  0.00    +0.000 F 
ATOM     27  F   UNL     1      -0.882  10.902  23.253  0.00  0.00    +0.000 F 
ATOM     28  F   UNL     1      -1.083   8.766  22.901  0.00  0.00    +0.000 F 
ENDBRANCH   5  25
BRANCH   1  29
ATOM     29  C   UNL     1      -0.436  12.719  18.550  0.00  0.00    +0.000 C 
BRANCH  29  30
ATOM     30  C   UNL     1       0.150  13.992  19.185  0.00  0.00    +0.000 C 
BRANCH  30  32
ATOM     31  C   UNL     1      -0.388  16.200  19.967  0.00  0.00    +0.000 C 
ATOM     32  N   UNL     1      -0.804  15.100  19.105  0.00  0.00    +0.000 NA
ATOM     33  H   UNL     1      -0.865  15.433  18.143  0.00  0.00    +0.000 HD
ENDBRANCH  30  32
ENDBRANCH  29  30
ENDBRANCH   1  29
TORSDOF 7
ENDMDL
MODEL 6
REMARK VINA RESULT:      -8.4      1.064      1.403
REMARK  Name = 
REMARK  10 active torsions:
REMARK  status: ('A' for Active; 'I' for Inactive)
REMARK    1  A    between atoms: C_1  and  N_2
REMARK    2  A    between atoms: N_2  and  C_3
REMARK    3  A    between atoms: C_3  and  C_4
REMARK    4  A    between atoms: C_4  and  C_5
REMARK    5  A    between atoms: C_9  and  C_10
REMARK    6  A    between atoms: N_16  and  C_17
REMARK    7  A    between atoms: C_21  and  C_22
REMARK    8  A    between atoms: C_22  and  C_23
REMARK    9  A    between atoms: C_22  and  C_24
REMARK   10  A    between atoms: N_28  and  C_29
REMARK                            x       y       z     vdW  Elec       q    Type
REMARK                         _______ _______ _______ _____ _____    ______ ____
ROOT
ATOM      1  C   UNL     1       3.959   5.711  17.650  0.00  0.00    +0.000 A 
ATOM      2  C   UNL     1       3.443   7.009  17.695  0.00  0.00    +0.000 A 
ATOM      3  C   UNL     1       2.585   7.330  18.727  0.00  0.00    +0.000 A 
ATOM      4  C   UNL     1       2.206   6.428  19.714  0.00  0.00    +0.000 A 
ATOM      5  C   UNL     1       2.661   5.114  19.671  0.00  0.00    +0.000 A 
ATOM      6  C   UNL     1       3.549   4.770  18.624  0.00  0.00    +0.000 A 
ATOM      7  C   UNL     1       1.330   7.130  20.705  0.00  0.00    +0.000 C 
ATOM      8  N   UNL     1       1.210   8.474  20.157  0.00  0.00    +0.000 N 
ATOM      9  C   UNL     1       1.951   8.620  18.986  0.00  0.00    +0.000 C 
ATOM     10  O   UNL     1       2.134   9.583  18.264  0.00  0.00    +0.000 OA
ENDROOT
BRANCH   8  11
ATOM     11  C   UNL     1       0.458   9.502  20.778  0.00  0.00    +0.000 A 
ATOM     12  C   UNL     1       0.267   9.512  22.164  0.00  0.00    +0.000 A 
ATOM     13  C   UNL     1      -0.510  10.495  22.777  0.00  0.00    +0.000 A 
ATOM     14  C   UNL     1      -1.113  11.482  22.009  0.00  0.00    +0.000 A 
ATOM     15  C   UNL     1      -0.929  11.519  20.618  0.00  0.00    +0.000 A 
ATOM     16  C   UNL     1      -0.127  10.527  20.020  0.00  0.00    +0.000 A 
BRANCH  15  17
ATOM     17  C   UNL     1      -1.567  12.602  19.760  0.00  0.00    +0.000 C 
ATOM     18  C   UNL     1      -0.569  13.185  18.750  0.00  0.00    +0.000 C 
BRANCH  17  19
ATOM     19  C   UNL     1      -2.822  12.110  19.093  0.00  0.00    +0.000 A 
ATOM     20  C   UNL     1      -3.014  11.402  17.920  0.00  0.00    +0.000 A 
ATOM     21  N   UNL     1      -4.339  11.138  17.704  0.00  0.00    +0.000 NA
ATOM     22  C   UNL     1      -4.964  11.664  18.731  0.00  0.00    +0.000 A 
ATOM     23  N   UNL     1      -4.096  12.274  19.592  0.00  0.00    +0.000 N 
ATOM     24  C   UNL     1      -4.485  12.957  20.800  0.00  0.00    +0.000 C 
ENDBRANCH  17  19
ENDBRANCH  15  17
ENDBRANCH   8  11
BRANCH   5  25
ATOM     25  C   UNL     1       2.239   4.071  20.671  0.00  0.00    +0.000 C 
ATOM     26  F   UNL     1       2.550   4.392  21.959  0.00  0.00    +0.000 F 
ATOM     27  F   UNL     1       0.896   3.853  20.660  0.00  0.00    +0.000 F 
ATOM     28  F   UNL     1       2.819   2.863  20.443  0.00  0.00    +0.000 F 
ENDBRANCH   5  25
BRANCH   1  29
ATOM     29  C   UNL     1       4.929   5.329  16.554  0.00  0.00    +0.000 C 
BRANCH  29  30
ATOM     30  C   UNL     1       5.650   4.002  16.849  0.00  0.00    +0.000 C 
BRANCH  30  32
ATOM     31  C   UNL     1       6.259   4.360  14.552  0.00  0.00    +0.000 C 
ATOM     32  N   UNL     1       6.103   3.368  15.609  0.00  0.00    +0.000 NA
ATOM     33  H   UNL     1       6.998   2.904  15.767  0.00  0.00    +0.000 HD
ENDBRANCH  30  32
ENDBRANCH  29  30
ENDBRANCH   1  29
TORSDOF 7
ENDMDL
MODEL 7
REMARK VINA RESULT:      -8.4      0.745      1.412
REMARK  Name = 
REMARK  10 active torsions:
REMARK  status: ('A' for Active; 'I' for Inactive)
REMARK    1  A    between atoms: C_1  and  N_2
REMARK    2  A    between atoms: N_2  and  C_3
REMARK    3  A    between atoms: C_3  and  C_4
REMARK    4  A    between atoms: C_4  and  C_5
REMARK    5  A    between atoms: C_9  and  C_10
REMARK    6  A    between atoms: N_16  and  C_17
REMARK    7  A    between atoms: C_21  and  C_22
REMARK    8  A    between atoms: C_22  and  C_23
REMARK    9  A    between atoms: C_22  and  C_24
REMARK   10  A    between atoms: N_28  and  C_29
REMARK                            x       y       z     vdW  Elec       q    Type
REMARK                         _______ _______ _______ _____ _____    ______ ____
ROOT
ATOM      1  C   UNL     1       3.928   5.048  17.600  0.00  0.00    +0.000 A 
ATOM      2  C   UNL     1       3.510   6.380  17.675  0.00  0.00    +0.000 A 
ATOM      3  C   UNL     1       2.689   6.743  18.723  0.00  0.00    +0.000 A 
ATOM      4  C   UNL     1       2.256   5.853  19.700  0.00  0.00    +0.000 A 
ATOM      5  C   UNL     1       2.612   4.510  19.626  0.00  0.00    +0.000 A 
ATOM      6  C   UNL     1       3.461   4.122  18.563  0.00  0.00    +0.000 A 
ATOM      7  C   UNL     1       1.445   6.599  20.714  0.00  0.00    +0.000 C 
ATOM      8  N   UNL     1       1.418   7.958  20.191  0.00  0.00    +0.000 N 
ATOM      9  C   UNL     1       2.155   8.071  19.014  0.00  0.00    +0.000 C 
ATOM     10  O   UNL     1       2.401   9.032  18.308  0.00  0.00    +0.000 OA
ENDROOT
BRANCH   8  11
ATOM     11  C   UNL     1       0.751   9.026  20.840  0.00  0.00    +0.000 A 
ATOM     12  C   UNL     1       0.511   8.990  22.218  0.00  0.00    +0.000 A 
ATOM     13  C   UNL     1      -0.185  10.016  22.856  0.00  0.00    +0.000 A 
ATOM     14  C   UNL     1      -0.658  11.095  22.121  0.00  0.00    +0.000 A 
ATOM     15  C   UNL     1      -0.420  11.180  20.740  0.00  0.00    +0.000 A 
ATOM     16  C   UNL     1       0.300  10.141  20.118  0.00  0.00    +0.000 A 
BRANCH  15  17
ATOM     17  C   UNL     1      -0.914  12.362  19.919  0.00  0.00    +0.000 C 
ATOM     18  C   UNL     1      -0.037  12.597  18.681  0.00  0.00    +0.000 C 
BRANCH  17  19
ATOM     19  C   UNL     1      -2.368  12.217  19.562  0.00  0.00    +0.000 A 
ATOM     20  C   UNL     1      -3.507  12.737  20.149  0.00  0.00    +0.000 A 
ATOM     21  N   UNL     1      -4.635  12.366  19.470  0.00  0.00    +0.000 NA
ATOM     22  C   UNL     1      -4.207  11.633  18.469  0.00  0.00    +0.000 A 
ATOM     23  N   UNL     1      -2.847  11.501  18.487  0.00  0.00    +0.000 N 
ATOM     24  C   UNL     1      -2.086  10.739  17.529  0.00  0.00    +0.000 C 
ENDBRANCH  17  19
ENDBRANCH  15  17
ENDBRANCH   8  11
BRANCH   5  25
ATOM     25  C   UNL     1       2.126   3.482  20.613  0.00  0.00    +0.000 C 
ATOM     26  F   UNL     1       2.493   3.743  21.899  0.00  0.00    +0.000 F 
ATOM     27  F   UNL     1       0.769   3.380  20.631  0.00  0.00    +0.000 F 
ATOM     28  F   UNL     1       2.594   2.235  20.342  0.00  0.00    +0.000 F 
ENDBRANCH   5  25
BRANCH   1  29
ATOM     29  C   UNL     1       4.855   4.617  16.486  0.00  0.00    +0.000 C 
BRANCH  29  30
ATOM     30  C   UNL     1       5.634   5.799  15.885  0.00  0.00    +0.000 C 
BRANCH  30  32
ATOM     31  C   UNL     1       7.448   4.639  16.954  0.00  0.00    +0.000 C 
ATOM     32  N   UNL     1       7.070   5.513  15.849  0.00  0.00    +0.000 NA
ATOM     33  H   UNL     1       7.309   5.060  14.967  0.00  0.00    +0.000 HD
ENDBRANCH  30  32
ENDBRANCH  29  30
ENDBRANCH   1  29
TORSDOF 7
ENDMDL
MODEL 8
REMARK VINA RESULT:      -8.4      3.079      8.619
REMARK  Name = 
REMARK  10 active torsions:
REMARK  status: ('A' for Active; 'I' for Inactive)
REMARK    1  A    between atoms: C_1  and  N_2
REMARK    2  A    between atoms: N_2  and  C_3
REMARK    3  A    between atoms: C_3  and  C_4
REMARK    4  A    between atoms: C_4  and  C_5
REMARK    5  A    between atoms: C_9  and  C_10
REMARK    6  A    between atoms: N_16  and  C_17
REMARK    7  A    between atoms: C_21  and  C_22
REMARK    8  A    between atoms: C_22  and  C_23
REMARK    9  A    between atoms: C_22  and  C_24
REMARK   10  A    between atoms: N_28  and  C_29
REMARK                            x       y       z     vdW  Elec       q    Type
REMARK                         _______ _______ _______ _____ _____    ______ ____
ROOT
ATOM      1  C   UNL     1      -0.134  12.317  19.900  0.00  0.00    +0.000 A 
ATOM      2  C   UNL     1       0.615  11.676  18.909  0.00  0.00    +0.000 A 
ATOM      3  C   UNL     1       1.037  10.384  19.150  0.00  0.00    +0.000 A 
ATOM      4  C   UNL     1       0.761   9.696  20.326  0.00  0.00    +0.000 A 
ATOM      5  C   UNL     1       0.063  10.322  21.353  0.00  0.00    +0.000 A 
ATOM      6  C   UNL     1      -0.385  11.644  21.119  0.00  0.00    +0.000 A 
ATOM      7  C   UNL     1       1.308   8.306  20.217  0.00  0.00    +0.000 C 
ATOM      8  N   UNL     1       1.955   8.299  18.912  0.00  0.00    +0.000 N 
ATOM      9  C   UNL     1       1.803   9.519  18.256  0.00  0.00    +0.000 C 
ATOM     10  O   UNL     1       2.160   9.889  17.152  0.00  0.00    +0.000 OA
ENDROOT
BRANCH   8  11
ATOM     11  C   UNL     1       2.617   7.165  18.379  0.00  0.00    +0.000 A 
ATOM     12  C   UNL     1       3.784   7.308  17.620  0.00  0.00    +0.000 A 
ATOM     13  C   UNL     1       4.415   6.201  17.054  0.00  0.00    +0.000 A 
ATOM     14  C   UNL     1       3.884   4.931  17.236  0.00  0.00    +0.000 A 
ATOM     15  C   UNL     1       2.727   4.743  18.008  0.00  0.00    +0.000 A 
ATOM     16  C   UNL     1       2.114   5.873  18.586  0.00  0.00    +0.000 A 
BRANCH  15  17
ATOM     17  C   UNL     1       2.139   3.358  18.234  0.00  0.00    +0.000 C 
ATOM     18  C   UNL     1       2.899   2.284  17.443  0.00  0.00    +0.000 C 
BRANCH  17  19
ATOM     19  C   UNL     1       2.053   3.026  19.699  0.00  0.00    +0.000 A 
ATOM     20  C   UNL     1       0.979   3.017  20.571  0.00  0.00    +0.000 A 
ATOM     21  N   UNL     1       1.355   2.621  21.825  0.00  0.00    +0.000 NA
ATOM     22  C   UNL     1       2.641   2.377  21.736  0.00  0.00    +0.000 A 
ATOM     23  N   UNL     1       3.114   2.619  20.478  0.00  0.00    +0.000 N 
ATOM     24  C   UNL     1       4.490   2.462  20.075  0.00  0.00    +0.000 C 
ENDBRANCH  17  19
ENDBRANCH  15  17
ENDBRANCH   8  11
BRANCH   5  25
ATOM     25  C   UNL     1      -0.214   9.658  22.675  0.00  0.00    +0.000 C 
ATOM     26  F   UNL     1      -0.916  10.441  23.543  0.00  0.00    +0.000 F 
ATOM     27  F   UNL     1      -0.940   8.515  22.540  0.00  0.00    +0.000 F 
ATOM     28  F   UNL     1       0.923   9.307  23.333  0.00  0.00    +0.000 F 
ENDBRANCH   5  25
BRANCH   1  29
ATOM     29  C   UNL     1      -0.643  13.721  19.662  0.00  0.00    +0.000 C 
BRANCH  29  30
ATOM     30  C   UNL     1      -0.302  14.670  20.824  0.00  0.00    +0.000 C 
BRANCH  30  32
ATOM     31  C   UNL     1      -0.146  16.071  18.876  0.00  0.00    +0.000 C 
ATOM     32  N   UNL     1      -0.025  16.021  20.328  0.00  0.00    +0.000 NA
ATOM     33  H   UNL     1      -0.683  16.681  20.742  0.00  0.00    +0.000 HD
ENDBRANCH  30  32
ENDBRANCH  29  30
ENDBRANCH   1  29
TORSDOF 7
ENDMDL
MODEL 9
REMARK VINA RESULT:      -8.3      1.228      1.918
REMARK  Name = 
REMARK  10 active torsions:
REMARK  status: ('A' for Active; 'I' for Inactive)
REMARK    1  A    between atoms: C_1  and  N_2
REMARK    2  A    between atoms: N_2  and  C_3
REMARK    3  A    between atoms: C_3  and  C_4
REMARK    4  A    between atoms: C_4  and  C_5
REMARK    5  A    between atoms: C_9  and  C_10
REMARK    6  A    between atoms: N_16  and  C_17
REMARK    7  A    between atoms: C_21  and  C_22
REMARK    8  A    between atoms: C_22  and  C_23
REMARK    9  A    between atoms: C_22  and  C_24
REMARK   10  A    between atoms: N_28  and  C_29
REMARK                            x       y       z     vdW  Elec       q    Type
REMARK                         _______ _______ _______ _____ _____    ______ ____
ROOT
ATOM      1  C   UNL     1       4.055   4.998  17.732  0.00  0.00    +0.000 A 
ATOM      2  C   UNL     1       3.628   6.329  17.718  0.00  0.00    +0.000 A 
ATOM      3  C   UNL     1       2.766   6.743  18.713  0.00  0.00    +0.000 A 
ATOM      4  C   UNL     1       2.300   5.904  19.719  0.00  0.00    +0.000 A 
ATOM      5  C   UNL     1       2.665   4.562  19.733  0.00  0.00    +0.000 A 
ATOM      6  C   UNL     1       3.556   4.123  18.725  0.00  0.00    +0.000 A 
ATOM      7  C   UNL     1       1.448   6.699  20.660  0.00  0.00    +0.000 C 
ATOM      8  N   UNL     1       1.434   8.027  20.063  0.00  0.00    +0.000 N 
ATOM      9  C   UNL     1       2.214   8.081  18.910  0.00  0.00    +0.000 C 
ATOM     10  O   UNL     1       2.482   9.004  18.162  0.00  0.00    +0.000 OA
ENDROOT
BRANCH   8  11
ATOM     11  C   UNL     1       0.737   9.125  20.627  0.00  0.00    +0.000 A 
ATOM     12  C   UNL     1       0.576   9.235  22.013  0.00  0.00    +0.000 A 
ATOM     13  C   UNL     1      -0.148  10.288  22.572  0.00  0.00    +0.000 A 
ATOM     14  C   UNL     1      -0.726  11.246  21.750  0.00  0.00    +0.000 A 
ATOM     15  C   UNL     1      -0.569  11.183  20.357  0.00  0.00    +0.000 A 
ATOM     16  C   UNL     1       0.180  10.121  19.813  0.00  0.00    +0.000 A 
BRANCH  15  17
ATOM     17  C   UNL     1      -1.180  12.232  19.439  0.00  0.00    +0.000 C 
ATOM     18  C   UNL     1      -1.595  11.631  18.089  0.00  0.00    +0.000 C 
BRANCH  17  19
ATOM     19  C   UNL     1      -2.316  12.956  20.108  0.00  0.00    +0.000 A 
ATOM     20  C   UNL     1      -3.650  12.618  20.258  0.00  0.00    +0.000 A 
ATOM     21  N   UNL     1      -4.331  13.569  20.968  0.00  0.00    +0.000 NA
ATOM     22  C   UNL     1      -3.435  14.482  21.264  0.00  0.00    +0.000 A 
ATOM     23  N   UNL     1      -2.207  14.166  20.757  0.00  0.00    +0.000 N 
ATOM     24  C   UNL     1      -1.027  14.983  20.899  0.00  0.00    +0.000 C 
ENDBRANCH  17  19
ENDBRANCH  15  17
ENDBRANCH   8  11
BRANCH   5  25
ATOM     25  C   UNL     1       2.148   3.586  20.756  0.00  0.00    +0.000 C 
ATOM     26  F   UNL     1       2.439   3.935  22.040  0.00  0.00    +0.000 F 
ATOM     27  F   UNL     1       0.794   3.452  20.707  0.00  0.00    +0.000 F 
ATOM     28  F   UNL     1       2.656   2.336  20.589  0.00  0.00    +0.000 F 
ENDBRANCH   5  25
BRANCH   1  29
ATOM     29  C   UNL     1       5.025   4.513  16.678  0.00  0.00    +0.000 C 
BRANCH  29  30
ATOM     30  C   UNL     1       6.485   4.561  17.163  0.00  0.00    +0.000 C 
BRANCH  30  32
ATOM     31  C   UNL     1       6.703   4.588  14.769  0.00  0.00    +0.000 C 
ATOM     32  N   UNL     1       7.401   4.757  16.037  0.00  0.00    +0.000 NA
ATOM     33  H   UNL     1       7.800   5.695  16.077  0.00  0.00    +0.000 HD
ENDBRANCH  30  32
ENDBRANCH  29  30
ENDBRANCH   1  29
TORSDOF 7
ENDMDL
