MODEL 1
REMARK VINA RESULT:      -7.0      0.000      0.000
REMARK  Name = 
REMARK  4 active torsions:
REMARK  status: ('A' for Active; 'I' for Inactive)
REMARK    1  A    between atoms: C_1  and  C_2
REMARK    2  A    between atoms: C_7  and  C_8
REMARK    3  A    between atoms: C_12  and  C_13
REMARK    4  A    between atoms: C_19  and  C_20
REMARK                            x       y       z     vdW  Elec       q    Type
REMARK                         _______ _______ _______ _____ _____    ______ ____
ROOT
ATOM      1  C   UNL     1      -5.817  12.332  21.089  0.00  0.00    +0.000 C 
ATOM      2  O   UNL     1      -6.651  11.544  21.533  0.00  0.00    +0.000 OA
ATOM      3  N   UNL     1      -5.131  13.207  21.929  0.00  0.00    +0.000 N 
ATOM      4  C   UNL     1      -5.375  13.216  23.364  0.00  0.00    +0.000 C 
ATOM      5  C   UNL     1      -5.046  14.639  23.776  0.00  0.00    +0.000 C 
ATOM      6  C   UNL     1      -3.860  14.995  22.886  0.00  0.00    +0.000 C 
ATOM      7  C   UNL     1      -4.111  14.208  21.595  0.00  0.00    +0.000 C 
ENDROOT
BRANCH   1  16
ATOM      8  C   UNL     1      -7.914  14.777  19.759  0.00  0.00    +0.000 C 
ATOM      9  C   UNL     1      -7.224  14.069  18.655  0.00  0.00    +0.000 A 
ATOM     10  N   UNL     1      -7.523  14.412  17.394  0.00  0.00    +0.000 NA
ATOM     11  O   UNL     1      -6.731  13.618  16.590  0.00  0.00    +0.000 OA
ATOM     12  C   UNL     1      -5.958  12.806  17.359  0.00  0.00    +0.000 A 
ATOM     13  N   UNL     1      -5.105  11.908  16.839  0.00  0.00    +0.000 NA
ATOM     14  C   UNL     1      -4.393  11.215  17.747  0.00  0.00    +0.000 A 
ATOM     15  C   UNL     1      -4.515  11.444  19.118  0.00  0.00    +0.000 A 
ATOM     16  C   UNL     1      -5.514  12.278  19.633  0.00  0.00    +0.000 A 
ATOM     17  C   UNL     1      -6.228  13.051  18.700  0.00  0.00    +0.000 A 
BRANCH  14  18
ATOM     18  C   UNL     1      -3.515  10.079  17.269  0.00  0.00    +0.000 C 
ATOM     19  C   UNL     1      -2.011  10.228  17.260  0.00  0.00    +0.000 C 
ATOM     20  C   UNL     1      -2.766  10.168  15.965  0.00  0.00    +0.000 C 
ENDBRANCH  14  18
ENDBRANCH   1  16
BRANCH   7  21
ATOM     21  C   UNL     1      -2.878  13.550  21.074  0.00  0.00    +0.000 A 
ATOM     22  N   UNL     1      -2.217  12.562  21.644  0.00  0.00    +0.000 NA
ATOM     23  C   UNL     1      -1.139  12.322  20.827  0.00  0.00    +0.000 A 
ATOM     24  C   UNL     1      -0.114  11.376  20.951  0.00  0.00    +0.000 A 
ATOM     25  C   UNL     1       0.867  11.317  19.954  0.00  0.00    +0.000 A 
ATOM     26  C   UNL     1       0.834  12.189  18.861  0.00  0.00    +0.000 A 
ATOM     27  C   UNL     1      -0.170  13.153  18.732  0.00  0.00    +0.000 A 
ATOM     28  C   UNL     1      -1.139  13.182  19.735  0.00  0.00    +0.000 A 
ATOM     29  N   UNL     1      -2.242  13.967  19.928  0.00  0.00    +0.000 N 
ATOM     30  H   UNL     1      -2.528  14.746  19.352  0.00  0.00    +0.000 HD
ENDBRANCH   7  21
TORSDOF 3
ENDMDL
MODEL 2
REMARK VINA RESULT:      -6.9      1.766      4.965
REMARK  Name = 
REMARK  4 active torsions:
REMARK  status: ('A' for Active; 'I' for Inactive)
REMARK    1  A    between atoms: C_1  and  C_2
REMARK    2  A    between atoms: C_7  and  C_8
REMARK    3  A    between atoms: C_12  and  C_13
REMARK    4  A    between atoms: C_19  and  C_20
REMARK                            x       y       z     vdW  Elec       q    Type
REMARK                         _______ _______ _______ _____ _____    ______ ____
ROOT
ATOM      1  C   UNL     1      -5.036  12.218  17.847  0.00  0.00    +0.000 C 
ATOM      2  O   UNL     1      -5.823  12.714  17.041  0.00  0.00    +0.000 OA
ATOM      3  N   UNL     1      -3.973  11.423  17.422  0.00  0.00    +0.000 N 
ATOM      4  C   UNL     1      -3.754  11.155  16.008  0.00  0.00    +0.000 C 
ATOM      5  C   UNL     1      -3.055   9.807  16.001  0.00  0.00    +0.000 C 
ATOM      6  C   UNL     1      -2.158   9.873  17.233  0.00  0.00    +0.000 C 
ATOM      7  C   UNL     1      -2.939  10.751  18.217  0.00  0.00    +0.000 C 
ENDROOT
BRANCH   1  16
ATOM      8  C   UNL     1      -7.061   9.626  18.998  0.00  0.00    +0.000 C 
ATOM      9  C   UNL     1      -6.863  10.613  20.085  0.00  0.00    +0.000 A 
ATOM     10  N   UNL     1      -7.487  10.407  21.253  0.00  0.00    +0.000 NA
ATOM     11  O   UNL     1      -7.111  11.454  22.071  0.00  0.00    +0.000 OA
ATOM     12  C   UNL     1      -6.265  12.281  21.402  0.00  0.00    +0.000 A 
ATOM     13  N   UNL     1      -5.758  13.399  21.950  0.00  0.00    +0.000 NA
ATOM     14  C   UNL     1      -4.908  14.078  21.158  0.00  0.00    +0.000 A 
ATOM     15  C   UNL     1      -4.560  13.630  19.883  0.00  0.00    +0.000 A 
ATOM     16  C   UNL     1      -5.214  12.546  19.287  0.00  0.00    +0.000 A 
ATOM     17  C   UNL     1      -6.063  11.792  20.118  0.00  0.00    +0.000 A 
BRANCH  14  18
ATOM     18  C   UNL     1      -4.399  15.425  21.625  0.00  0.00    +0.000 C 
ATOM     19  C   UNL     1      -3.191  15.514  22.529  0.00  0.00    +0.000 C 
ATOM     20  C   UNL     1      -4.551  15.862  23.059  0.00  0.00    +0.000 C 
ENDBRANCH  14  18
ENDBRANCH   1  16
BRANCH   7  21
ATOM     21  C   UNL     1      -2.073  11.750  18.909  0.00  0.00    +0.000 A 
ATOM     22  N   UNL     1      -1.738  11.746  20.184  0.00  0.00    +0.000 NA
ATOM     23  C   UNL     1      -0.974  12.873  20.366  0.00  0.00    +0.000 A 
ATOM     24  C   UNL     1      -0.352  13.356  21.524  0.00  0.00    +0.000 A 
ATOM     25  C   UNL     1       0.404  14.531  21.438  0.00  0.00    +0.000 A 
ATOM     26  C   UNL     1       0.529  15.218  20.226  0.00  0.00    +0.000 A 
ATOM     27  C   UNL     1      -0.103  14.761  19.065  0.00  0.00    +0.000 A 
ATOM     28  C   UNL     1      -0.840  13.582  19.179  0.00  0.00    +0.000 A 
ATOM     29  N   UNL     1      -1.567  12.860  18.273  0.00  0.00    +0.000 N 
ATOM     30  H   UNL     1      -1.738  13.110  17.310  0.00  0.00    +0.000 HD
ENDBRANCH   7  21
TORSDOF 3
ENDMDL
MODEL 3
REMARK VINA RESULT:      -6.8      3.623      5.386
REMARK  Name = 
REMARK  4 active torsions:
REMARK  status: ('A' for Active; 'I' for Inactive)
REMARK    1  A    between atoms: C_1  and  C_2
REMARK    2  A    between atoms: C_7  and  C_8
REMARK    3  A    between atoms: C_12  and  C_13
REMARK    4  A    between atoms: C_19  and  C_20
REMARK                            x       y       z     vdW  Elec       q    Type
REMARK                         _______ _______ _______ _____ _____    ______ ____
ROOT
ATOM      1  C   UNL     1      -0.478  14.959  22.506  0.00  0.00    +0.000 C 
ATOM      2  O   UNL     1       0.111  15.436  23.475  0.00  0.00    +0.000 OA
ATOM      3  N   UNL     1      -0.418  15.568  21.254  0.00  0.00    +0.000 N 
ATOM      4  C   UNL     1       0.348  16.789  21.049  0.00  0.00    +0.000 C 
ATOM      5  C   UNL     1      -0.365  17.472  19.895  0.00  0.00    +0.000 C 
ATOM      6  C   UNL     1      -0.785  16.307  19.006  0.00  0.00    +0.000 C 
ATOM      7  C   UNL     1      -1.041  15.159  19.990  0.00  0.00    +0.000 C 
ENDROOT
BRANCH   1  16
ATOM      8  C   UNL     1      -3.758  15.986  23.080  0.00  0.00    +0.000 C 
ATOM      9  C   UNL     1      -3.667  14.517  23.250  0.00  0.00    +0.000 A 
ATOM     10  N   UNL     1      -4.768  13.851  23.624  0.00  0.00    +0.000 NA
ATOM     11  O   UNL     1      -4.402  12.521  23.683  0.00  0.00    +0.000 OA
ATOM     12  C   UNL     1      -3.092  12.387  23.345  0.00  0.00    +0.000 A 
ATOM     13  N   UNL     1      -2.460  11.201  23.342  0.00  0.00    +0.000 NA
ATOM     14  C   UNL     1      -1.175  11.249  22.945  0.00  0.00    +0.000 A 
ATOM     15  C   UNL     1      -0.567  12.437  22.539  0.00  0.00    +0.000 A 
ATOM     16  C   UNL     1      -1.203  13.674  22.693  0.00  0.00    +0.000 A 
ATOM     17  C   UNL     1      -2.563  13.638  23.053  0.00  0.00    +0.000 A 
BRANCH  14  18
ATOM     18  C   UNL     1      -0.336   9.994  23.046  0.00  0.00    +0.000 C 
ATOM     19  C   UNL     1       0.700   9.679  21.992  0.00  0.00    +0.000 C 
ATOM     20  C   UNL     1      -0.539   8.841  22.098  0.00  0.00    +0.000 C 
ENDBRANCH  14  18
ENDBRANCH   1  16
BRANCH   7  21
ATOM     21  C   UNL     1      -0.475  13.861  19.519  0.00  0.00    +0.000 A 
ATOM     22  N   UNL     1       0.801  13.581  19.346  0.00  0.00    +0.000 NA
ATOM     23  C   UNL     1       0.833  12.294  18.867  0.00  0.00    +0.000 A 
ATOM     24  C   UNL     1       1.928  11.494  18.517  0.00  0.00    +0.000 A 
ATOM     25  C   UNL     1       1.689  10.188  18.074  0.00  0.00    +0.000 A 
ATOM     26  C   UNL     1       0.386   9.691  17.971  0.00  0.00    +0.000 A 
ATOM     27  C   UNL     1      -0.720  10.482  18.295  0.00  0.00    +0.000 A 
ATOM     28  C   UNL     1      -0.451  11.776  18.743  0.00  0.00    +0.000 A 
ATOM     29  N   UNL     1      -1.265  12.800  19.143  0.00  0.00    +0.000 N 
ATOM     30  H   UNL     1      -2.275  12.798  19.132  0.00  0.00    +0.000 HD
ENDBRANCH   7  21
TORSDOF 3
ENDMDL
MODEL 4
REMARK VINA RESULT:      -6.7      3.763      5.536
REMARK  Name = 
REMARK  4 active torsions:
REMARK  status: ('A' for Active; 'I' for Inactive)
REMARK    1  A    between atoms: C_1  and  C_2
REMARK    2  A    between atoms: C_7  and  C_8
REMARK    3  A    between atoms: C_12  and  C_13
REMARK    4  A    between atoms: C_19  and  C_20
REMARK                            x       y       z     vdW  Elec       q    Type
REMARK                         _______ _______ _______ _____ _____    ______ ____
ROOT
ATOM      1  C   UNL     1      -0.094  14.932  22.262  0.00  0.00    +0.000 C 
ATOM      2  O   UNL     1       0.585  15.390  23.180  0.00  0.00    +0.000 OA
ATOM      3  N   UNL     1      -0.072  15.506  20.992  0.00  0.00    +0.000 N 
ATOM      4  C   UNL     1       0.761  16.666  20.706  0.00  0.00    +0.000 C 
ATOM      5  C   UNL     1       0.025  17.368  19.580  0.00  0.00    +0.000 C 
ATOM      6  C   UNL     1      -0.528  16.214  18.751  0.00  0.00    +0.000 C 
ATOM      7  C   UNL     1      -0.799  15.111  19.780  0.00  0.00    +0.000 C 
ENDROOT
BRANCH   1  16
ATOM      8  C   UNL     1      -3.259  16.197  22.987  0.00  0.00    +0.000 C 
ATOM      9  C   UNL     1      -3.257  14.730  23.197  0.00  0.00    +0.000 A 
ATOM     10  N   UNL     1      -4.377  14.151  23.652  0.00  0.00    +0.000 NA
ATOM     11  O   UNL     1      -4.098  12.802  23.732  0.00  0.00    +0.000 OA
ATOM     12  C   UNL     1      -2.822  12.570  23.326  0.00  0.00    +0.000 A 
ATOM     13  N   UNL     1      -2.272  11.343  23.323  0.00  0.00    +0.000 NA
ATOM     14  C   UNL     1      -1.011  11.292  22.854  0.00  0.00    +0.000 A 
ATOM     15  C   UNL     1      -0.349  12.425  22.378  0.00  0.00    +0.000 A 
ATOM     16  C   UNL     1      -0.892  13.705  22.530  0.00  0.00    +0.000 A 
ATOM     17  C   UNL     1      -2.228  13.772  22.966  0.00  0.00    +0.000 A 
BRANCH  14  18
ATOM     18  C   UNL     1      -0.253   9.985  22.947  0.00  0.00    +0.000 C 
ATOM     19  C   UNL     1       0.749   9.606  21.882  0.00  0.00    +0.000 C 
ATOM     20  C   UNL     1      -0.541   8.848  22.001  0.00  0.00    +0.000 C 
ENDBRANCH  14  18
ENDBRANCH   1  16
BRANCH   7  21
ATOM     21  C   UNL     1      -0.353  13.766  19.313  0.00  0.00    +0.000 A 
ATOM     22  N   UNL     1      -1.125  12.722  19.084  0.00  0.00    +0.000 NA
ATOM     23  C   UNL     1      -0.273  11.709  18.716  0.00  0.00    +0.000 A 
ATOM     24  C   UNL     1      -0.556  10.386  18.356  0.00  0.00    +0.000 A 
ATOM     25  C   UNL     1       0.505   9.549  17.991  0.00  0.00    +0.000 A 
ATOM     26  C   UNL     1       1.823  10.017  17.996  0.00  0.00    +0.000 A 
ATOM     27  C   UNL     1       2.126  11.329  18.373  0.00  0.00    +0.000 A 
ATOM     28  C   UNL     1       1.048  12.142  18.721  0.00  0.00    +0.000 A 
ATOM     29  N   UNL     1       0.971  13.446  19.126  0.00  0.00    +0.000 N 
ATOM     30  H   UNL     1       1.751  14.065  19.296  0.00  0.00    +0.000 HD
ENDBRANCH   7  21
TORSDOF 3
ENDMDL
MODEL 5
REMARK VINA RESULT:      -6.7      1.753      5.066
REMARK  Name = 
REMARK  4 active torsions:
REMARK  status: ('A' for Active; 'I' for Inactive)
REMARK    1  A    between atoms: C_1  and  C_2
REMARK    2  A    between atoms: C_7  and  C_8
REMARK    3  A    between atoms: C_12  and  C_13
REMARK    4  A    between atoms: C_19  and  C_20
REMARK                            x       y       z     vdW  Elec       q    Type
REMARK                         _______ _______ _______ _____ _____    ______ ____
ROOT
ATOM      1  C   UNL     1      -4.983  12.208  17.887  0.00  0.00    +0.000 C 
ATOM      2  O   UNL     1      -5.755  12.700  17.065  0.00  0.00    +0.000 OA
ATOM      3  N   UNL     1      -3.912  11.412  17.486  0.00  0.00    +0.000 N 
ATOM      4  C   UNL     1      -3.666  11.138  16.078  0.00  0.00    +0.000 C 
ATOM      5  C   UNL     1      -2.966   9.791  16.089  0.00  0.00    +0.000 C 
ATOM      6  C   UNL     1      -2.093   9.862  17.337  0.00  0.00    +0.000 C 
ATOM      7  C   UNL     1      -2.892  10.744  18.303  0.00  0.00    +0.000 C 
ENDROOT
BRANCH   1  16
ATOM      8  C   UNL     1      -7.029   9.620  19.010  0.00  0.00    +0.000 C 
ATOM      9  C   UNL     1      -6.851  10.612  20.097  0.00  0.00    +0.000 A 
ATOM     10  N   UNL     1      -7.498  10.410  21.254  0.00  0.00    +0.000 NA
ATOM     11  O   UNL     1      -7.138  11.460  22.074  0.00  0.00    +0.000 OA
ATOM     12  C   UNL     1      -6.279  12.285  21.419  0.00  0.00    +0.000 A 
ATOM     13  N   UNL     1      -5.783  13.405  21.971  0.00  0.00    +0.000 NA
ATOM     14  C   UNL     1      -4.918  14.082  21.193  0.00  0.00    +0.000 A 
ATOM     15  C   UNL     1      -4.546  13.628  19.927  0.00  0.00    +0.000 A 
ATOM     16  C   UNL     1      -5.188  12.542  19.323  0.00  0.00    +0.000 A 
ATOM     17  C   UNL     1      -6.053  11.791  20.140  0.00  0.00    +0.000 A 
BRANCH  14  18
ATOM     18  C   UNL     1      -4.418  15.431  21.664  0.00  0.00    +0.000 C 
ATOM     19  C   UNL     1      -3.210  15.525  22.566  0.00  0.00    +0.000 C 
ATOM     20  C   UNL     1      -4.571  15.861  23.099  0.00  0.00    +0.000 C 
ENDBRANCH  14  18
ENDBRANCH   1  16
BRANCH   7  21
ATOM     21  C   UNL     1      -2.041  11.746  19.007  0.00  0.00    +0.000 A 
ATOM     22  N   UNL     1      -1.385  12.745  18.449  0.00  0.00    +0.000 NA
ATOM     23  C   UNL     1      -0.715  13.363  19.476  0.00  0.00    +0.000 A 
ATOM     24  C   UNL     1       0.128  14.482  19.451  0.00  0.00    +0.000 A 
ATOM     25  C   UNL     1       0.673  14.937  20.658  0.00  0.00    +0.000 A 
ATOM     26  C   UNL     1       0.395  14.284  21.863  0.00  0.00    +0.000 A 
ATOM     27  C   UNL     1      -0.426  13.153  21.903  0.00  0.00    +0.000 A 
ATOM     28  C   UNL     1      -0.964  12.729  20.687  0.00  0.00    +0.000 A 
ATOM     29  N   UNL     1      -1.791  11.691  20.358  0.00  0.00    +0.000 N 
ATOM     30  H   UNL     1      -2.136  10.980  20.987  0.00  0.00    +0.000 HD
ENDBRANCH   7  21
TORSDOF 3
ENDMDL
MODEL 6
REMARK VINA RESULT:      -6.5      1.868      5.038
REMARK  Name = 
REMARK  4 active torsions:
REMARK  status: ('A' for Active; 'I' for Inactive)
REMARK    1  A    between atoms: C_1  and  C_2
REMARK    2  A    between atoms: C_7  and  C_8
REMARK    3  A    between atoms: C_12  and  C_13
REMARK    4  A    between atoms: C_19  and  C_20
REMARK                            x       y       z     vdW  Elec       q    Type
REMARK                         _______ _______ _______ _____ _____    ______ ____
ROOT
ATOM      1  C   UNL     1      -4.491  14.757  20.537  0.00  0.00    +0.000 C 
ATOM      2  O   UNL     1      -4.182  15.938  20.699  0.00  0.00    +0.000 OA
ATOM      3  N   UNL     1      -5.660  14.402  19.869  0.00  0.00    +0.000 N 
ATOM      4  C   UNL     1      -6.557  15.416  19.333  0.00  0.00    +0.000 C 
ATOM      5  C   UNL     1      -7.917  14.742  19.352  0.00  0.00    +0.000 C 
ATOM      6  C   UNL     1      -7.594  13.296  18.992  0.00  0.00    +0.000 C 
ATOM      7  C   UNL     1      -6.196  13.067  19.577  0.00  0.00    +0.000 C 
ENDROOT
BRANCH   1  16
ATOM      8  C   UNL     1      -6.059  13.538  23.401  0.00  0.00    +0.000 C 
ATOM      9  C   UNL     1      -4.724  12.910  23.267  0.00  0.00    +0.000 A 
ATOM     10  N   UNL     1      -4.321  12.063  24.225  0.00  0.00    +0.000 NA
ATOM     11  O   UNL     1      -3.072  11.622  23.837  0.00  0.00    +0.000 OA
ATOM     12  C   UNL     1      -2.727  12.195  22.654  0.00  0.00    +0.000 A 
ATOM     13  N   UNL     1      -1.548  11.964  22.050  0.00  0.00    +0.000 NA
ATOM     14  C   UNL     1      -1.390  12.585  20.867  0.00  0.00    +0.000 A 
ATOM     15  C   UNL     1      -2.391  13.378  20.304  0.00  0.00    +0.000 A 
ATOM     16  C   UNL     1      -3.543  13.717  21.021  0.00  0.00    +0.000 A 
ATOM     17  C   UNL     1      -3.751  13.034  22.233  0.00  0.00    +0.000 A 
BRANCH  14  18
ATOM     18  C   UNL     1      -0.043  12.508  20.180  0.00  0.00    +0.000 C 
ATOM     19  C   UNL     1       0.384  11.240  19.477  0.00  0.00    +0.000 C 
ATOM     20  C   UNL     1       1.071  11.664  20.741  0.00  0.00    +0.000 C 
ENDBRANCH  14  18
ENDBRANCH   1  16
BRANCH   7  21
ATOM     21  C   UNL     1      -5.295  12.330  18.644  0.00  0.00    +0.000 A 
ATOM     22  N   UNL     1      -5.300  12.406  17.328  0.00  0.00    +0.000 NA
ATOM     23  C   UNL     1      -4.333  11.526  16.906  0.00  0.00    +0.000 A 
ATOM     24  C   UNL     1      -3.913  11.212  15.607  0.00  0.00    +0.000 A 
ATOM     25  C   UNL     1      -2.874  10.288  15.445  0.00  0.00    +0.000 A 
ATOM     26  C   UNL     1      -2.274   9.680  16.552  0.00  0.00    +0.000 A 
ATOM     27  C   UNL     1      -2.695   9.966  17.854  0.00  0.00    +0.000 A 
ATOM     28  C   UNL     1      -3.725  10.898  17.986  0.00  0.00    +0.000 A 
ATOM     29  N   UNL     1      -4.370  11.409  19.078  0.00  0.00    +0.000 N 
ATOM     30  H   UNL     1      -4.223  11.138  20.039  0.00  0.00    +0.000 HD
ENDBRANCH   7  21
TORSDOF 3
ENDMDL
MODEL 7
REMARK VINA RESULT:      -6.5      2.681      6.422
REMARK  Name = 
REMARK  4 active torsions:
REMARK  status: ('A' for Active; 'I' for Inactive)
REMARK    1  A    between atoms: C_1  and  C_2
REMARK    2  A    between atoms: C_7  and  C_8
REMARK    3  A    between atoms: C_12  and  C_13
REMARK    4  A    between atoms: C_19  and  C_20
REMARK                            x       y       z     vdW  Elec       q    Type
REMARK                         _______ _______ _______ _____ _____    ______ ____
ROOT
ATOM      1  C   UNL     1      -1.495  12.100  22.493  0.00  0.00    +0.000 C 
ATOM      2  O   UNL     1      -1.035  11.333  23.338  0.00  0.00    +0.000 OA
ATOM      3  N   UNL     1      -1.028  12.092  21.180  0.00  0.00    +0.000 N 
ATOM      4  C   UNL     1       0.018  11.171  20.760  0.00  0.00    +0.000 C 
ATOM      5  C   UNL     1       0.699  11.897  19.614  0.00  0.00    +0.000 C 
ATOM      6  C   UNL     1      -0.457  12.600  18.911  0.00  0.00    +0.000 C 
ATOM      7  C   UNL     1      -1.444  12.918  20.040  0.00  0.00    +0.000 C 
ENDROOT
BRANCH   1  16
ATOM      8  C   UNL     1       0.008  15.243  22.585  0.00  0.00    +0.000 C 
ATOM      9  C   UNL     1      -1.387  15.351  23.075  0.00  0.00    +0.000 A 
ATOM     10  N   UNL     1      -1.820  16.546  23.500  0.00  0.00    +0.000 NA
ATOM     11  O   UNL     1      -3.136  16.359  23.872  0.00  0.00    +0.000 OA
ATOM     12  C   UNL     1      -3.493  15.063  23.670  0.00  0.00    +0.000 A 
ATOM     13  N   UNL     1      -4.715  14.590  23.969  0.00  0.00    +0.000 NA
ATOM     14  C   UNL     1      -4.907  13.292  23.669  0.00  0.00    +0.000 A 
ATOM     15  C   UNL     1      -3.918  12.516  23.063  0.00  0.00    +0.000 A 
ATOM     16  C   UNL     1      -2.613  12.994  22.899  0.00  0.00    +0.000 A 
ATOM     17  C   UNL     1      -2.410  14.363  23.155  0.00  0.00    +0.000 A 
BRANCH  14  18
ATOM     18  C   UNL     1      -6.196  12.628  24.101  0.00  0.00    +0.000 C 
ATOM     19  C   UNL     1      -7.330  12.449  23.119  0.00  0.00    +0.000 C 
ATOM     20  C   UNL     1      -7.469  13.421  24.252  0.00  0.00    +0.000 C 
ENDBRANCH  14  18
ENDBRANCH   1  16
BRANCH   7  21
ATOM     21  C   UNL     1      -2.859  12.626  19.667  0.00  0.00    +0.000 A 
ATOM     22  N   UNL     1      -3.287  11.595  18.967  0.00  0.00    +0.000 NA
ATOM     23  C   UNL     1      -4.643  11.772  18.843  0.00  0.00    +0.000 A 
ATOM     24  C   UNL     1      -5.597  10.972  18.200  0.00  0.00    +0.000 A 
ATOM     25  C   UNL     1      -6.939  11.367  18.241  0.00  0.00    +0.000 A 
ATOM     26  C   UNL     1      -7.323  12.540  18.899  0.00  0.00    +0.000 A 
ATOM     27  C   UNL     1      -6.382  13.362  19.527  0.00  0.00    +0.000 A 
ATOM     28  C   UNL     1      -5.054  12.938  19.478  0.00  0.00    +0.000 A 
ATOM     29  N   UNL     1      -3.898  13.474  19.975  0.00  0.00    +0.000 N 
ATOM     30  H   UNL     1      -3.807  14.358  20.455  0.00  0.00    +0.000 HD
ENDBRANCH   7  21
TORSDOF 3
ENDMDL
MODEL 8
REMARK VINA RESULT:      -6.4      9.613     13.252
REMARK  Name = 
REMARK  4 active torsions:
REMARK  status: ('A' for Active; 'I' for Inactive)
REMARK    1  A    between atoms: C_1  and  C_2
REMARK    2  A    between atoms: C_7  and  C_8
REMARK    3  A    between atoms: C_12  and  C_13
REMARK    4  A    between atoms: C_19  and  C_20
REMARK                            x       y       z     vdW  Elec       q    Type
REMARK                         _______ _______ _______ _____ _____    ______ ____
ROOT
ATOM      1  C   UNL     1       8.797  17.394  19.882  0.00  0.00    +0.000 C 
ATOM      2  O   UNL     1       9.017  18.248  20.741  0.00  0.00    +0.000 OA
ATOM      3  N   UNL     1       9.720  17.132  18.872  0.00  0.00    +0.000 N 
ATOM      4  C   UNL     1      10.981  17.856  18.800  0.00  0.00    +0.000 C 
ATOM      5  C   UNL     1      11.326  17.834  17.322  0.00  0.00    +0.000 C 
ATOM      6  C   UNL     1      10.853  16.456  16.874  0.00  0.00    +0.000 C 
ATOM      7  C   UNL     1       9.644  16.165  17.771  0.00  0.00    +0.000 C 
ENDROOT
BRANCH   1  16
ATOM      8  C   UNL     1       9.283  15.550  22.799  0.00  0.00    +0.000 C 
ATOM      9  C   UNL     1       8.017  15.127  22.156  0.00  0.00    +0.000 A 
ATOM     10  N   UNL     1       7.318  14.133  22.722  0.00  0.00    +0.000 NA
ATOM     11  O   UNL     1       6.195  13.967  21.936  0.00  0.00    +0.000 OA
ATOM     12  C   UNL     1       6.216  14.856  20.908  0.00  0.00    +0.000 A 
ATOM     13  N   UNL     1       5.255  14.904  19.969  0.00  0.00    +0.000 NA
ATOM     14  C   UNL     1       5.417  15.871  19.047  0.00  0.00    +0.000 A 
ATOM     15  C   UNL     1       6.484  16.770  19.091  0.00  0.00    +0.000 A 
ATOM     16  C   UNL     1       7.542  16.603  19.991  0.00  0.00    +0.000 A 
ATOM     17  C   UNL     1       7.363  15.634  20.996  0.00  0.00    +0.000 A 
BRANCH  14  18
ATOM     18  C   UNL     1       4.471  15.915  17.866  0.00  0.00    +0.000 C 
ATOM     19  C   UNL     1       3.163  16.664  17.962  0.00  0.00    +0.000 C 
ATOM     20  C   UNL     1       3.164  15.166  17.886  0.00  0.00    +0.000 C 
ENDBRANCH  14  18
ENDBRANCH   1  16
BRANCH   7  21
ATOM     21  C   UNL     1       9.639  14.769  18.295  0.00  0.00    +0.000 A 
ATOM     22  N   UNL     1      10.187  14.353  19.420  0.00  0.00    +0.000 NA
ATOM     23  C   UNL     1       9.965  12.998  19.457  0.00  0.00    +0.000 A 
ATOM     24  C   UNL     1      10.328  12.057  20.430  0.00  0.00    +0.000 A 
ATOM     25  C   UNL     1       9.953  10.721  20.242  0.00  0.00    +0.000 A 
ATOM     26  C   UNL     1       9.242  10.328  19.103  0.00  0.00    +0.000 A 
ATOM     27  C   UNL     1       8.891  11.250  18.112  0.00  0.00    +0.000 A 
ATOM     28  C   UNL     1       9.268  12.575  18.332  0.00  0.00    +0.000 A 
ATOM     29  N   UNL     1       9.093  13.715  17.598  0.00  0.00    +0.000 N 
ATOM     30  H   UNL     1       8.668  13.778  16.684  0.00  0.00    +0.000 HD
ENDBRANCH   7  21
TORSDOF 3
ENDMDL
MODEL 9
REMARK VINA RESULT:      -6.2      2.360      5.489
REMARK  Name = 
REMARK  4 active torsions:
REMARK  status: ('A' for Active; 'I' for Inactive)
REMARK    1  A    between atoms: C_1  and  C_2
REMARK    2  A    between atoms: C_7  and  C_8
REMARK    3  A    between atoms: C_12  and  C_13
REMARK    4  A    between atoms: C_19  and  C_20
REMARK                            x       y       z     vdW  Elec       q    Type
REMARK                         _______ _______ _______ _____ _____    ______ ____
ROOT
ATOM      1  C   UNL     1      -2.507  14.336  20.730  0.00  0.00    +0.000 C 
ATOM      2  O   UNL     1      -2.205  15.526  20.807  0.00  0.00    +0.000 OA
ATOM      3  N   UNL     1      -3.838  13.933  20.647  0.00  0.00    +0.000 N 
ATOM      4  C   UNL     1      -4.919  14.908  20.643  0.00  0.00    +0.000 C 
ATOM      5  C   UNL     1      -6.092  14.149  21.237  0.00  0.00    +0.000 C 
ATOM      6  C   UNL     1      -5.914  12.741  20.679  0.00  0.00    +0.000 C 
ATOM      7  C   UNL     1      -4.396  12.579  20.548  0.00  0.00    +0.000 C 
ENDROOT
BRANCH   1  16
ATOM      8  C   UNL     1      -3.026  12.395  23.577  0.00  0.00    +0.000 C 
ATOM      9  C   UNL     1      -1.771  11.968  22.915  0.00  0.00    +0.000 A 
ATOM     10  N   UNL     1      -1.044  11.002  23.493  0.00  0.00    +0.000 NA
ATOM     11  O   UNL     1       0.039  10.798  22.662  0.00  0.00    +0.000 OA
ATOM     12  C   UNL     1      -0.037  11.632  21.591  0.00  0.00    +0.000 A 
ATOM     13  N   UNL     1       0.901  11.666  20.629  0.00  0.00    +0.000 NA
ATOM     14  C   UNL     1       0.646  12.525  19.624  0.00  0.00    +0.000 A 
ATOM     15  C   UNL     1      -0.521  13.289  19.578  0.00  0.00    +0.000 A 
ATOM     16  C   UNL     1      -1.404  13.340  20.662  0.00  0.00    +0.000 A 
ATOM     17  C   UNL     1      -1.183  12.410  21.694  0.00  0.00    +0.000 A 
BRANCH  14  18
ATOM     18  C   UNL     1       1.708  12.746  18.569  0.00  0.00    +0.000 C 
ATOM     19  C   UNL     1       2.987  13.473  18.913  0.00  0.00    +0.000 C 
ATOM     20  C   UNL     1       1.979  14.119  18.010  0.00  0.00    +0.000 C 
ENDBRANCH  14  18
ENDBRANCH   1  16
BRANCH   7  21
ATOM     21  C   UNL     1      -3.995  11.937  19.262  0.00  0.00    +0.000 A 
ATOM     22  N   UNL     1      -3.012  11.075  19.092  0.00  0.00    +0.000 NA
ATOM     23  C   UNL     1      -2.996  10.797  17.746  0.00  0.00    +0.000 A 
ATOM     24  C   UNL     1      -2.160   9.942  17.017  0.00  0.00    +0.000 A 
ATOM     25  C   UNL     1      -2.371   9.814  15.639  0.00  0.00    +0.000 A 
ATOM     26  C   UNL     1      -3.386  10.531  14.998  0.00  0.00    +0.000 A 
ATOM     27  C   UNL     1      -4.215  11.406  15.707  0.00  0.00    +0.000 A 
ATOM     28  C   UNL     1      -3.989  11.506  17.080  0.00  0.00    +0.000 A 
ATOM     29  N   UNL     1      -4.594  12.239  18.062  0.00  0.00    +0.000 N 
ATOM     30  H   UNL     1      -5.332  12.917  17.932  0.00  0.00    +0.000 HD
ENDBRANCH   7  21
TORSDOF 3
ENDMDL
