MODEL 1
REMARK VINA RESULT:     -10.0      0.000      0.000
REMARK  Name = 
REMARK  4 active torsions:
REMARK  status: ('A' for Active; 'I' for Inactive)
REMARK    1  A    between atoms: C_2  and  C_3
REMARK    2  A    between atoms: C_3  and  N_4
REMARK    3  A    between atoms: C_6  and  C_7
REMARK    4  A    between atoms: N_22  and  C_23
REMARK                            x       y       z     vdW  Elec       q    Type
REMARK                         _______ _______ _______ _____ _____    ______ ____
ROOT
ATOM      1  N   UNL     1       5.029   5.735  18.432  0.00  0.00    +0.000 N 
ATOM      2  N   UNL     1       4.131   6.760  18.573  0.00  0.00    +0.000 NA
ATOM      3  C   UNL     1       2.994   6.545  19.176  0.00  0.00    +0.000 A 
ATOM      4  C   UNL     1       2.616   5.204  19.703  0.00  0.00    +0.000 A 
ATOM      5  C   UNL     1       1.346   4.874  20.198  0.00  0.00    +0.000 A 
ATOM      6  C   UNL     1       1.104   3.616  20.763  0.00  0.00    +0.000 A 
ATOM      7  C   UNL     1       2.109   2.655  20.785  0.00  0.00    +0.000 A 
ATOM      8  C   UNL     1       3.347   2.944  20.216  0.00  0.00    +0.000 A 
ATOM      9  C   UNL     1       3.594   4.215  19.676  0.00  0.00    +0.000 A 
ATOM     10  C   UNL     1       4.877   4.477  18.999  0.00  0.00    +0.000 A 
ATOM     11  O   UNL     1       5.722   3.590  18.932  0.00  0.00    +0.000 OA
ENDROOT
BRANCH   3  12
ATOM     12  C   UNL     1       2.083   7.731  19.299  0.00  0.00    +0.000 A 
ATOM     13  C   UNL     1       1.819   8.502  18.158  0.00  0.00    +0.000 A 
ATOM     14  C   UNL     1       0.966   9.608  18.229  0.00  0.00    +0.000 A 
ATOM     15  C   UNL     1       0.368   9.940  19.443  0.00  0.00    +0.000 A 
ATOM     16 BR   UNL     1      -0.818  11.408  19.539  0.00  0.00    +0.000 Br
ATOM     17  C   UNL     1       0.647   9.203  20.591  0.00  0.00    +0.000 A 
ATOM     18  C   UNL     1       1.531   8.123  20.526  0.00  0.00    +0.000 A 
ENDBRANCH   3  12
BRANCH   1  19
ATOM     19  C   UNL     1       6.185   5.987  17.577  0.00  0.00    +0.000 C 
BRANCH  19  21
ATOM     20  O   UNL     1       5.303   6.720  15.479  0.00  0.00    +0.000 OA
ATOM     21  C   UNL     1       5.913   5.837  16.084  0.00  0.00    +0.000 C 
ATOM     22  N   UNL     1       6.522   4.745  15.493  0.00  0.00    +0.000 N 
ATOM     23  H   UNL     1       6.938   4.068  16.132  0.00  0.00    +0.000 HD
BRANCH  22  24
ATOM     24  C   UNL     1       6.504   4.410  14.120  0.00  0.00    +0.000 A 
ATOM     25  C   UNL     1       5.539   3.584  13.537  0.00  0.00    +0.000 A 
ATOM     26  C   UNL     1       5.625   3.258  12.185  0.00  0.00    +0.000 A 
ATOM     27  F   UNL     1       4.696   2.461  11.640  0.00  0.00    +0.000 F 
ATOM     28  C   UNL     1       6.656   3.741  11.388  0.00  0.00    +0.000 A 
ATOM     29  C   UNL     1       7.605   4.593  11.947  0.00  0.00    +0.000 A 
ATOM     30  C   UNL     1       7.516   4.928  13.300  0.00  0.00    +0.000 A 
ATOM     31  F   UNL     1       8.443   5.744  13.825  0.00  0.00    +0.000 F 
ENDBRANCH  22  24
ENDBRANCH  19  21
ENDBRANCH   1  19
TORSDOF 4
ENDMDL
MODEL 2
REMARK VINA RESULT:      -9.9      1.490      2.089
REMARK  Name = 
REMARK  4 active torsions:
REMARK  status: ('A' for Active; 'I' for Inactive)
REMARK    1  A    between atoms: C_2  and  C_3
REMARK    2  A    between atoms: C_3  and  N_4
REMARK    3  A    between atoms: C_6  and  C_7
REMARK    4  A    between atoms: N_22  and  C_23
REMARK                            x       y       z     vdW  Elec       q    Type
REMARK                         _______ _______ _______ _____ _____    ______ ____
ROOT
ATOM      1  N   UNL     1       5.268   5.032  19.289  0.00  0.00    +0.000 N 
ATOM      2  N   UNL     1       4.471   6.145  19.236  0.00  0.00    +0.000 NA
ATOM      3  C   UNL     1       3.174   6.011  19.205  0.00  0.00    +0.000 A 
ATOM      4  C   UNL     1       2.514   4.675  19.198  0.00  0.00    +0.000 A 
ATOM      5  C   UNL     1       1.144   4.467  18.988  0.00  0.00    +0.000 A 
ATOM      6  C   UNL     1       0.590   3.185  19.092  0.00  0.00    +0.000 A 
ATOM      7  C   UNL     1       1.409   2.091  19.347  0.00  0.00    +0.000 A 
ATOM      8  C   UNL     1       2.784   2.276  19.470  0.00  0.00    +0.000 A 
ATOM      9  C   UNL     1       3.331   3.565  19.392  0.00  0.00    +0.000 A 
ATOM     10  C   UNL     1       4.794   3.735  19.435  0.00  0.00    +0.000 A 
ATOM     11  O   UNL     1       5.517   2.752  19.559  0.00  0.00    +0.000 OA
ENDROOT
BRANCH   3  12
ATOM     12  C   UNL     1       2.384   7.286  19.167  0.00  0.00    +0.000 A 
ATOM     13  C   UNL     1       2.294   7.990  17.957  0.00  0.00    +0.000 A 
ATOM     14  C   UNL     1       1.557   9.175  17.878  0.00  0.00    +0.000 A 
ATOM     15  C   UNL     1       0.901   9.656  19.009  0.00  0.00    +0.000 A 
ATOM     16 BR   UNL     1      -0.130  11.236  18.901  0.00  0.00    +0.000 Br
ATOM     17  C   UNL     1       1.008   8.985  20.225  0.00  0.00    +0.000 A 
ATOM     18  C   UNL     1       1.779   7.822  20.311  0.00  0.00    +0.000 A 
ENDBRANCH   3  12
BRANCH   1  19
ATOM     19  C   UNL     1       6.703   5.242  19.118  0.00  0.00    +0.000 C 
BRANCH  19  21
ATOM     20  O   UNL     1       8.241   4.128  17.666  0.00  0.00    +0.000 OA
ATOM     21  C   UNL     1       7.243   4.845  17.749  0.00  0.00    +0.000 C 
ATOM     22  N   UNL     1       6.449   5.226  16.681  0.00  0.00    +0.000 N 
ATOM     23  H   UNL     1       5.690   5.871  16.900  0.00  0.00    +0.000 HD
BRANCH  22  24
ATOM     24  C   UNL     1       6.667   4.925  15.318  0.00  0.00    +0.000 A 
ATOM     25  C   UNL     1       7.617   5.573  14.524  0.00  0.00    +0.000 A 
ATOM     26  C   UNL     1       7.730   5.254  13.172  0.00  0.00    +0.000 A 
ATOM     27  F   UNL     1       8.641   5.888  12.421  0.00  0.00    +0.000 F 
ATOM     28  C   UNL     1       6.916   4.293  12.584  0.00  0.00    +0.000 A 
ATOM     29  C   UNL     1       5.989   3.614  13.372  0.00  0.00    +0.000 A 
ATOM     30  C   UNL     1       5.880   3.926  14.729  0.00  0.00    +0.000 A 
ATOM     31  F   UNL     1       4.976   3.267  15.471  0.00  0.00    +0.000 F 
ENDBRANCH  22  24
ENDBRANCH  19  21
ENDBRANCH   1  19
TORSDOF 4
ENDMDL
MODEL 3
REMARK VINA RESULT:      -9.3      1.246      1.283
REMARK  Name = 
REMARK  4 active torsions:
REMARK  status: ('A' for Active; 'I' for Inactive)
REMARK    1  A    between atoms: C_2  and  C_3
REMARK    2  A    between atoms: C_3  and  N_4
REMARK    3  A    between atoms: C_6  and  C_7
REMARK    4  A    between atoms: N_22  and  C_23
REMARK                            x       y       z     vdW  Elec       q    Type
REMARK                         _______ _______ _______ _____ _____    ______ ____
ROOT
ATOM      1  N   UNL     1       5.278   5.012  18.946  0.00  0.00    +0.000 N 
ATOM      2  N   UNL     1       4.487   6.132  18.951  0.00  0.00    +0.000 NA
ATOM      3  C   UNL     1       3.189   6.006  19.010  0.00  0.00    +0.000 A 
ATOM      4  C   UNL     1       2.522   4.675  19.046  0.00  0.00    +0.000 A 
ATOM      5  C   UNL     1       1.138   4.476  18.932  0.00  0.00    +0.000 A 
ATOM      6  C   UNL     1       0.585   3.198  19.072  0.00  0.00    +0.000 A 
ATOM      7  C   UNL     1       1.411   2.097  19.267  0.00  0.00    +0.000 A 
ATOM      8  C   UNL     1       2.793   2.273  19.294  0.00  0.00    +0.000 A 
ATOM      9  C   UNL     1       3.342   3.559  19.181  0.00  0.00    +0.000 A 
ATOM     10  C   UNL     1       4.806   3.719  19.122  0.00  0.00    +0.000 A 
ATOM     11  O   UNL     1       5.529   2.731  19.193  0.00  0.00    +0.000 OA
ENDROOT
BRANCH   3  12
ATOM     12  C   UNL     1       2.407   7.286  19.030  0.00  0.00    +0.000 A 
ATOM     13  C   UNL     1       2.285   8.023  17.842  0.00  0.00    +0.000 A 
ATOM     14  C   UNL     1       1.555   9.214  17.817  0.00  0.00    +0.000 A 
ATOM     15  C   UNL     1       0.936   9.669  18.980  0.00  0.00    +0.000 A 
ATOM     16 BR   UNL     1      -0.086  11.257  18.946  0.00  0.00    +0.000 Br
ATOM     17  C   UNL     1       1.076   8.965  20.174  0.00  0.00    +0.000 A 
ATOM     18  C   UNL     1       1.841   7.795  20.206  0.00  0.00    +0.000 A 
ENDBRANCH   3  12
BRANCH   1  19
ATOM     19  C   UNL     1       6.698   5.213  18.676  0.00  0.00    +0.000 C 
BRANCH  19  21
ATOM     20  O   UNL     1       8.161   4.118  17.136  0.00  0.00    +0.000 OA
ATOM     21  C   UNL     1       7.143   4.795  17.279  0.00  0.00    +0.000 C 
ATOM     22  N   UNL     1       6.250   5.108  16.270  0.00  0.00    +0.000 N 
ATOM     23  H   UNL     1       5.484   5.728  16.531  0.00  0.00    +0.000 HD
BRANCH  22  24
ATOM     24  C   UNL     1       6.371   4.772  14.902  0.00  0.00    +0.000 A 
ATOM     25  C   UNL     1       5.488   3.921  14.233  0.00  0.00    +0.000 A 
ATOM     26  C   UNL     1       5.712   3.596  12.896  0.00  0.00    +0.000 A 
ATOM     27  F   UNL     1       4.860   2.773  12.268  0.00  0.00    +0.000 F 
ATOM     28  C   UNL     1       6.800   4.107  12.199  0.00  0.00    +0.000 A 
ATOM     29  C   UNL     1       7.668   4.985  12.843  0.00  0.00    +0.000 A 
ATOM     30  C   UNL     1       7.442   5.318  14.181  0.00  0.00    +0.000 A 
ATOM     31  F   UNL     1       8.293   6.160  14.789  0.00  0.00    +0.000 F 
ENDBRANCH  22  24
ENDBRANCH  19  21
ENDBRANCH   1  19
TORSDOF 4
ENDMDL
MODEL 4
REMARK VINA RESULT:      -9.3      0.905      1.634
REMARK  Name = 
REMARK  4 active torsions:
REMARK  status: ('A' for Active; 'I' for Inactive)
REMARK    1  A    between atoms: C_2  and  C_3
REMARK    2  A    between atoms: C_3  and  N_4
REMARK    3  A    between atoms: C_6  and  C_7
REMARK    4  A    between atoms: N_22  and  C_23
REMARK                            x       y       z     vdW  Elec       q    Type
REMARK                         _______ _______ _______ _____ _____    ______ ____
ROOT
ATOM      1  N   UNL     1       5.056   5.525  18.944  0.00  0.00    +0.000 N 
ATOM      2  N   UNL     1       4.193   6.586  19.022  0.00  0.00    +0.000 NA
ATOM      3  C   UNL     1       2.961   6.391  19.404  0.00  0.00    +0.000 A 
ATOM      4  C   UNL     1       2.439   5.036  19.738  0.00  0.00    +0.000 A 
ATOM      5  C   UNL     1       1.090   4.742  19.980  0.00  0.00    +0.000 A 
ATOM      6  C   UNL     1       0.698   3.459  20.381  0.00  0.00    +0.000 A 
ATOM      7  C   UNL     1       1.640   2.442  20.486  0.00  0.00    +0.000 A 
ATOM      8  C   UNL     1       2.970   2.703  20.162  0.00  0.00    +0.000 A 
ATOM      9  C   UNL     1       3.363   3.996  19.787  0.00  0.00    +0.000 A 
ATOM     10  C   UNL     1       4.753   4.236  19.362  0.00  0.00    +0.000 A 
ATOM     11  O   UNL     1       5.557   3.309  19.359  0.00  0.00    +0.000 OA
ENDROOT
BRANCH   3  12
ATOM     12  C   UNL     1       2.096   7.614  19.478  0.00  0.00    +0.000 A 
ATOM     13  C   UNL     1       1.909   8.381  18.318  0.00  0.00    +0.000 A 
ATOM     14  C   UNL     1       1.101   9.521  18.344  0.00  0.00    +0.000 A 
ATOM     15  C   UNL     1       0.469   9.893  19.529  0.00  0.00    +0.000 A 
ATOM     16 BR   UNL     1      -0.657  11.410  19.562  0.00  0.00    +0.000 Br
ATOM     17  C   UNL     1       0.672   9.159  20.695  0.00  0.00    +0.000 A 
ATOM     18  C   UNL     1       1.513   8.043  20.677  0.00  0.00    +0.000 A 
ENDBRANCH   3  12
BRANCH   1  19
ATOM     19  C   UNL     1       6.352   5.776  18.321  0.00  0.00    +0.000 C 
BRANCH  19  21
ATOM     20  O   UNL     1       5.973   6.988  16.296  0.00  0.00    +0.000 OA
ATOM     21  C   UNL     1       6.310   5.918  16.804  0.00  0.00    +0.000 C 
ATOM     22  N   UNL     1       6.807   4.831  16.107  0.00  0.00    +0.000 N 
ATOM     23  H   UNL     1       6.986   3.993  16.660  0.00  0.00    +0.000 HD
BRANCH  22  24
ATOM     24  C   UNL     1       6.958   4.724  14.706  0.00  0.00    +0.000 A 
ATOM     25  C   UNL     1       7.746   5.590  13.943  0.00  0.00    +0.000 A 
ATOM     26  C   UNL     1       7.795   5.449  12.558  0.00  0.00    +0.000 A 
ATOM     27  F   UNL     1       8.551   6.290  11.839  0.00  0.00    +0.000 F 
ATOM     28  C   UNL     1       7.077   4.455  11.905  0.00  0.00    +0.000 A 
ATOM     29  C   UNL     1       6.315   3.562  12.655  0.00  0.00    +0.000 A 
ATOM     30  C   UNL     1       6.270   3.697  14.045  0.00  0.00    +0.000 A 
ATOM     31  F   UNL     1       5.525   2.833  14.752  0.00  0.00    +0.000 F 
ENDBRANCH  22  24
ENDBRANCH  19  21
ENDBRANCH   1  19
TORSDOF 4
ENDMDL
MODEL 5
REMARK VINA RESULT:      -8.9      3.940      5.671
REMARK  Name = 
REMARK  4 active torsions:
REMARK  status: ('A' for Active; 'I' for Inactive)
REMARK    1  A    between atoms: C_2  and  C_3
REMARK    2  A    between atoms: C_3  and  N_4
REMARK    3  A    between atoms: C_6  and  C_7
REMARK    4  A    between atoms: N_22  and  C_23
REMARK                            x       y       z     vdW  Elec       q    Type
REMARK                         _______ _______ _______ _____ _____    ______ ____
ROOT
ATOM      1  N   UNL     1       5.820   6.381  17.275  0.00  0.00    +0.000 N 
ATOM      2  N   UNL     1       4.839   7.228  17.721  0.00  0.00    +0.000 NA
ATOM      3  C   UNL     1       3.659   6.752  18.013  0.00  0.00    +0.000 A 
ATOM      4  C   UNL     1       3.322   5.310  17.853  0.00  0.00    +0.000 A 
ATOM      5  C   UNL     1       2.032   4.776  17.981  0.00  0.00    +0.000 A 
ATOM      6  C   UNL     1       1.819   3.395  17.909  0.00  0.00    +0.000 A 
ATOM      7  C   UNL     1       2.882   2.537  17.649  0.00  0.00    +0.000 A 
ATOM      8  C   UNL     1       4.153   3.065  17.434  0.00  0.00    +0.000 A 
ATOM      9  C   UNL     1       4.367   4.448  17.534  0.00  0.00    +0.000 A 
ATOM     10  C   UNL     1       5.696   5.000  17.217  0.00  0.00    +0.000 A 
ATOM     11  O   UNL     1       6.606   4.245  16.888  0.00  0.00    +0.000 OA
ENDROOT
BRANCH   3  12
ATOM     12  C   UNL     1       2.656   7.750  18.512  0.00  0.00    +0.000 A 
ATOM     13  C   UNL     1       2.233   8.773  17.650  0.00  0.00    +0.000 A 
ATOM     14  C   UNL     1       1.291   9.715  18.074  0.00  0.00    +0.000 A 
ATOM     15  C   UNL     1       0.762   9.631  19.360  0.00  0.00    +0.000 A 
ATOM     16 BR   UNL     1      -0.542  10.875  19.926  0.00  0.00    +0.000 Br
ATOM     17  C   UNL     1       1.196   8.640  20.237  0.00  0.00    +0.000 A 
ATOM     18  C   UNL     1       2.169   7.724  19.826  0.00  0.00    +0.000 A 
ENDBRANCH   3  12
BRANCH   1  19
ATOM     19  C   UNL     1       7.044   7.000  16.777  0.00  0.00    +0.000 C 
BRANCH  19  21
ATOM     20  O   UNL     1       8.324   7.439  18.746  0.00  0.00    +0.000 OA
ATOM     21  C   UNL     1       7.742   7.919  17.774  0.00  0.00    +0.000 C 
ATOM     22  N   UNL     1       7.777   9.252  17.405  0.00  0.00    +0.000 N 
ATOM     23  H   UNL     1       7.194   9.508  16.608  0.00  0.00    +0.000 HD
BRANCH  22  24
ATOM     24  C   UNL     1       8.421  10.302  18.098  0.00  0.00    +0.000 A 
ATOM     25  C   UNL     1       9.295  10.101  19.170  0.00  0.00    +0.000 A 
ATOM     26  C   UNL     1       9.845  11.195  19.835  0.00  0.00    +0.000 A 
ATOM     27  F   UNL     1      10.676  10.988  20.865  0.00  0.00    +0.000 F 
ATOM     28  C   UNL     1       9.548  12.498  19.454  0.00  0.00    +0.000 A 
ATOM     29  C   UNL     1       8.707  12.713  18.365  0.00  0.00    +0.000 A 
ATOM     30  C   UNL     1       8.161  11.618  17.691  0.00  0.00    +0.000 A 
ATOM     31  F   UNL     1       7.346  11.843  16.649  0.00  0.00    +0.000 F 
ENDBRANCH  22  24
ENDBRANCH  19  21
ENDBRANCH   1  19
TORSDOF 4
ENDMDL
MODEL 6
REMARK VINA RESULT:      -8.6      4.121      5.974
REMARK  Name = 
REMARK  4 active torsions:
REMARK  status: ('A' for Active; 'I' for Inactive)
REMARK    1  A    between atoms: C_2  and  C_3
REMARK    2  A    between atoms: C_3  and  N_4
REMARK    3  A    between atoms: C_6  and  C_7
REMARK    4  A    between atoms: N_22  and  C_23
REMARK                            x       y       z     vdW  Elec       q    Type
REMARK                         _______ _______ _______ _____ _____    ______ ____
ROOT
ATOM      1  N   UNL     1       5.964   6.708  17.346  0.00  0.00    +0.000 N 
ATOM      2  N   UNL     1       4.919   7.485  17.773  0.00  0.00    +0.000 NA
ATOM      3  C   UNL     1       3.756   6.939  17.994  0.00  0.00    +0.000 A 
ATOM      4  C   UNL     1       3.505   5.487  17.773  0.00  0.00    +0.000 A 
ATOM      5  C   UNL     1       2.242   4.881  17.824  0.00  0.00    +0.000 A 
ATOM      6  C   UNL     1       2.108   3.493  17.698  0.00  0.00    +0.000 A 
ATOM      7  C   UNL     1       3.227   2.703  17.461  0.00  0.00    +0.000 A 
ATOM      8  C   UNL     1       4.475   3.305  17.322  0.00  0.00    +0.000 A 
ATOM      9  C   UNL     1       4.609   4.693  17.476  0.00  0.00    +0.000 A 
ATOM     10  C   UNL     1       5.919   5.325  17.239  0.00  0.00    +0.000 A 
ATOM     11  O   UNL     1       6.882   4.631  16.930  0.00  0.00    +0.000 OA
ENDROOT
BRANCH   3  12
ATOM     12  C   UNL     1       2.678   7.864  18.477  0.00  0.00    +0.000 A 
ATOM     13  C   UNL     1       2.194   7.714  19.785  0.00  0.00    +0.000 A 
ATOM     14  C   UNL     1       1.199   8.565  20.276  0.00  0.00    +0.000 A 
ATOM     15  C   UNL     1       0.691   9.575  19.462  0.00  0.00    +0.000 A 
ATOM     16 BR   UNL     1      -0.625  10.754  20.131  0.00  0.00    +0.000 Br
ATOM     17  C   UNL     1       1.139   9.714  18.150  0.00  0.00    +0.000 A 
ATOM     18  C   UNL     1       2.105   8.837  17.648  0.00  0.00    +0.000 A 
ENDBRANCH   3  12
BRANCH   1  19
ATOM     19  C   UNL     1       7.174   7.408  16.926  0.00  0.00    +0.000 C 
BRANCH  19  21
ATOM     20  O   UNL     1       8.472   7.294  18.929  0.00  0.00    +0.000 OA
ATOM     21  C   UNL     1       7.981   8.020  18.065  0.00  0.00    +0.000 C 
ATOM     22  N   UNL     1       8.216   9.378  17.942  0.00  0.00    +0.000 N 
ATOM     23  H   UNL     1       7.690   9.856  17.211  0.00  0.00    +0.000 HD
BRANCH  22  24
ATOM     24  C   UNL     1       8.995  10.181  18.806  0.00  0.00    +0.000 A 
ATOM     25  C   UNL     1       8.702  10.372  20.159  0.00  0.00    +0.000 A 
ATOM     26  C   UNL     1       9.490  11.225  20.929  0.00  0.00    +0.000 A 
ATOM     27  F   UNL     1       9.195  11.403  22.224  0.00  0.00    +0.000 F 
ATOM     28  C   UNL     1      10.577  11.898  20.382  0.00  0.00    +0.000 A 
ATOM     29  C   UNL     1      10.901  11.690  19.044  0.00  0.00    +0.000 A 
ATOM     30  C   UNL     1      10.118  10.828  18.273  0.00  0.00    +0.000 A 
ATOM     31  F   UNL     1      10.440  10.645  16.982  0.00  0.00    +0.000 F 
ENDBRANCH  22  24
ENDBRANCH  19  21
ENDBRANCH   1  19
TORSDOF 4
ENDMDL
MODEL 7
REMARK VINA RESULT:      -8.4      1.244      1.244
REMARK  Name = 
REMARK  4 active torsions:
REMARK  status: ('A' for Active; 'I' for Inactive)
REMARK    1  A    between atoms: C_2  and  C_3
REMARK    2  A    between atoms: C_3  and  N_4
REMARK    3  A    between atoms: C_6  and  C_7
REMARK    4  A    between atoms: N_22  and  C_23
REMARK                            x       y       z     vdW  Elec       q    Type
REMARK                         _______ _______ _______ _____ _____    ______ ____
ROOT
ATOM      1  N   UNL     1       5.253   5.706  17.683  0.00  0.00    +0.000 N 
ATOM      2  N   UNL     1       4.392   6.706  18.055  0.00  0.00    +0.000 NA
ATOM      3  C   UNL     1       3.167   6.412  18.392  0.00  0.00    +0.000 A 
ATOM      4  C   UNL     1       2.649   5.016  18.365  0.00  0.00    +0.000 A 
ATOM      5  C   UNL     1       1.304   4.663  18.545  0.00  0.00    +0.000 A 
ATOM      6  C   UNL     1       0.918   3.318  18.599  0.00  0.00    +0.000 A 
ATOM      7  C   UNL     1       1.861   2.313  18.415  0.00  0.00    +0.000 A 
ATOM      8  C   UNL     1       3.185   2.655  18.148  0.00  0.00    +0.000 A 
ATOM      9  C   UNL     1       3.573   4.003  18.121  0.00  0.00    +0.000 A 
ATOM     10  C   UNL     1       4.956   4.352  17.751  0.00  0.00    +0.000 A 
ATOM     11  O   UNL     1       5.758   3.462  17.489  0.00  0.00    +0.000 OA
ENDROOT
BRANCH   3  12
ATOM     12  C   UNL     1       2.304   7.570  18.803  0.00  0.00    +0.000 A 
ATOM     13  C   UNL     1       1.905   8.495  17.826  0.00  0.00    +0.000 A 
ATOM     14  C   UNL     1       1.092   9.579  18.166  0.00  0.00    +0.000 A 
ATOM     15  C   UNL     1       0.668   9.737  19.484  0.00  0.00    +0.000 A 
ATOM     16 BR   UNL     1      -0.464  11.178  19.944  0.00  0.00    +0.000 Br
ATOM     17  C   UNL     1       1.083   8.845  20.470  0.00  0.00    +0.000 A 
ATOM     18  C   UNL     1       1.930   7.784  20.135  0.00  0.00    +0.000 A 
ENDBRANCH   3  12
BRANCH   1  19
ATOM     19  C   UNL     1       6.537   6.119  17.127  0.00  0.00    +0.000 C 
BRANCH  19  21
ATOM     20  O   UNL     1       7.969   4.504  16.100  0.00  0.00    +0.000 OA
ATOM     21  C   UNL     1       7.020   5.274  15.953  0.00  0.00    +0.000 C 
ATOM     22  N   UNL     1       6.228   5.350  14.821  0.00  0.00    +0.000 N 
ATOM     23  H   UNL     1       5.516   6.080  14.825  0.00  0.00    +0.000 HD
BRANCH  22  24
ATOM     24  C   UNL     1       6.396   4.619  13.623  0.00  0.00    +0.000 A 
ATOM     25  C   UNL     1       5.504   3.639  13.182  0.00  0.00    +0.000 A 
ATOM     26  C   UNL     1       5.773   2.925  12.016  0.00  0.00    +0.000 A 
ATOM     27  F   UNL     1       4.911   1.984  11.608  0.00  0.00    +0.000 F 
ATOM     28  C   UNL     1       6.918   3.166  11.267  0.00  0.00    +0.000 A 
ATOM     29  C   UNL     1       7.799   4.165  11.676  0.00  0.00    +0.000 A 
ATOM     30  C   UNL     1       7.527   4.888  12.839  0.00  0.00    +0.000 A 
ATOM     31  F   UNL     1       8.390   5.841  13.223  0.00  0.00    +0.000 F 
ENDBRANCH  22  24
ENDBRANCH  19  21
ENDBRANCH   1  19
TORSDOF 4
ENDMDL
MODEL 8
REMARK VINA RESULT:      -8.2      3.932      7.692
REMARK  Name = 
REMARK  4 active torsions:
REMARK  status: ('A' for Active; 'I' for Inactive)
REMARK    1  A    between atoms: C_2  and  C_3
REMARK    2  A    between atoms: C_3  and  N_4
REMARK    3  A    between atoms: C_6  and  C_7
REMARK    4  A    between atoms: N_22  and  C_23
REMARK                            x       y       z     vdW  Elec       q    Type
REMARK                         _______ _______ _______ _____ _____    ______ ____
ROOT
ATOM      1  N   UNL     1       4.283   4.772  18.359  0.00  0.00    +0.000 N 
ATOM      2  N   UNL     1       5.185   5.786  18.548  0.00  0.00    +0.000 NA
ATOM      3  C   UNL     1       6.052   6.063  17.613  0.00  0.00    +0.000 A 
ATOM      4  C   UNL     1       6.119   5.293  16.340  0.00  0.00    +0.000 A 
ATOM      5  C   UNL     1       7.135   5.428  15.382  0.00  0.00    +0.000 A 
ATOM      6  C   UNL     1       7.070   4.733  14.169  0.00  0.00    +0.000 A 
ATOM      7  C   UNL     1       6.023   3.852  13.923  0.00  0.00    +0.000 A 
ATOM      8  C   UNL     1       5.056   3.645  14.905  0.00  0.00    +0.000 A 
ATOM      9  C   UNL     1       5.110   4.363  16.109  0.00  0.00    +0.000 A 
ATOM     10  C   UNL     1       4.132   4.069  17.171  0.00  0.00    +0.000 A 
ATOM     11  O   UNL     1       3.271   3.216  16.987  0.00  0.00    +0.000 OA
ENDROOT
BRANCH   3  12
ATOM     12  C   UNL     1       6.986   7.201  17.902  0.00  0.00    +0.000 A 
ATOM     13  C   UNL     1       6.778   8.427  17.254  0.00  0.00    +0.000 A 
ATOM     14  C   UNL     1       7.620   9.515  17.505  0.00  0.00    +0.000 A 
ATOM     15  C   UNL     1       8.668   9.381  18.413  0.00  0.00    +0.000 A 
ATOM     16 BR   UNL     1       9.785  10.858  18.789  0.00  0.00    +0.000 Br
ATOM     17  C   UNL     1       8.905   8.160  19.040  0.00  0.00    +0.000 A 
ATOM     18  C   UNL     1       8.088   7.062  18.756  0.00  0.00    +0.000 A 
ENDBRANCH   3  12
BRANCH   1  19
ATOM     19  C   UNL     1       3.480   4.383  19.514  0.00  0.00    +0.000 C 
BRANCH  19  21
ATOM     20  O   UNL     1       1.235   4.856  20.184  0.00  0.00    +0.000 OA
ATOM     21  C   UNL     1       2.317   5.319  19.823  0.00  0.00    +0.000 C 
ATOM     22  N   UNL     1       2.637   6.665  19.801  0.00  0.00    +0.000 N 
ATOM     23  H   UNL     1       3.553   6.898  19.419  0.00  0.00    +0.000 HD
BRANCH  22  24
ATOM     24  C   UNL     1       1.778   7.741  20.122  0.00  0.00    +0.000 A 
ATOM     25  C   UNL     1       1.115   7.864  21.345  0.00  0.00    +0.000 A 
ATOM     26  C   UNL     1       0.241   8.928  21.561  0.00  0.00    +0.000 A 
ATOM     27  F   UNL     1      -0.393   9.031  22.737  0.00  0.00    +0.000 F 
ATOM     28  C   UNL     1       0.011   9.886  20.580  0.00  0.00    +0.000 A 
ATOM     29  C   UNL     1       0.693   9.796  19.369  0.00  0.00    +0.000 A 
ATOM     30  C   UNL     1       1.575   8.735  19.155  0.00  0.00    +0.000 A 
ATOM     31  F   UNL     1       2.218   8.658  17.978  0.00  0.00    +0.000 F 
ENDBRANCH  22  24
ENDBRANCH  19  21
ENDBRANCH   1  19
TORSDOF 4
ENDMDL
MODEL 9
REMARK VINA RESULT:      -8.1      4.671      7.924
REMARK  Name = 
REMARK  4 active torsions:
REMARK  status: ('A' for Active; 'I' for Inactive)
REMARK    1  A    between atoms: C_2  and  C_3
REMARK    2  A    between atoms: C_3  and  N_4
REMARK    3  A    between atoms: C_6  and  C_7
REMARK    4  A    between atoms: N_22  and  C_23
REMARK                            x       y       z     vdW  Elec       q    Type
REMARK                         _______ _______ _______ _____ _____    ______ ____
ROOT
ATOM      1  N   UNL     1       2.241   7.512  19.446  0.00  0.00    +0.000 N 
ATOM      2  N   UNL     1       3.043   7.124  18.405  0.00  0.00    +0.000 NA
ATOM      3  C   UNL     1       3.440   5.884  18.323  0.00  0.00    +0.000 A 
ATOM      4  C   UNL     1       3.074   4.863  19.345  0.00  0.00    +0.000 A 
ATOM      5  C   UNL     1       3.612   3.570  19.404  0.00  0.00    +0.000 A 
ATOM      6  C   UNL     1       3.142   2.642  20.341  0.00  0.00    +0.000 A 
ATOM      7  C   UNL     1       2.173   3.014  21.267  0.00  0.00    +0.000 A 
ATOM      8  C   UNL     1       1.696   4.323  21.272  0.00  0.00    +0.000 A 
ATOM      9  C   UNL     1       2.150   5.242  20.314  0.00  0.00    +0.000 A 
ATOM     10  C   UNL     1       1.703   6.644  20.387  0.00  0.00    +0.000 A 
ATOM     11  O   UNL     1       0.926   6.990  21.270  0.00  0.00    +0.000 OA
ENDROOT
BRANCH   3  12
ATOM     12  C   UNL     1       4.298   5.548  17.138  0.00  0.00    +0.000 A 
ATOM     13  C   UNL     1       4.817   6.593  16.361  0.00  0.00    +0.000 A 
ATOM     14  C   UNL     1       5.630   6.322  15.257  0.00  0.00    +0.000 A 
ATOM     15  C   UNL     1       5.934   5.001  14.933  0.00  0.00    +0.000 A 
ATOM     16 BR   UNL     1       7.065   4.627  13.466  0.00  0.00    +0.000 Br
ATOM     17  C   UNL     1       5.399   3.952  15.676  0.00  0.00    +0.000 A 
ATOM     18  C   UNL     1       4.553   4.224  16.755  0.00  0.00    +0.000 A 
ENDBRANCH   3  12
BRANCH   1  19
ATOM     19  C   UNL     1       2.001   8.945  19.591  0.00  0.00    +0.000 C 
BRANCH  19  21
ATOM     20  O   UNL     1       1.440   9.706  17.396  0.00  0.00    +0.000 OA
ATOM     21  C   UNL     1       1.055   9.537  18.553  0.00  0.00    +0.000 C 
ATOM     22  N   UNL     1      -0.248   9.707  18.988  0.00  0.00    +0.000 N 
ATOM     23  H   UNL     1      -0.401   9.587  19.989  0.00  0.00    +0.000 HD
BRANCH  22  24
ATOM     24  C   UNL     1      -1.342  10.161  18.217  0.00  0.00    +0.000 A 
ATOM     25  C   UNL     1      -1.723   9.589  17.001  0.00  0.00    +0.000 A 
ATOM     26  C   UNL     1      -2.781  10.133  16.275  0.00  0.00    +0.000 A 
ATOM     27  F   UNL     1      -3.131   9.578  15.107  0.00  0.00    +0.000 F 
ATOM     28  C   UNL     1      -3.481  11.242  16.736  0.00  0.00    +0.000 A 
ATOM     29  C   UNL     1      -3.135  11.800  17.965  0.00  0.00    +0.000 A 
ATOM     30  C   UNL     1      -2.080  11.252  18.697  0.00  0.00    +0.000 A 
ATOM     31  F   UNL     1      -1.756  11.808  19.875  0.00  0.00    +0.000 F 
ENDBRANCH  22  24
ENDBRANCH  19  21
ENDBRANCH   1  19
TORSDOF 4
ENDMDL
