MODEL 1
REMARK VINA RESULT:      -8.6      0.000      0.000
REMARK  Name = 
REMARK  4 active torsions:
REMARK  status: ('A' for Active; 'I' for Inactive)
REMARK    1  A    between atoms: C_1  and  C_2
REMARK    2  A    between atoms: N_10  and  S_11
REMARK    3  A    between atoms: S_11  and  C_14
REMARK    4  A    between atoms: C_14  and  C_15
REMARK                            x       y       z     vdW  Elec       q    Type
REMARK                         _______ _______ _______ _____ _____    ______ ____
ROOT
ATOM      1  C   UNL     1       6.644   4.768  15.485  0.00  0.00    +0.000 C 
ATOM      2  C   UNL     1       5.594   5.232  16.425  0.00  0.00    +0.000 A 
ATOM      3  C   UNL     1       5.216   6.566  16.686  0.00  0.00    +0.000 A 
ATOM      4  C   UNL     1       4.197   6.487  17.608  0.00  0.00    +0.000 A 
ATOM      5  N   UNL     1       3.432   7.449  18.187  0.00  0.00    +0.000 NA
ATOM      6  C   UNL     1       2.519   7.072  19.050  0.00  0.00    +0.000 A 
ATOM      7  N   UNL     1       1.666   8.006  19.593  0.00  0.00    +0.000 N 
ATOM      8  C   UNL     1       1.518   8.216  21.048  0.00  0.00    +0.000 C 
ATOM      9  C   UNL     1       0.050   8.591  21.363  0.00  0.00    +0.000 C 
ATOM     10  N   UNL     1      -0.422   9.783  20.548  0.00  0.00    +0.000 NA
ATOM     11  C   UNL     1      -0.203   9.486  19.088  0.00  0.00    +0.000 C 
ATOM     12  C   UNL     1       1.262   9.151  18.772  0.00  0.00    +0.000 C 
ATOM     13  C   UNL     1       2.289   5.626  19.387  0.00  0.00    +0.000 A 
ATOM     14  C   UNL     1       1.254   5.219  20.237  0.00  0.00    +0.000 A 
ATOM     15  C   UNL     1       1.043   3.877  20.508  0.00  0.00    +0.000 A 
ATOM     16  C   UNL     1       1.838   2.921  19.885  0.00  0.00    +0.000 A 
ATOM     17  C   UNL     1       2.852   3.304  18.998  0.00  0.00    +0.000 A 
ATOM     18  C   UNL     1       3.071   4.662  18.760  0.00  0.00    +0.000 A 
ATOM     19  N   UNL     1       4.037   5.139  17.862  0.00  0.00    +0.000 N 
ATOM     20  N   UNL     1       4.873   4.353  17.141  0.00  0.00    +0.000 NA
ENDROOT
BRANCH  10  21
ATOM     21  S   UNL     1       0.194  11.304  21.087  0.00  0.00    +0.000 S 
ATOM     22  O   UNL     1       0.400  11.176  22.504  0.00  0.00    +0.000 OA
ATOM     23  O   UNL     1       1.303  11.635  20.204  0.00  0.00    +0.000 OA
BRANCH  21  24
ATOM     24  C   UNL     1      -1.182  12.447  20.750  0.00  0.00    +0.000 C 
BRANCH  24  25
ATOM     25  C   UNL     1      -1.767  12.931  22.058  0.00  0.00    +0.000 A 
ATOM     26  C   UNL     1      -2.879  12.276  22.612  0.00  0.00    +0.000 A 
ATOM     27  C   UNL     1      -3.474  12.754  23.781  0.00  0.00    +0.000 A 
ATOM     28  C   UNL     1      -2.968  13.884  24.418  0.00  0.00    +0.000 A 
ATOM     29  C   UNL     1      -1.839  14.516  23.905  0.00  0.00    +0.000 A 
ATOM     30  C   UNL     1      -1.235  14.037  22.739  0.00  0.00    +0.000 A 
ENDBRANCH  24  25
ENDBRANCH  21  24
ENDBRANCH  10  21
TORSDOF 3
ENDMDL
MODEL 2
REMARK VINA RESULT:      -8.5      2.370      3.126
REMARK  Name = 
REMARK  4 active torsions:
REMARK  status: ('A' for Active; 'I' for Inactive)
REMARK    1  A    between atoms: C_1  and  C_2
REMARK    2  A    between atoms: N_10  and  S_11
REMARK    3  A    between atoms: S_11  and  C_14
REMARK    4  A    between atoms: C_14  and  C_15
REMARK                            x       y       z     vdW  Elec       q    Type
REMARK                         _______ _______ _______ _____ _____    ______ ____
ROOT
ATOM      1  C   UNL     1       6.487   4.832  15.217  0.00  0.00    +0.000 C 
ATOM      2  C   UNL     1       5.487   5.361  16.177  0.00  0.00    +0.000 A 
ATOM      3  C   UNL     1       5.081   6.704  16.328  0.00  0.00    +0.000 A 
ATOM      4  C   UNL     1       4.128   6.691  17.322  0.00  0.00    +0.000 A 
ATOM      5  N   UNL     1       3.370   7.686  17.853  0.00  0.00    +0.000 NA
ATOM      6  C   UNL     1       2.530   7.375  18.811  0.00  0.00    +0.000 A 
ATOM      7  N   UNL     1       1.683   8.336  19.315  0.00  0.00    +0.000 N 
ATOM      8  C   UNL     1       1.625   8.690  20.748  0.00  0.00    +0.000 C 
ATOM      9  C   UNL     1       0.168   9.054  21.124  0.00  0.00    +0.000 C 
ATOM     10  N   UNL     1      -0.398  10.143  20.229  0.00  0.00    +0.000 NA
ATOM     11  C   UNL     1      -0.265   9.704  18.794  0.00  0.00    +0.000 C 
ATOM     12  C   UNL     1       1.186   9.379  18.413  0.00  0.00    +0.000 C 
ATOM     13  C   UNL     1       2.373   5.965  19.306  0.00  0.00    +0.000 A 
ATOM     14  C   UNL     1       1.410   5.619  20.262  0.00  0.00    +0.000 A 
ATOM     15  C   UNL     1       1.264   4.306  20.681  0.00  0.00    +0.000 A 
ATOM     16  C   UNL     1       2.049   3.314  20.103  0.00  0.00    +0.000 A 
ATOM     17  C   UNL     1       2.988   3.632  19.114  0.00  0.00    +0.000 A 
ATOM     18  C   UNL     1       3.144   4.963  18.726  0.00  0.00    +0.000 A 
ATOM     19  N   UNL     1       4.032   5.372  17.720  0.00  0.00    +0.000 N 
ATOM     20  N   UNL     1       4.845   4.540  17.026  0.00  0.00    +0.000 NA
ENDROOT
BRANCH  10  21
ATOM     21  S   UNL     1       0.200  11.728  20.569  0.00  0.00    +0.000 S 
ATOM     22  O   UNL     1      -0.781  12.357  21.409  0.00  0.00    +0.000 OA
ATOM     23  O   UNL     1       1.571  11.560  21.028  0.00  0.00    +0.000 OA
BRANCH  21  24
ATOM     24  C   UNL     1       0.226  12.516  18.928  0.00  0.00    +0.000 C 
BRANCH  24  25
ATOM     25  C   UNL     1       1.297  13.583  18.898  0.00  0.00    +0.000 A 
ATOM     26  C   UNL     1       1.070  14.819  19.523  0.00  0.00    +0.000 A 
ATOM     27  C   UNL     1       2.020  15.840  19.444  0.00  0.00    +0.000 A 
ATOM     28  C   UNL     1       3.210  15.642  18.747  0.00  0.00    +0.000 A 
ATOM     29  C   UNL     1       3.467  14.406  18.162  0.00  0.00    +0.000 A 
ATOM     30  C   UNL     1       2.524  13.379  18.245  0.00  0.00    +0.000 A 
ENDBRANCH  24  25
ENDBRANCH  21  24
ENDBRANCH  10  21
TORSDOF 3
ENDMDL
MODEL 3
REMARK VINA RESULT:      -8.5      1.014      1.418
REMARK  Name = 
REMARK  4 active torsions:
REMARK  status: ('A' for Active; 'I' for Inactive)
REMARK    1  A    between atoms: C_1  and  C_2
REMARK    2  A    between atoms: N_10  and  S_11
REMARK    3  A    between atoms: S_11  and  C_14
REMARK    4  A    between atoms: C_14  and  C_15
REMARK                            x       y       z     vdW  Elec       q    Type
REMARK                         _______ _______ _______ _____ _____    ______ ____
ROOT
ATOM      1  C   UNL     1       6.715   4.595  15.346  0.00  0.00    +0.000 C 
ATOM      2  C   UNL     1       5.679   5.191  16.224  0.00  0.00    +0.000 A 
ATOM      3  C   UNL     1       5.243   6.534  16.235  0.00  0.00    +0.000 A 
ATOM      4  C   UNL     1       4.264   6.595  17.201  0.00  0.00    +0.000 A 
ATOM      5  N   UNL     1       3.473   7.620  17.614  0.00  0.00    +0.000 NA
ATOM      6  C   UNL     1       2.613   7.383  18.576  0.00  0.00    +0.000 A 
ATOM      7  N   UNL     1       1.734   8.370  18.964  0.00  0.00    +0.000 N 
ATOM      8  C   UNL     1       1.630   8.858  20.354  0.00  0.00    +0.000 C 
ATOM      9  C   UNL     1       0.157   9.225  20.657  0.00  0.00    +0.000 C 
ATOM     10  N   UNL     1      -0.405  10.210  19.646  0.00  0.00    +0.000 NA
ATOM     11  C   UNL     1      -0.225   9.638  18.265  0.00  0.00    +0.000 C 
ATOM     12  C   UNL     1       1.242   9.310  17.953  0.00  0.00    +0.000 C 
ATOM     13  C   UNL     1       2.470   6.025  19.201  0.00  0.00    +0.000 A 
ATOM     14  C   UNL     1       1.488   5.751  20.161  0.00  0.00    +0.000 A 
ATOM     15  C   UNL     1       1.357   4.481  20.701  0.00  0.00    +0.000 A 
ATOM     16  C   UNL     1       2.176   3.456  20.242  0.00  0.00    +0.000 A 
ATOM     17  C   UNL     1       3.135   3.698  19.250  0.00  0.00    +0.000 A 
ATOM     18  C   UNL     1       3.276   4.989  18.740  0.00  0.00    +0.000 A 
ATOM     19  N   UNL     1       4.183   5.319  17.722  0.00  0.00    +0.000 N 
ATOM     20  N   UNL     1       5.030   4.442  17.132  0.00  0.00    +0.000 NA
ENDROOT
BRANCH  10  21
ATOM     21  S   UNL     1       0.153  11.833  19.847  0.00  0.00    +0.000 S 
ATOM     22  O   UNL     1       1.382  11.930  19.108  0.00  0.00    +0.000 OA
ATOM     23  O   UNL     1      -0.974  12.697  19.528  0.00  0.00    +0.000 OA
BRANCH  21  24
ATOM     24  C   UNL     1       0.481  11.935  21.635  0.00  0.00    +0.000 C 
BRANCH  24  25
ATOM     25  C   UNL     1      -0.740  12.482  22.340  0.00  0.00    +0.000 A 
ATOM     26  C   UNL     1      -0.796  13.841  22.689  0.00  0.00    +0.000 A 
ATOM     27  C   UNL     1      -1.885  14.345  23.403  0.00  0.00    +0.000 A 
ATOM     28  C   UNL     1      -2.933  13.507  23.774  0.00  0.00    +0.000 A 
ATOM     29  C   UNL     1      -2.912  12.168  23.396  0.00  0.00    +0.000 A 
ATOM     30  C   UNL     1      -1.829  11.660  22.674  0.00  0.00    +0.000 A 
ENDBRANCH  24  25
ENDBRANCH  21  24
ENDBRANCH  10  21
TORSDOF 3
ENDMDL
MODEL 4
REMARK VINA RESULT:      -8.4      0.811      1.214
REMARK  Name = 
REMARK  4 active torsions:
REMARK  status: ('A' for Active; 'I' for Inactive)
REMARK    1  A    between atoms: C_1  and  C_2
REMARK    2  A    between atoms: N_10  and  S_11
REMARK    3  A    between atoms: S_11  and  C_14
REMARK    4  A    between atoms: C_14  and  C_15
REMARK                            x       y       z     vdW  Elec       q    Type
REMARK                         _______ _______ _______ _____ _____    ______ ____
ROOT
ATOM      1  C   UNL     1       6.309   3.863  15.150  0.00  0.00    +0.000 C 
ATOM      2  C   UNL     1       5.381   4.554  16.078  0.00  0.00    +0.000 A 
ATOM      3  C   UNL     1       5.125   5.940  16.150  0.00  0.00    +0.000 A 
ATOM      4  C   UNL     1       4.186   6.090  17.144  0.00  0.00    +0.000 A 
ATOM      5  N   UNL     1       3.545   7.192  17.617  0.00  0.00    +0.000 NA
ATOM      6  C   UNL     1       2.685   7.031  18.594  0.00  0.00    +0.000 A 
ATOM      7  N   UNL     1       1.952   8.107  19.042  0.00  0.00    +0.000 N 
ATOM      8  C   UNL     1       1.945   8.550  20.451  0.00  0.00    +0.000 C 
ATOM      9  C   UNL     1       0.541   9.093  20.808  0.00  0.00    +0.000 C 
ATOM     10  N   UNL     1       0.088  10.182  19.851  0.00  0.00    +0.000 NA
ATOM     11  C   UNL     1       0.159   9.646  18.445  0.00  0.00    +0.000 C 
ATOM     12  C   UNL     1       1.563   9.143  18.080  0.00  0.00    +0.000 C 
ATOM     13  C   UNL     1       2.380   5.679  19.173  0.00  0.00    +0.000 A 
ATOM     14  C   UNL     1       1.394   5.498  20.151  0.00  0.00    +0.000 A 
ATOM     15  C   UNL     1       1.110   4.236  20.648  0.00  0.00    +0.000 A 
ATOM     16  C   UNL     1       1.776   3.132  20.129  0.00  0.00    +0.000 A 
ATOM     17  C   UNL     1       2.735   3.286  19.120  0.00  0.00    +0.000 A 
ATOM     18  C   UNL     1       3.032   4.567  18.653  0.00  0.00    +0.000 A 
ATOM     19  N   UNL     1       3.950   4.816  17.622  0.00  0.00    +0.000 N 
ATOM     20  N   UNL     1       4.661   3.860  16.976  0.00  0.00    +0.000 NA
ENDROOT
BRANCH  10  21
ATOM     21  S   UNL     1       0.858  11.709  20.093  0.00  0.00    +0.000 S 
ATOM     22  O   UNL     1       1.296  11.727  21.462  0.00  0.00    +0.000 OA
ATOM     23  O   UNL     1       1.815  11.864  19.007  0.00  0.00    +0.000 OA
BRANCH  21  24
ATOM     24  C   UNL     1      -0.501  12.896  19.849  0.00  0.00    +0.000 C 
BRANCH  24  25
ATOM     25  C   UNL     1      -1.336  12.971  21.108  0.00  0.00    +0.000 A 
ATOM     26  C   UNL     1      -0.780  13.494  22.286  0.00  0.00    +0.000 A 
ATOM     27  C   UNL     1      -1.515  13.504  23.474  0.00  0.00    +0.000 A 
ATOM     28  C   UNL     1      -2.813  12.999  23.503  0.00  0.00    +0.000 A 
ATOM     29  C   UNL     1      -3.392  12.520  22.332  0.00  0.00    +0.000 A 
ATOM     30  C   UNL     1      -2.664  12.515  21.139  0.00  0.00    +0.000 A 
ENDBRANCH  24  25
ENDBRANCH  21  24
ENDBRANCH  10  21
TORSDOF 3
ENDMDL
MODEL 5
REMARK VINA RESULT:      -8.4      1.856      2.473
REMARK  Name = 
REMARK  4 active torsions:
REMARK  status: ('A' for Active; 'I' for Inactive)
REMARK    1  A    between atoms: C_1  and  C_2
REMARK    2  A    between atoms: N_10  and  S_11
REMARK    3  A    between atoms: S_11  and  C_14
REMARK    4  A    between atoms: C_14  and  C_15
REMARK                            x       y       z     vdW  Elec       q    Type
REMARK                         _______ _______ _______ _____ _____    ______ ____
ROOT
ATOM      1  C   UNL     1       6.514   4.078  15.147  0.00  0.00    +0.000 C 
ATOM      2  C   UNL     1       5.539   4.718  16.065  0.00  0.00    +0.000 A 
ATOM      3  C   UNL     1       5.272   6.097  16.195  0.00  0.00    +0.000 A 
ATOM      4  C   UNL     1       4.287   6.193  17.151  0.00  0.00    +0.000 A 
ATOM      5  N   UNL     1       3.618   7.267  17.648  0.00  0.00    +0.000 NA
ATOM      6  C   UNL     1       2.714   7.054  18.574  0.00  0.00    +0.000 A 
ATOM      7  N   UNL     1       1.955   8.103  19.042  0.00  0.00    +0.000 N 
ATOM      8  C   UNL     1       1.880   8.473  20.469  0.00  0.00    +0.000 C 
ATOM      9  C   UNL     1       0.457   8.992  20.788  0.00  0.00    +0.000 C 
ATOM     10  N   UNL     1       0.043  10.126  19.867  0.00  0.00    +0.000 NA
ATOM     11  C   UNL     1       0.183   9.663  18.441  0.00  0.00    +0.000 C 
ATOM     12  C   UNL     1       1.606   9.184  18.116  0.00  0.00    +0.000 C 
ATOM     13  C   UNL     1       2.391   5.672  19.070  0.00  0.00    +0.000 A 
ATOM     14  C   UNL     1       1.362   5.438  19.989  0.00  0.00    +0.000 A 
ATOM     15  C   UNL     1       1.063   4.151  20.408  0.00  0.00    +0.000 A 
ATOM     16  C   UNL     1       1.759   3.077  19.865  0.00  0.00    +0.000 A 
ATOM     17  C   UNL     1       2.763   3.286  18.912  0.00  0.00    +0.000 A 
ATOM     18  C   UNL     1       3.073   4.590  18.524  0.00  0.00    +0.000 A 
ATOM     19  N   UNL     1       4.037   4.895  17.551  0.00  0.00    +0.000 N 
ATOM     20  N   UNL     1       4.783   3.976  16.892  0.00  0.00    +0.000 NA
ENDROOT
BRANCH  10  21
ATOM     21  S   UNL     1       0.792  11.642  20.222  0.00  0.00    +0.000 S 
ATOM     22  O   UNL     1       1.200  11.577  21.599  0.00  0.00    +0.000 OA
ATOM     23  O   UNL     1       1.770  11.875  19.169  0.00  0.00    +0.000 OA
BRANCH  21  24
ATOM     24  C   UNL     1      -0.573  12.830  20.024  0.00  0.00    +0.000 C 
BRANCH  24  25
ATOM     25  C   UNL     1      -0.011  14.228  19.896  0.00  0.00    +0.000 A 
ATOM     26  C   UNL     1      -0.327  15.008  18.773  0.00  0.00    +0.000 A 
ATOM     27  C   UNL     1       0.241  16.273  18.605  0.00  0.00    +0.000 A 
ATOM     28  C   UNL     1       1.126  16.779  19.554  0.00  0.00    +0.000 A 
ATOM     29  C   UNL     1       1.413  16.035  20.694  0.00  0.00    +0.000 A 
ATOM     30  C   UNL     1       0.840  14.772  20.871  0.00  0.00    +0.000 A 
ENDBRANCH  24  25
ENDBRANCH  21  24
ENDBRANCH  10  21
TORSDOF 3
ENDMDL
MODEL 6
REMARK VINA RESULT:      -8.4      0.845      1.096
REMARK  Name = 
REMARK  4 active torsions:
REMARK  status: ('A' for Active; 'I' for Inactive)
REMARK    1  A    between atoms: C_1  and  C_2
REMARK    2  A    between atoms: N_10  and  S_11
REMARK    3  A    between atoms: S_11  and  C_14
REMARK    4  A    between atoms: C_14  and  C_15
REMARK                            x       y       z     vdW  Elec       q    Type
REMARK                         _______ _______ _______ _____ _____    ______ ____
ROOT
ATOM      1  C   UNL     1       6.669   4.371  15.168  0.00  0.00    +0.000 C 
ATOM      2  C   UNL     1       5.657   4.958  16.081  0.00  0.00    +0.000 A 
ATOM      3  C   UNL     1       5.336   6.324  16.229  0.00  0.00    +0.000 A 
ATOM      4  C   UNL     1       4.333   6.366  17.171  0.00  0.00    +0.000 A 
ATOM      5  N   UNL     1       3.616   7.405  17.675  0.00  0.00    +0.000 NA
ATOM      6  C   UNL     1       2.707   7.142  18.583  0.00  0.00    +0.000 A 
ATOM      7  N   UNL     1       1.901   8.154  19.055  0.00  0.00    +0.000 N 
ATOM      8  C   UNL     1       1.791   8.496  20.487  0.00  0.00    +0.000 C 
ATOM      9  C   UNL     1       0.344   8.956  20.792  0.00  0.00    +0.000 C 
ATOM     10  N   UNL     1      -0.098  10.089  19.883  0.00  0.00    +0.000 NA
ATOM     11  C   UNL     1       0.081   9.656  18.451  0.00  0.00    +0.000 C 
ATOM     12  C   UNL     1       1.525   9.237  18.142  0.00  0.00    +0.000 C 
ATOM     13  C   UNL     1       2.429   5.742  19.050  0.00  0.00    +0.000 A 
ATOM     14  C   UNL     1       1.396   5.453  19.949  0.00  0.00    +0.000 A 
ATOM     15  C   UNL     1       1.139   4.149  20.342  0.00  0.00    +0.000 A 
ATOM     16  C   UNL     1       1.884   3.111  19.793  0.00  0.00    +0.000 A 
ATOM     17  C   UNL     1       2.895   3.374  18.859  0.00  0.00    +0.000 A 
ATOM     18  C   UNL     1       3.161   4.695  18.498  0.00  0.00    +0.000 A 
ATOM     19  N   UNL     1       4.127   5.053  17.546  0.00  0.00    +0.000 N 
ATOM     20  N   UNL     1       4.917   4.174  16.884  0.00  0.00    +0.000 NA
ENDROOT
BRANCH  10  21
ATOM     21  S   UNL     1       0.587  11.626  20.275  0.00  0.00    +0.000 S 
ATOM     22  O   UNL     1       1.159  11.489  21.586  0.00  0.00    +0.000 OA
ATOM     23  O   UNL     1       1.415  12.008  19.141  0.00  0.00    +0.000 OA
BRANCH  21  24
ATOM     24  C   UNL     1      -0.867  12.720  20.331  0.00  0.00    +0.000 C 
BRANCH  24  25
ATOM     25  C   UNL     1      -0.788  13.600  21.559  0.00  0.00    +0.000 A 
ATOM     26  C   UNL     1      -1.534  13.275  22.702  0.00  0.00    +0.000 A 
ATOM     27  C   UNL     1      -1.527  14.116  23.817  0.00  0.00    +0.000 A 
ATOM     28  C   UNL     1      -0.774  15.287  23.811  0.00  0.00    +0.000 A 
ATOM     29  C   UNL     1       0.006  15.598  22.701  0.00  0.00    +0.000 A 
ATOM     30  C   UNL     1       0.009  14.756  21.586  0.00  0.00    +0.000 A 
ENDBRANCH  24  25
ENDBRANCH  21  24
ENDBRANCH  10  21
TORSDOF 3
ENDMDL
MODEL 7
REMARK VINA RESULT:      -8.3      1.729      2.230
REMARK  Name = 
REMARK  4 active torsions:
REMARK  status: ('A' for Active; 'I' for Inactive)
REMARK    1  A    between atoms: C_1  and  C_2
REMARK    2  A    between atoms: N_10  and  S_11
REMARK    3  A    between atoms: S_11  and  C_14
REMARK    4  A    between atoms: C_14  and  C_15
REMARK                            x       y       z     vdW  Elec       q    Type
REMARK                         _______ _______ _______ _____ _____    ______ ____
ROOT
ATOM      1  C   UNL     1       6.755   4.295  15.419  0.00  0.00    +0.000 C 
ATOM      2  C   UNL     1       5.721   4.943  16.264  0.00  0.00    +0.000 A 
ATOM      3  C   UNL     1       5.339   6.301  16.247  0.00  0.00    +0.000 A 
ATOM      4  C   UNL     1       4.339   6.413  17.187  0.00  0.00    +0.000 A 
ATOM      5  N   UNL     1       3.578   7.473  17.568  0.00  0.00    +0.000 NA
ATOM      6  C   UNL     1       2.686   7.282  18.511  0.00  0.00    +0.000 A 
ATOM      7  N   UNL     1       1.837   8.307  18.864  0.00  0.00    +0.000 N 
ATOM      8  C   UNL     1       1.718   8.817  20.245  0.00  0.00    +0.000 C 
ATOM      9  C   UNL     1       0.253   9.245  20.506  0.00  0.00    +0.000 C 
ATOM     10  N   UNL     1      -0.245  10.238  19.470  0.00  0.00    +0.000 NA
ATOM     11  C   UNL     1      -0.053   9.642  18.100  0.00  0.00    +0.000 C 
ATOM     12  C   UNL     1       1.408   9.253  17.830  0.00  0.00    +0.000 C 
ATOM     13  C   UNL     1       2.474   5.938  19.147  0.00  0.00    +0.000 A 
ATOM     14  C   UNL     1       1.459   5.716  20.085  0.00  0.00    +0.000 A 
ATOM     15  C   UNL     1       1.264   4.459  20.636  0.00  0.00    +0.000 A 
ATOM     16  C   UNL     1       2.053   3.397  20.211  0.00  0.00    +0.000 A 
ATOM     17  C   UNL     1       3.046   3.588  19.241  0.00  0.00    +0.000 A 
ATOM     18  C   UNL     1       3.250   4.866  18.719  0.00  0.00    +0.000 A 
ATOM     19  N   UNL     1       4.194   5.148  17.721  0.00  0.00    +0.000 N 
ATOM     20  N   UNL     1       5.021   4.231  17.163  0.00  0.00    +0.000 NA
ENDROOT
BRANCH  10  21
ATOM     21  S   UNL     1       0.371  11.840  19.665  0.00  0.00    +0.000 S 
ATOM     22  O   UNL     1       0.172  12.183  21.047  0.00  0.00    +0.000 OA
ATOM     23  O   UNL     1       1.707  11.840  19.087  0.00  0.00    +0.000 OA
BRANCH  21  24
ATOM     24  C   UNL     1      -0.726  12.833  18.604  0.00  0.00    +0.000 C 
BRANCH  24  25
ATOM     25  C   UNL     1      -2.167  12.508  18.927  0.00  0.00    +0.000 A 
ATOM     26  C   UNL     1      -2.953  11.812  17.995  0.00  0.00    +0.000 A 
ATOM     27  C   UNL     1      -4.304  11.567  18.248  0.00  0.00    +0.000 A 
ATOM     28  C   UNL     1      -4.890  12.006  19.433  0.00  0.00    +0.000 A 
ATOM     29  C   UNL     1      -4.112  12.658  20.385  0.00  0.00    +0.000 A 
ATOM     30  C   UNL     1      -2.757  12.898  20.140  0.00  0.00    +0.000 A 
ENDBRANCH  24  25
ENDBRANCH  21  24
ENDBRANCH  10  21
TORSDOF 3
ENDMDL
MODEL 8
REMARK VINA RESULT:      -8.3      2.467      2.821
REMARK  Name = 
REMARK  4 active torsions:
REMARK  status: ('A' for Active; 'I' for Inactive)
REMARK    1  A    between atoms: C_1  and  C_2
REMARK    2  A    between atoms: N_10  and  S_11
REMARK    3  A    between atoms: S_11  and  C_14
REMARK    4  A    between atoms: C_14  and  C_15
REMARK                            x       y       z     vdW  Elec       q    Type
REMARK                         _______ _______ _______ _____ _____    ______ ____
ROOT
ATOM      1  C   UNL     1       6.641   4.553  15.339  0.00  0.00    +0.000 C 
ATOM      2  C   UNL     1       5.622   5.113  16.261  0.00  0.00    +0.000 A 
ATOM      3  C   UNL     1       5.249   6.467  16.394  0.00  0.00    +0.000 A 
ATOM      4  C   UNL     1       4.261   6.484  17.352  0.00  0.00    +0.000 A 
ATOM      5  N   UNL     1       3.512   7.502  17.853  0.00  0.00    +0.000 NA
ATOM      6  C   UNL     1       2.629   7.217  18.780  0.00  0.00    +0.000 A 
ATOM      7  N   UNL     1       1.791   8.204  19.251  0.00  0.00    +0.000 N 
ATOM      8  C   UNL     1       1.690   8.563  20.679  0.00  0.00    +0.000 C 
ATOM      9  C   UNL     1       0.232   8.970  21.001  0.00  0.00    +0.000 C 
ATOM     10  N   UNL     1      -0.269  10.072  20.084  0.00  0.00    +0.000 NA
ATOM     11  C   UNL     1      -0.096   9.625  18.656  0.00  0.00    +0.000 C 
ATOM     12  C   UNL     1       1.358   9.258  18.329  0.00  0.00    +0.000 C 
ATOM     13  C   UNL     1       2.413   5.814  19.271  0.00  0.00    +0.000 A 
ATOM     14  C   UNL     1       1.406   5.499  20.191  0.00  0.00    +0.000 A 
ATOM     15  C   UNL     1       1.208   4.191  20.607  0.00  0.00    +0.000 A 
ATOM     16  C   UNL     1       1.984   3.176  20.061  0.00  0.00    +0.000 A 
ATOM     17  C   UNL     1       2.968   3.464  19.106  0.00  0.00    +0.000 A 
ATOM     18  C   UNL     1       3.176   4.789  18.722  0.00  0.00    +0.000 A 
ATOM     19  N   UNL     1       4.112   5.170  17.749  0.00  0.00    +0.000 N 
ATOM     20  N   UNL     1       4.926   4.313  17.086  0.00  0.00    +0.000 NA
ENDROOT
BRANCH  10  21
ATOM     21  S   UNL     1       0.361  11.640  20.442  0.00  0.00    +0.000 S 
ATOM     22  O   UNL     1      -0.724  12.389  21.015  0.00  0.00    +0.000 OA
ATOM     23  O   UNL     1       1.591  11.427  21.191  0.00  0.00    +0.000 OA
BRANCH  21  24
ATOM     24  C   UNL     1       0.784  12.297  18.798  0.00  0.00    +0.000 C 
BRANCH  24  25
ATOM     25  C   UNL     1       0.892  13.804  18.871  0.00  0.00    +0.000 A 
ATOM     26  C   UNL     1       2.112  14.401  19.222  0.00  0.00    +0.000 A 
ATOM     27  C   UNL     1       2.209  15.788  19.363  0.00  0.00    +0.000 A 
ATOM     28  C   UNL     1       1.096  16.597  19.149  0.00  0.00    +0.000 A 
ATOM     29  C   UNL     1      -0.108  16.021  18.756  0.00  0.00    +0.000 A 
ATOM     30  C   UNL     1      -0.209  14.636  18.606  0.00  0.00    +0.000 A 
ENDBRANCH  24  25
ENDBRANCH  21  24
ENDBRANCH  10  21
TORSDOF 3
ENDMDL
MODEL 9
REMARK VINA RESULT:      -8.2      0.779      1.202
REMARK  Name = 
REMARK  4 active torsions:
REMARK  status: ('A' for Active; 'I' for Inactive)
REMARK    1  A    between atoms: C_1  and  C_2
REMARK    2  A    between atoms: N_10  and  S_11
REMARK    3  A    between atoms: S_11  and  C_14
REMARK    4  A    between atoms: C_14  and  C_15
REMARK                            x       y       z     vdW  Elec       q    Type
REMARK                         _______ _______ _______ _____ _____    ______ ____
ROOT
ATOM      1  C   UNL     1       6.387   4.938  15.294  0.00  0.00    +0.000 C 
ATOM      2  C   UNL     1       5.377   5.380  16.287  0.00  0.00    +0.000 A 
ATOM      3  C   UNL     1       4.991   6.707  16.573  0.00  0.00    +0.000 A 
ATOM      4  C   UNL     1       4.019   6.606  17.543  0.00  0.00    +0.000 A 
ATOM      5  N   UNL     1       3.267   7.553  18.164  0.00  0.00    +0.000 NA
ATOM      6  C   UNL     1       2.404   7.157  19.068  0.00  0.00    +0.000 A 
ATOM      7  N   UNL     1       1.563   8.074  19.657  0.00  0.00    +0.000 N 
ATOM      8  C   UNL     1       1.483   8.275  21.118  0.00  0.00    +0.000 C 
ATOM      9  C   UNL     1       0.026   8.624  21.506  0.00  0.00    +0.000 C 
ATOM     10  N   UNL     1      -0.504   9.812  20.722  0.00  0.00    +0.000 NA
ATOM     11  C   UNL     1      -0.351   9.526  19.252  0.00  0.00    +0.000 C 
ATOM     12  C   UNL     1       1.102   9.216  18.863  0.00  0.00    +0.000 C 
ATOM     13  C   UNL     1       2.214   5.705  19.407  0.00  0.00    +0.000 A 
ATOM     14  C   UNL     1       1.227   5.278  20.304  0.00  0.00    +0.000 A 
ATOM     15  C   UNL     1       1.051   3.931  20.577  0.00  0.00    +0.000 A 
ATOM     16  C   UNL     1       1.830   2.991  19.911  0.00  0.00    +0.000 A 
ATOM     17  C   UNL     1       2.793   3.395  18.978  0.00  0.00    +0.000 A 
ATOM     18  C   UNL     1       2.979   4.757  18.737  0.00  0.00    +0.000 A 
ATOM     19  N   UNL     1       3.893   5.254  17.797  0.00  0.00    +0.000 N 
ATOM     20  N   UNL     1       4.705   4.485  17.032  0.00  0.00    +0.000 NA
ENDROOT
BRANCH  10  21
ATOM     21  S   UNL     1       0.114  11.341  21.240  0.00  0.00    +0.000 S 
ATOM     22  O   UNL     1       1.531  11.168  21.401  0.00  0.00    +0.000 OA
ATOM     23  O   UNL     1      -0.412  12.332  20.312  0.00  0.00    +0.000 OA
BRANCH  21  24
ATOM     24  C   UNL     1      -0.683  11.576  22.860  0.00  0.00    +0.000 C 
BRANCH  24  25
ATOM     25  C   UNL     1      -1.680  12.710  22.771  0.00  0.00    +0.000 A 
ATOM     26  C   UNL     1      -1.275  14.023  23.057  0.00  0.00    +0.000 A 
ATOM     27  C   UNL     1      -2.200  15.069  23.048  0.00  0.00    +0.000 A 
ATOM     28  C   UNL     1      -3.538  14.824  22.749  0.00  0.00    +0.000 A 
ATOM     29  C   UNL     1      -3.944  13.534  22.419  0.00  0.00    +0.000 A 
ATOM     30  C   UNL     1      -3.021  12.485  22.418  0.00  0.00    +0.000 A 
ENDBRANCH  24  25
ENDBRANCH  21  24
ENDBRANCH  10  21
TORSDOF 3
ENDMDL
