MODEL 1
REMARK VINA RESULT:      -8.8      0.000      0.000
REMARK  Name = 
REMARK  5 active torsions:
REMARK  status: ('A' for Active; 'I' for Inactive)
REMARK    1  A    between atoms: C_2  and  C_3
REMARK    2  A    between atoms: C_3  and  N_4
REMARK    3  A    between atoms: N_15  and  C_16
REMARK    4  A    between atoms: C_16  and  C_17
REMARK    5  A    between atoms: C_17  and  C_18
REMARK                            x       y       z     vdW  Elec       q    Type
REMARK                         _______ _______ _______ _____ _____    ______ ____
ROOT
ATOM      1  O   UNL     1       7.878   5.670  17.868  0.00  0.00    +0.000 OA
ATOM      2  C   UNL     1       7.111   6.453  17.317  0.00  0.00    +0.000 C 
ATOM      3  N   UNL     1       7.209   7.835  17.401  0.00  0.00    +0.000 N 
ATOM      4  H   UNL     1       6.796   8.365  16.632  0.00  0.00    +0.000 HD
ENDROOT
BRANCH   2   5
ATOM      5  C   UNL     1       5.980   5.991  16.402  0.00  0.00    +0.000 C 
BRANCH   5   6
ATOM      6  N   UNL     1       4.971   5.298  17.184  0.00  0.00    +0.000 N 
ATOM      7  C   UNL     1       4.911   3.927  17.165  0.00  0.00    +0.000 A 
ATOM      8  N   UNL     1       4.087   3.214  17.858  0.00  0.00    +0.000 NA
ATOM      9  C   UNL     1       3.183   3.889  18.692  0.00  0.00    +0.000 A 
ATOM     10  C   UNL     1       2.304   3.149  19.485  0.00  0.00    +0.000 A 
ATOM     11  C   UNL     1       1.399   3.786  20.341  0.00  0.00    +0.000 A 
ATOM     12  C   UNL     1       1.355   5.178  20.402  0.00  0.00    +0.000 A 
ATOM     13  C   UNL     1       2.222   5.931  19.608  0.00  0.00    +0.000 A 
ATOM     14  C   UNL     1       3.131   5.287  18.760  0.00  0.00    +0.000 A 
ATOM     15  C   UNL     1       4.070   6.051  17.920  0.00  0.00    +0.000 A 
ATOM     16  O   UNL     1       4.030   7.277  17.893  0.00  0.00    +0.000 OA
ENDBRANCH   5   6
ENDBRANCH   2   5
BRANCH   3  17
ATOM     17  C   UNL     1       8.320   8.450  18.106  0.00  0.00    +0.000 C 
BRANCH  17  18
ATOM     18  C   UNL     1       8.366   9.970  17.927  0.00  0.00    +0.000 C 
BRANCH  18  19
ATOM     19  C   UNL     1       9.299  10.666  18.868  0.00  0.00    +0.000 A 
ATOM     20  C   UNL     1       9.254  10.613  20.251  0.00  0.00    +0.000 A 
ATOM     21  N   UNL     1      10.359  11.278  20.698  0.00  0.00    +0.000 N 
ATOM     22  C   UNL     1      10.715  12.199  19.748  0.00  0.00    +0.000 A 
ATOM     23  C   UNL     1      11.376  13.426  19.844  0.00  0.00    +0.000 A 
ATOM     24  C   UNL     1      11.687  14.051  18.640  0.00  0.00    +0.000 A 
ATOM     25  F   UNL     1      12.194  15.292  18.663  0.00  0.00    +0.000 F 
ATOM     26  C   UNL     1      11.484  13.424  17.415  0.00  0.00    +0.000 A 
ATOM     27  C   UNL     1      10.802  12.201  17.346  0.00  0.00    +0.000 A 
ATOM     28  C   UNL     1      10.296  11.646  18.538  0.00  0.00    +0.000 A 
ATOM     29  H   UNL     1      10.820  11.132  21.586  0.00  0.00    +0.000 HD
ENDBRANCH  18  19
ENDBRANCH  17  18
ENDBRANCH   3  17
TORSDOF 5
ENDMDL
MODEL 2
REMARK VINA RESULT:      -8.6      1.187      1.706
REMARK  Name = 
REMARK  5 active torsions:
REMARK  status: ('A' for Active; 'I' for Inactive)
REMARK    1  A    between atoms: C_2  and  C_3
REMARK    2  A    between atoms: C_3  and  N_4
REMARK    3  A    between atoms: N_15  and  C_16
REMARK    4  A    between atoms: C_16  and  C_17
REMARK    5  A    between atoms: C_17  and  C_18
REMARK                            x       y       z     vdW  Elec       q    Type
REMARK                         _______ _______ _______ _____ _____    ______ ____
ROOT
ATOM      1  O   UNL     1       7.395   5.825  17.571  0.00  0.00    +0.000 OA
ATOM      2  C   UNL     1       6.662   6.771  17.305  0.00  0.00    +0.000 C 
ATOM      3  N   UNL     1       6.939   8.092  17.628  0.00  0.00    +0.000 N 
ATOM      4  H   UNL     1       6.492   8.803  17.046  0.00  0.00    +0.000 HD
ENDROOT
BRANCH   2   5
ATOM      5  C   UNL     1       5.367   6.611  16.511  0.00  0.00    +0.000 C 
BRANCH   5   6
ATOM      6  N   UNL     1       4.374   5.935  17.327  0.00  0.00    +0.000 N 
ATOM      7  C   UNL     1       3.674   6.636  18.277  0.00  0.00    +0.000 A 
ATOM      8  N   UNL     1       2.739   6.142  19.019  0.00  0.00    +0.000 NA
ATOM      9  C   UNL     1       2.415   4.789  18.846  0.00  0.00    +0.000 A 
ATOM     10  C   UNL     1       1.384   4.232  19.605  0.00  0.00    +0.000 A 
ATOM     11  C   UNL     1       1.021   2.890  19.447  0.00  0.00    +0.000 A 
ATOM     12  C   UNL     1       1.700   2.084  18.536  0.00  0.00    +0.000 A 
ATOM     13  C   UNL     1       2.740   2.624  17.777  0.00  0.00    +0.000 A 
ATOM     14  C   UNL     1       3.092   3.971  17.933  0.00  0.00    +0.000 A 
ATOM     15  C   UNL     1       4.174   4.576  17.138  0.00  0.00    +0.000 A 
ATOM     16  O   UNL     1       4.841   3.894  16.366  0.00  0.00    +0.000 OA
ENDBRANCH   5   6
ENDBRANCH   2   5
BRANCH   3  17
ATOM     17  C   UNL     1       8.203   8.445  18.248  0.00  0.00    +0.000 C 
BRANCH  17  18
ATOM     18  C   UNL     1       8.701   9.832  17.831  0.00  0.00    +0.000 C 
BRANCH  18  19
ATOM     19  C   UNL     1       9.422  10.572  18.914  0.00  0.00    +0.000 A 
ATOM     20  C   UNL     1       9.086  10.583  20.258  0.00  0.00    +0.000 A 
ATOM     21  N   UNL     1      10.079  11.269  20.897  0.00  0.00    +0.000 N 
ATOM     22  C   UNL     1      10.633  12.146  20.002  0.00  0.00    +0.000 A 
ATOM     23  C   UNL     1      11.270  13.377  20.179  0.00  0.00    +0.000 A 
ATOM     24  C   UNL     1      11.832  13.947  19.039  0.00  0.00    +0.000 A 
ATOM     25  F   UNL     1      12.333  15.188  19.112  0.00  0.00    +0.000 F 
ATOM     26  C   UNL     1      11.885  13.263  17.829  0.00  0.00    +0.000 A 
ATOM     27  C   UNL     1      11.223  12.038  17.674  0.00  0.00    +0.000 A 
ATOM     28  C   UNL     1      10.474  11.537  18.757  0.00  0.00    +0.000 A 
ATOM     29  H   UNL     1      10.342  11.165  21.867  0.00  0.00    +0.000 HD
ENDBRANCH  18  19
ENDBRANCH  17  18
ENDBRANCH   3  17
TORSDOF 5
ENDMDL
MODEL 3
REMARK VINA RESULT:      -8.5      1.908      2.272
REMARK  Name = 
REMARK  5 active torsions:
REMARK  status: ('A' for Active; 'I' for Inactive)
REMARK    1  A    between atoms: C_2  and  C_3
REMARK    2  A    between atoms: C_3  and  N_4
REMARK    3  A    between atoms: N_15  and  C_16
REMARK    4  A    between atoms: C_16  and  C_17
REMARK    5  A    between atoms: C_17  and  C_18
REMARK                            x       y       z     vdW  Elec       q    Type
REMARK                         _______ _______ _______ _____ _____    ______ ____
ROOT
ATOM      1  O   UNL     1       6.403   7.484  16.713  0.00  0.00    +0.000 OA
ATOM      2  C   UNL     1       7.297   7.079  17.448  0.00  0.00    +0.000 C 
ATOM      3  N   UNL     1       8.236   7.895  18.063  0.00  0.00    +0.000 N 
ATOM      4  H   UNL     1       8.660   7.532  18.919  0.00  0.00    +0.000 HD
ENDROOT
BRANCH   2   5
ATOM      5  C   UNL     1       7.442   5.609  17.836  0.00  0.00    +0.000 C 
BRANCH   5   6
ATOM      6  N   UNL     1       6.154   4.947  17.729  0.00  0.00    +0.000 N 
ATOM      7  C   UNL     1       5.745   4.433  16.523  0.00  0.00    +0.000 A 
ATOM      8  N   UNL     1       4.644   3.786  16.332  0.00  0.00    +0.000 NA
ATOM      9  C   UNL     1       3.800   3.593  17.436  0.00  0.00    +0.000 A 
ATOM     10  C   UNL     1       2.620   2.865  17.273  0.00  0.00    +0.000 A 
ATOM     11  C   UNL     1       1.762   2.637  18.355  0.00  0.00    +0.000 A 
ATOM     12  C   UNL     1       2.070   3.152  19.613  0.00  0.00    +0.000 A 
ATOM     13  C   UNL     1       3.242   3.891  19.788  0.00  0.00    +0.000 A 
ATOM     14  C   UNL     1       4.101   4.107  18.703  0.00  0.00    +0.000 A 
ATOM     15  C   UNL     1       5.352   4.869  18.857  0.00  0.00    +0.000 A 
ATOM     16  O   UNL     1       5.639   5.394  19.929  0.00  0.00    +0.000 OA
ENDBRANCH   5   6
ENDBRANCH   2   5
BRANCH   3  17
ATOM     17  C   UNL     1       8.153   9.339  17.929  0.00  0.00    +0.000 C 
BRANCH  17  18
ATOM     18  C   UNL     1       9.085  10.078  18.892  0.00  0.00    +0.000 C 
BRANCH  18  19
ATOM     19  C   UNL     1       9.864  11.187  18.256  0.00  0.00    +0.000 A 
ATOM     20  C   UNL     1      11.230  11.199  18.029  0.00  0.00    +0.000 A 
ATOM     21  N   UNL     1      11.492  12.333  17.316  0.00  0.00    +0.000 N 
ATOM     22  C   UNL     1      10.524  13.256  17.615  0.00  0.00    +0.000 A 
ATOM     23  C   UNL     1      10.539  14.654  17.614  0.00  0.00    +0.000 A 
ATOM     24  C   UNL     1       9.319  15.280  17.855  0.00  0.00    +0.000 A 
ATOM     25  F   UNL     1       9.291  16.612  18.006  0.00  0.00    +0.000 F 
ATOM     26  C   UNL     1       8.131  14.562  17.945  0.00  0.00    +0.000 A 
ATOM     27  C   UNL     1       8.147  13.161  17.960  0.00  0.00    +0.000 A 
ATOM     28  C   UNL     1       9.392  12.502  17.923  0.00  0.00    +0.000 A 
ATOM     29  H   UNL     1      12.276  12.476  16.694  0.00  0.00    +0.000 HD
ENDBRANCH  18  19
ENDBRANCH  17  18
ENDBRANCH   3  17
TORSDOF 5
ENDMDL
MODEL 4
REMARK VINA RESULT:      -8.4      2.056      2.517
REMARK  Name = 
REMARK  5 active torsions:
REMARK  status: ('A' for Active; 'I' for Inactive)
REMARK    1  A    between atoms: C_2  and  C_3
REMARK    2  A    between atoms: C_3  and  N_4
REMARK    3  A    between atoms: N_15  and  C_16
REMARK    4  A    between atoms: C_16  and  C_17
REMARK    5  A    between atoms: C_17  and  C_18
REMARK                            x       y       z     vdW  Elec       q    Type
REMARK                         _______ _______ _______ _____ _____    ______ ____
ROOT
ATOM      1  O   UNL     1       6.199   7.362  16.394  0.00  0.00    +0.000 OA
ATOM      2  C   UNL     1       7.039   6.904  17.162  0.00  0.00    +0.000 C 
ATOM      3  N   UNL     1       7.984   7.666  17.834  0.00  0.00    +0.000 N 
ATOM      4  H   UNL     1       8.351   7.269  18.701  0.00  0.00    +0.000 HD
ENDROOT
BRANCH   2   5
ATOM      5  C   UNL     1       7.100   5.423  17.527  0.00  0.00    +0.000 C 
BRANCH   5   6
ATOM      6  N   UNL     1       5.839   5.014  18.120  0.00  0.00    +0.000 N 
ATOM      7  C   UNL     1       5.480   5.483  19.360  0.00  0.00    +0.000 A 
ATOM      8  N   UNL     1       4.364   5.219  19.954  0.00  0.00    +0.000 NA
ATOM      9  C   UNL     1       3.449   4.392  19.287  0.00  0.00    +0.000 A 
ATOM     10  C   UNL     1       2.216   4.118  19.883  0.00  0.00    +0.000 A 
ATOM     11  C   UNL     1       1.271   3.311  19.240  0.00  0.00    +0.000 A 
ATOM     12  C   UNL     1       1.558   2.755  17.995  0.00  0.00    +0.000 A 
ATOM     13  C   UNL     1       2.790   3.012  17.390  0.00  0.00    +0.000 A 
ATOM     14  C   UNL     1       3.728   3.828  18.035  0.00  0.00    +0.000 A 
ATOM     15  C   UNL     1       5.031   4.132  17.419  0.00  0.00    +0.000 A 
ATOM     16  O   UNL     1       5.355   3.618  16.353  0.00  0.00    +0.000 OA
ENDBRANCH   5   6
ENDBRANCH   2   5
BRANCH   3  17
ATOM     17  C   UNL     1       7.972   9.114  17.724  0.00  0.00    +0.000 C 
BRANCH  17  18
ATOM     18  C   UNL     1       8.894   9.793  18.741  0.00  0.00    +0.000 C 
BRANCH  18  19
ATOM     19  C   UNL     1       9.637  10.974  18.196  0.00  0.00    +0.000 A 
ATOM     20  C   UNL     1      11.013  11.104  18.113  0.00  0.00    +0.000 A 
ATOM     21  N   UNL     1      11.249  12.267  17.438  0.00  0.00    +0.000 N 
ATOM     22  C   UNL     1      10.180  13.100  17.641  0.00  0.00    +0.000 A 
ATOM     23  C   UNL     1      10.076  14.494  17.650  0.00  0.00    +0.000 A 
ATOM     24  C   UNL     1       8.789  15.012  17.766  0.00  0.00    +0.000 A 
ATOM     25  F   UNL     1       8.631  16.333  17.922  0.00  0.00    +0.000 F 
ATOM     26  C   UNL     1       7.664  14.195  17.727  0.00  0.00    +0.000 A 
ATOM     27  C   UNL     1       7.797  12.799  17.735  0.00  0.00    +0.000 A 
ATOM     28  C   UNL     1       9.090  12.249  17.824  0.00  0.00    +0.000 A 
ATOM     29  H   UNL     1      12.078  12.484  16.903  0.00  0.00    +0.000 HD
ENDBRANCH  18  19
ENDBRANCH  17  18
ENDBRANCH   3  17
TORSDOF 5
ENDMDL
MODEL 5
REMARK VINA RESULT:      -8.4      1.746      2.251
REMARK  Name = 
REMARK  5 active torsions:
REMARK  status: ('A' for Active; 'I' for Inactive)
REMARK    1  A    between atoms: C_2  and  C_3
REMARK    2  A    between atoms: C_3  and  N_4
REMARK    3  A    between atoms: N_15  and  C_16
REMARK    4  A    between atoms: C_16  and  C_17
REMARK    5  A    between atoms: C_17  and  C_18
REMARK                            x       y       z     vdW  Elec       q    Type
REMARK                         _______ _______ _______ _____ _____    ______ ____
ROOT
ATOM      1  O   UNL     1       6.603   7.381  16.613  0.00  0.00    +0.000 OA
ATOM      2  C   UNL     1       7.369   6.898  17.440  0.00  0.00    +0.000 C 
ATOM      3  N   UNL     1       8.261   7.635  18.206  0.00  0.00    +0.000 N 
ATOM      4  H   UNL     1       8.548   7.217  19.092  0.00  0.00    +0.000 HD
ENDROOT
BRANCH   2   5
ATOM      5  C   UNL     1       7.382   5.409  17.779  0.00  0.00    +0.000 C 
BRANCH   5   6
ATOM      6  N   UNL     1       6.032   4.879  17.702  0.00  0.00    +0.000 N 
ATOM      7  C   UNL     1       5.588   4.299  16.539  0.00  0.00    +0.000 A 
ATOM      8  N   UNL     1       4.427   3.756  16.381  0.00  0.00    +0.000 NA
ATOM      9  C   UNL     1       3.551   3.759  17.476  0.00  0.00    +0.000 A 
ATOM     10  C   UNL     1       2.302   3.147  17.353  0.00  0.00    +0.000 A 
ATOM     11  C   UNL     1       1.408   3.115  18.429  0.00  0.00    +0.000 A 
ATOM     12  C   UNL     1       1.751   3.713  19.641  0.00  0.00    +0.000 A 
ATOM     13  C   UNL     1       2.992   4.337  19.776  0.00  0.00    +0.000 A 
ATOM     14  C   UNL     1       3.886   4.357  18.698  0.00  0.00    +0.000 A 
ATOM     15  C   UNL     1       5.209   4.994  18.812  0.00  0.00    +0.000 A 
ATOM     16  O   UNL     1       5.534   5.585  19.837  0.00  0.00    +0.000 OA
ENDBRANCH   5   6
ENDBRANCH   2   5
BRANCH   3  17
ATOM     17  C   UNL     1       8.274   9.084  18.124  0.00  0.00    +0.000 C 
BRANCH  17  18
ATOM     18  C   UNL     1       9.105   9.733  19.235  0.00  0.00    +0.000 C 
BRANCH  18  19
ATOM     19  C   UNL     1       9.536  11.135  18.935  0.00  0.00    +0.000 A 
ATOM     20  C   UNL     1      10.223  11.554  17.808  0.00  0.00    +0.000 A 
ATOM     21  N   UNL     1      10.290  12.915  17.882  0.00  0.00    +0.000 N 
ATOM     22  C   UNL     1      10.233  13.272  19.204  0.00  0.00    +0.000 A 
ATOM     23  C   UNL     1      10.741  14.378  19.891  0.00  0.00    +0.000 A 
ATOM     24  C   UNL     1      10.382  14.484  21.232  0.00  0.00    +0.000 A 
ATOM     25  F   UNL     1      10.947  15.440  21.982  0.00  0.00    +0.000 F 
ATOM     26  C   UNL     1       9.456  13.625  21.813  0.00  0.00    +0.000 A 
ATOM     27  C   UNL     1       8.975  12.514  21.106  0.00  0.00    +0.000 A 
ATOM     28  C   UNL     1       9.481  12.269  19.815  0.00  0.00    +0.000 A 
ATOM     29  H   UNL     1      10.389  13.548  17.099  0.00  0.00    +0.000 HD
ENDBRANCH  18  19
ENDBRANCH  17  18
ENDBRANCH   3  17
TORSDOF 5
ENDMDL
MODEL 6
REMARK VINA RESULT:      -8.2      1.676      1.901
REMARK  Name = 
REMARK  5 active torsions:
REMARK  status: ('A' for Active; 'I' for Inactive)
REMARK    1  A    between atoms: C_2  and  C_3
REMARK    2  A    between atoms: C_3  and  N_4
REMARK    3  A    between atoms: N_15  and  C_16
REMARK    4  A    between atoms: C_16  and  C_17
REMARK    5  A    between atoms: C_17  and  C_18
REMARK                            x       y       z     vdW  Elec       q    Type
REMARK                         _______ _______ _______ _____ _____    ______ ____
ROOT
ATOM      1  O   UNL     1       5.804   7.766  17.826  0.00  0.00    +0.000 OA
ATOM      2  C   UNL     1       6.833   7.343  17.311  0.00  0.00    +0.000 C 
ATOM      3  N   UNL     1       8.027   8.048  17.252  0.00  0.00    +0.000 N 
ATOM      4  H   UNL     1       8.878   7.490  17.169  0.00  0.00    +0.000 HD
ENDROOT
BRANCH   2   5
ATOM      5  C   UNL     1       6.943   5.937  16.726  0.00  0.00    +0.000 C 
BRANCH   5   6
ATOM      6  N   UNL     1       6.075   5.033  17.460  0.00  0.00    +0.000 N 
ATOM      7  C   UNL     1       6.384   4.685  18.752  0.00  0.00    +0.000 A 
ATOM      8  N   UNL     1       5.657   3.929  19.506  0.00  0.00    +0.000 NA
ATOM      9  C   UNL     1       4.465   3.423  18.968  0.00  0.00    +0.000 A 
ATOM     10  C   UNL     1       3.636   2.634  19.768  0.00  0.00    +0.000 A 
ATOM     11  C   UNL     1       2.431   2.126  19.272  0.00  0.00    +0.000 A 
ATOM     12  C   UNL     1       2.048   2.391  17.958  0.00  0.00    +0.000 A 
ATOM     13  C   UNL     1       2.871   3.170  17.143  0.00  0.00    +0.000 A 
ATOM     14  C   UNL     1       4.072   3.684  17.650  0.00  0.00    +0.000 A 
ATOM     15  C   UNL     1       4.956   4.522  16.821  0.00  0.00    +0.000 A 
ATOM     16  O   UNL     1       4.694   4.734  15.642  0.00  0.00    +0.000 OA
ENDBRANCH   5   6
ENDBRANCH   2   5
BRANCH   3  17
ATOM     17  C   UNL     1       8.146   9.343  17.898  0.00  0.00    +0.000 C 
BRANCH  17  18
ATOM     18  C   UNL     1       9.021   9.300  19.154  0.00  0.00    +0.000 C 
BRANCH  18  19
ATOM     19  C   UNL     1       9.475  10.646  19.627  0.00  0.00    +0.000 A 
ATOM     20  C   UNL     1       9.140  11.243  20.831  0.00  0.00    +0.000 A 
ATOM     21  N   UNL     1       9.873  12.392  20.907  0.00  0.00    +0.000 N 
ATOM     22  C   UNL     1      10.146  12.808  19.630  0.00  0.00    +0.000 A 
ATOM     23  C   UNL     1      10.380  14.078  19.096  0.00  0.00    +0.000 A 
ATOM     24  C   UNL     1      10.755  14.120  17.756  0.00  0.00    +0.000 A 
ATOM     25  F   UNL     1      10.857  15.309  17.146  0.00  0.00    +0.000 F 
ATOM     26  C   UNL     1      11.023  12.962  17.033  0.00  0.00    +0.000 A 
ATOM     27  C   UNL     1      10.762  11.701  17.587  0.00  0.00    +0.000 A 
ATOM     28  C   UNL     1      10.189  11.638  18.873  0.00  0.00    +0.000 A 
ATOM     29  H   UNL     1      10.146  12.866  21.757  0.00  0.00    +0.000 HD
ENDBRANCH  18  19
ENDBRANCH  17  18
ENDBRANCH   3  17
TORSDOF 5
ENDMDL
MODEL 7
REMARK VINA RESULT:      -8.2      1.132      1.172
REMARK  Name = 
REMARK  5 active torsions:
REMARK  status: ('A' for Active; 'I' for Inactive)
REMARK    1  A    between atoms: C_2  and  C_3
REMARK    2  A    between atoms: C_3  and  N_4
REMARK    3  A    between atoms: N_15  and  C_16
REMARK    4  A    between atoms: C_16  and  C_17
REMARK    5  A    between atoms: C_17  and  C_18
REMARK                            x       y       z     vdW  Elec       q    Type
REMARK                         _______ _______ _______ _____ _____    ______ ____
ROOT
ATOM      1  O   UNL     1       7.453   6.215  16.264  0.00  0.00    +0.000 OA
ATOM      2  C   UNL     1       6.587   6.776  16.927  0.00  0.00    +0.000 C 
ATOM      3  N   UNL     1       6.843   7.736  17.896  0.00  0.00    +0.000 N 
ATOM      4  H   UNL     1       6.085   8.391  18.094  0.00  0.00    +0.000 HD
ENDROOT
BRANCH   2   5
ATOM      5  C   UNL     1       5.096   6.531  16.711  0.00  0.00    +0.000 C 
BRANCH   5   6
ATOM      6  N   UNL     1       4.622   5.539  17.661  0.00  0.00    +0.000 N 
ATOM      7  C   UNL     1       5.356   4.401  17.887  0.00  0.00    +0.000 A 
ATOM      8  N   UNL     1       5.050   3.483  18.742  0.00  0.00    +0.000 NA
ATOM      9  C   UNL     1       3.879   3.657  19.496  0.00  0.00    +0.000 A 
ATOM     10  C   UNL     1       3.538   2.704  20.456  0.00  0.00    +0.000 A 
ATOM     11  C   UNL     1       2.387   2.852  21.239  0.00  0.00    +0.000 A 
ATOM     12  C   UNL     1       1.554   3.955  21.055  0.00  0.00    +0.000 A 
ATOM     13  C   UNL     1       1.878   4.912  20.092  0.00  0.00    +0.000 A 
ATOM     14  C   UNL     1       3.036   4.762  19.319  0.00  0.00    +0.000 A 
ATOM     15  C   UNL     1       3.415   5.760  18.304  0.00  0.00    +0.000 A 
ATOM     16  O   UNL     1       2.684   6.717  18.063  0.00  0.00    +0.000 OA
ENDBRANCH   5   6
ENDBRANCH   2   5
BRANCH   3  17
ATOM     17  C   UNL     1       8.198   8.204  18.125  0.00  0.00    +0.000 C 
BRANCH  17  18
ATOM     18  C   UNL     1       8.394   9.668  17.721  0.00  0.00    +0.000 C 
BRANCH  18  19
ATOM     19  C   UNL     1       9.098  10.496  18.751  0.00  0.00    +0.000 A 
ATOM     20  C   UNL     1       9.202  10.203  20.101  0.00  0.00    +0.000 A 
ATOM     21  N   UNL     1      10.031  11.146  20.636  0.00  0.00    +0.000 N 
ATOM     22  C   UNL     1       9.943  12.276  19.866  0.00  0.00    +0.000 A 
ATOM     23  C   UNL     1      10.125  13.628  20.173  0.00  0.00    +0.000 A 
ATOM     24  C   UNL     1      10.079  14.512  19.099  0.00  0.00    +0.000 A 
ATOM     25  F   UNL     1      10.106  15.830  19.340  0.00  0.00    +0.000 F 
ATOM     26  C   UNL     1      10.002  14.065  17.784  0.00  0.00    +0.000 A 
ATOM     27  C   UNL     1       9.802  12.706  17.505  0.00  0.00    +0.000 A 
ATOM     28  C   UNL     1       9.641  11.815  18.585  0.00  0.00    +0.000 A 
ATOM     29  H   UNL     1      10.594  11.038  21.470  0.00  0.00    +0.000 HD
ENDBRANCH  18  19
ENDBRANCH  17  18
ENDBRANCH   3  17
TORSDOF 5
ENDMDL
MODEL 8
REMARK VINA RESULT:      -8.2      1.908      2.510
REMARK  Name = 
REMARK  5 active torsions:
REMARK  status: ('A' for Active; 'I' for Inactive)
REMARK    1  A    between atoms: C_2  and  C_3
REMARK    2  A    between atoms: C_3  and  N_4
REMARK    3  A    between atoms: N_15  and  C_16
REMARK    4  A    between atoms: C_16  and  C_17
REMARK    5  A    between atoms: C_17  and  C_18
REMARK                            x       y       z     vdW  Elec       q    Type
REMARK                         _______ _______ _______ _____ _____    ______ ____
ROOT
ATOM      1  O   UNL     1       7.605   6.910  16.464  0.00  0.00    +0.000 OA
ATOM      2  C   UNL     1       7.661   6.858  17.688  0.00  0.00    +0.000 C 
ATOM      3  N   UNL     1       8.041   7.918  18.500  0.00  0.00    +0.000 N 
ATOM      4  H   UNL     1       7.691   7.902  19.459  0.00  0.00    +0.000 HD
ENDROOT
BRANCH   2   5
ATOM      5  C   UNL     1       7.246   5.622  18.481  0.00  0.00    +0.000 C 
BRANCH   5   6
ATOM      6  N   UNL     1       5.816   5.411  18.344  0.00  0.00    +0.000 N 
ATOM      7  C   UNL     1       5.048   6.330  17.672  0.00  0.00    +0.000 A 
ATOM      8  N   UNL     1       3.781   6.214  17.453  0.00  0.00    +0.000 NA
ATOM      9  C   UNL     1       3.137   5.066  17.938  0.00  0.00    +0.000 A 
ATOM     10  C   UNL     1       1.775   4.890  17.686  0.00  0.00    +0.000 A 
ATOM     11  C   UNL     1       1.103   3.750  18.139  0.00  0.00    +0.000 A 
ATOM     12  C   UNL     1       1.786   2.777  18.867  0.00  0.00    +0.000 A 
ATOM     13  C   UNL     1       3.146   2.944  19.135  0.00  0.00    +0.000 A 
ATOM     14  C   UNL     1       3.815   4.083  18.670  0.00  0.00    +0.000 A 
ATOM     15  C   UNL     1       5.253   4.283  18.922  0.00  0.00    +0.000 A 
ATOM     16  O   UNL     1       5.886   3.486  19.608  0.00  0.00    +0.000 OA
ENDBRANCH   5   6
ENDBRANCH   2   5
BRANCH   3  17
ATOM     17  C   UNL     1       8.321   9.220  17.921  0.00  0.00    +0.000 C 
BRANCH  17  18
ATOM     18  C   UNL     1       9.035  10.161  18.897  0.00  0.00    +0.000 C 
BRANCH  18  19
ATOM     19  C   UNL     1       9.834  11.238  18.231  0.00  0.00    +0.000 A 
ATOM     20  C   UNL     1      11.193  11.201  17.966  0.00  0.00    +0.000 A 
ATOM     21  N   UNL     1      11.474  12.320  17.238  0.00  0.00    +0.000 N 
ATOM     22  C   UNL     1      10.547  13.278  17.556  0.00  0.00    +0.000 A 
ATOM     23  C   UNL     1      10.611  14.674  17.544  0.00  0.00    +0.000 A 
ATOM     24  C   UNL     1       9.421  15.345  17.814  0.00  0.00    +0.000 A 
ATOM     25  F   UNL     1       9.443  16.677  17.956  0.00  0.00    +0.000 F 
ATOM     26  C   UNL     1       8.212  14.669  17.942  0.00  0.00    +0.000 A 
ATOM     27  C   UNL     1       8.179  13.268  17.967  0.00  0.00    +0.000 A 
ATOM     28  C   UNL     1       9.398  12.566  17.901  0.00  0.00    +0.000 A 
ATOM     29  H   UNL     1      12.245  12.431  16.594  0.00  0.00    +0.000 HD
ENDBRANCH  18  19
ENDBRANCH  17  18
ENDBRANCH   3  17
TORSDOF 5
ENDMDL
MODEL 9
REMARK VINA RESULT:      -8.1      6.156      8.355
REMARK  Name = 
REMARK  5 active torsions:
REMARK  status: ('A' for Active; 'I' for Inactive)
REMARK    1  A    between atoms: C_2  and  C_3
REMARK    2  A    between atoms: C_3  and  N_4
REMARK    3  A    between atoms: N_15  and  C_16
REMARK    4  A    between atoms: C_16  and  C_17
REMARK    5  A    between atoms: C_17  and  C_18
REMARK                            x       y       z     vdW  Elec       q    Type
REMARK                         _______ _______ _______ _____ _____    ______ ____
ROOT
ATOM      1  O   UNL     1       0.631   3.732  20.577  0.00  0.00    +0.000 OA
ATOM      2  C   UNL     1       1.695   3.943  20.005  0.00  0.00    +0.000 C 
ATOM      3  N   UNL     1       2.259   5.201  19.841  0.00  0.00    +0.000 N 
ATOM      4  H   UNL     1       3.273   5.229  19.717  0.00  0.00    +0.000 HD
ENDROOT
BRANCH   2   5
ATOM      5  C   UNL     1       2.573   2.822  19.457  0.00  0.00    +0.000 C 
BRANCH   5   6
ATOM      6  N   UNL     1       3.714   3.390  18.761  0.00  0.00    +0.000 N 
ATOM      7  C   UNL     1       4.831   3.764  19.466  0.00  0.00    +0.000 A 
ATOM      8  N   UNL     1       5.914   4.233  18.941  0.00  0.00    +0.000 NA
ATOM      9  C   UNL     1       5.954   4.375  17.546  0.00  0.00    +0.000 A 
ATOM     10  C   UNL     1       7.121   4.842  16.941  0.00  0.00    +0.000 A 
ATOM     11  C   UNL     1       7.204   4.981  15.551  0.00  0.00    +0.000 A 
ATOM     12  C   UNL     1       6.109   4.665  14.750  0.00  0.00    +0.000 A 
ATOM     13  C   UNL     1       4.930   4.205  15.341  0.00  0.00    +0.000 A 
ATOM     14  C   UNL     1       4.858   4.060  16.733  0.00  0.00    +0.000 A 
ATOM     15  C   UNL     1       3.635   3.563  17.388  0.00  0.00    +0.000 A 
ATOM     16  O   UNL     1       2.624   3.329  16.733  0.00  0.00    +0.000 OA
ENDBRANCH   5   6
ENDBRANCH   2   5
BRANCH   3  17
ATOM     17  C   UNL     1       1.634   6.368  20.438  0.00  0.00    +0.000 C 
BRANCH  17  18
ATOM     18  C   UNL     1       2.188   7.684  19.885  0.00  0.00    +0.000 C 
BRANCH  18  19
ATOM     19  C   UNL     1       1.177   8.785  19.804  0.00  0.00    +0.000 A 
ATOM     20  C   UNL     1       0.986   9.641  18.731  0.00  0.00    +0.000 A 
ATOM     21  N   UNL     1      -0.114  10.391  19.029  0.00  0.00    +0.000 N 
ATOM     22  C   UNL     1      -0.221  10.466  20.394  0.00  0.00    +0.000 A 
ATOM     23  C   UNL     1      -0.776  11.436  21.232  0.00  0.00    +0.000 A 
ATOM     24  C   UNL     1      -0.824  11.122  22.587  0.00  0.00    +0.000 A 
ATOM     25  F   UNL     1      -1.213  12.062  23.459  0.00  0.00    +0.000 F 
ATOM     26  C   UNL     1      -0.476   9.861  23.059  0.00  0.00    +0.000 A 
ATOM     27  C   UNL     1       0.094   8.912  22.200  0.00  0.00    +0.000 A 
ATOM     28  C   UNL     1       0.342   9.279  20.863  0.00  0.00    +0.000 A 
ATOM     29  H   UNL     1      -0.728  10.836  18.360  0.00  0.00    +0.000 HD
ENDBRANCH  18  19
ENDBRANCH  17  18
ENDBRANCH   3  17
TORSDOF 5
ENDMDL
