MODEL 1
REMARK VINA RESULT:      -9.2      0.000      0.000
REMARK  Name = 
REMARK  7 active torsions:
REMARK  status: ('A' for Active; 'I' for Inactive)
REMARK    1  A    between atoms: C_1  and  C_2
REMARK    2  A    between atoms: C_2  and  C_3
REMARK    3  A    between atoms: N_10  and  C_11
REMARK    4  A    between atoms: C_15  and  C_16
REMARK    5  A    between atoms: C_16  and  C_17
REMARK    6  A    between atoms: C_17  and  C_18
REMARK    7  A    between atoms: N_22  and  C_23
REMARK                            x       y       z     vdW  Elec       q    Type
REMARK                         _______ _______ _______ _____ _____    ______ ____
ROOT
ATOM      1  C   UNL     1       2.819   5.902  18.360  0.00  0.00    +0.000 A 
ATOM      2  C   UNL     1       1.984   4.791  18.494  0.00  0.00    +0.000 A 
ATOM      3  C   UNL     1       2.322   3.555  17.932  0.00  0.00    +0.000 A 
ATOM      4  C   UNL     1       3.503   3.410  17.204  0.00  0.00    +0.000 A 
ATOM      5  C   UNL     1       4.388   4.483  17.045  0.00  0.00    +0.000 A 
ATOM      6  C   UNL     1       4.029   5.683  17.689  0.00  0.00    +0.000 A 
ENDROOT
BRANCH   1  14
ATOM      7  C   UNL     1       0.644   9.540  20.967  0.00  0.00    +0.000 A 
ATOM      8  C   UNL     1       0.192  10.813  20.582  0.00  0.00    +0.000 A 
ATOM      9  C   UNL     1       0.413  11.301  19.287  0.00  0.00    +0.000 A 
ATOM     10  C   UNL     1       1.080  10.529  18.341  0.00  0.00    +0.000 A 
ATOM     11  C   UNL     1       1.525   9.275  18.724  0.00  0.00    +0.000 A 
ATOM     12  C   UNL     1       1.320   8.784  20.016  0.00  0.00    +0.000 A 
ATOM     13  C   UNL     1       1.886   7.397  20.141  0.00  0.00    +0.000 C 
ATOM     14  N   UNL     1       2.513   7.164  18.834  0.00  0.00    +0.000 N 
ATOM     15  C   UNL     1       2.213   8.255  17.885  0.00  0.00    +0.000 C 
BRANCH   7  17
ATOM     16  C   UNL     1      -0.518   9.956  23.142  0.00  0.00    +0.000 C 
ATOM     17  C   UNL     1       0.345   8.996  22.337  0.00  0.00    +0.000 C 
ENDBRANCH   7  17
ENDBRANCH   1  14
BRANCH   5  18
ATOM     18  C   UNL     1       5.711   4.439  16.152  0.00  0.00    +0.000 C 
ATOM     19  C   UNL     1       5.790   5.521  15.027  0.00  0.00    +0.000 C 
ATOM     20  O   UNL     1       6.291   4.540  14.086  0.00  0.00    +0.000 OA
ATOM     21  C   UNL     1       5.747   3.482  14.928  0.00  0.00    +0.000 C 
BRANCH  18  22
ATOM     22  C   UNL     1       6.984   4.492  17.013  0.00  0.00    +0.000 C 
BRANCH  22  23
ATOM     23  C   UNL     1       7.432   5.869  17.355  0.00  0.00    +0.000 A 
ATOM     24  N   UNL     1       7.519   6.884  16.517  0.00  0.00    +0.000 NA
ATOM     25  N   UNL     1       7.898   7.999  17.226  0.00  0.00    +0.000 NA
ATOM     26  C   UNL     1       8.039   7.641  18.480  0.00  0.00    +0.000 A 
ATOM     27  N   UNL     1       7.781   6.311  18.607  0.00  0.00    +0.000 N 
ATOM     28  C   UNL     1       7.856   5.561  19.831  0.00  0.00    +0.000 C 
ENDBRANCH  22  23
ENDBRANCH  18  22
ENDBRANCH   5  18
TORSDOF 5
ENDMDL
MODEL 2
REMARK VINA RESULT:      -9.1      0.683      1.217
REMARK  Name = 
REMARK  7 active torsions:
REMARK  status: ('A' for Active; 'I' for Inactive)
REMARK    1  A    between atoms: C_1  and  C_2
REMARK    2  A    between atoms: C_2  and  C_3
REMARK    3  A    between atoms: N_10  and  C_11
REMARK    4  A    between atoms: C_15  and  C_16
REMARK    5  A    between atoms: C_16  and  C_17
REMARK    6  A    between atoms: C_17  and  C_18
REMARK    7  A    between atoms: N_22  and  C_23
REMARK                            x       y       z     vdW  Elec       q    Type
REMARK                         _______ _______ _______ _____ _____    ______ ____
ROOT
ATOM      1  C   UNL     1       2.887   6.046  18.316  0.00  0.00    +0.000 A 
ATOM      2  C   UNL     1       2.188   4.877  18.623  0.00  0.00    +0.000 A 
ATOM      3  C   UNL     1       2.565   3.641  18.084  0.00  0.00    +0.000 A 
ATOM      4  C   UNL     1       3.646   3.554  17.207  0.00  0.00    +0.000 A 
ATOM      5  C   UNL     1       4.395   4.690  16.870  0.00  0.00    +0.000 A 
ATOM      6  C   UNL     1       4.012   5.892  17.496  0.00  0.00    +0.000 A 
ENDROOT
BRANCH   1  14
ATOM      7  C   UNL     1       0.650   9.639  20.934  0.00  0.00    +0.000 A 
ATOM      8  C   UNL     1       0.084  10.861  20.534  0.00  0.00    +0.000 A 
ATOM      9  C   UNL     1       0.179  11.306  19.208  0.00  0.00    +0.000 A 
ATOM     10  C   UNL     1       0.829  10.540  18.247  0.00  0.00    +0.000 A 
ATOM     11  C   UNL     1       1.387   9.336  18.644  0.00  0.00    +0.000 A 
ATOM     12  C   UNL     1       1.309   8.890  19.966  0.00  0.00    +0.000 A 
ATOM     13  C   UNL     1       1.978   7.551  20.102  0.00  0.00    +0.000 C 
ATOM     14  N   UNL     1       2.527   7.304  18.762  0.00  0.00    +0.000 N 
ATOM     15  C   UNL     1       2.084   8.330  17.797  0.00  0.00    +0.000 C 
BRANCH   7  17
ATOM     16  C   UNL     1      -0.522   9.968  23.118  0.00  0.00    +0.000 C 
ATOM     17  C   UNL     1       0.488   9.137  22.342  0.00  0.00    +0.000 C 
ENDBRANCH   7  17
ENDBRANCH   1  14
BRANCH   5  18
ATOM     18  C   UNL     1       5.584   4.705  15.806  0.00  0.00    +0.000 C 
ATOM     19  C   UNL     1       5.136   4.769  14.310  0.00  0.00    +0.000 C 
ATOM     20  O   UNL     1       6.123   3.773  13.946  0.00  0.00    +0.000 OA
ATOM     21  C   UNL     1       6.177   3.347  15.339  0.00  0.00    +0.000 C 
BRANCH  18  22
ATOM     22  C   UNL     1       6.595   5.827  16.094  0.00  0.00    +0.000 C 
BRANCH  22  23
ATOM     23  C   UNL     1       7.191   5.776  17.456  0.00  0.00    +0.000 A 
ATOM     24  N   UNL     1       7.362   4.690  18.185  0.00  0.00    +0.000 NA
ATOM     25  N   UNL     1       8.008   5.045  19.345  0.00  0.00    +0.000 NA
ATOM     26  C   UNL     1       8.214   6.340  19.303  0.00  0.00    +0.000 A 
ATOM     27  N   UNL     1       7.699   6.846  18.150  0.00  0.00    +0.000 N 
ATOM     28  C   UNL     1       7.719   8.231  17.766  0.00  0.00    +0.000 C 
ENDBRANCH  22  23
ENDBRANCH  18  22
ENDBRANCH   5  18
TORSDOF 5
ENDMDL
MODEL 3
REMARK VINA RESULT:      -9.1      1.674      2.842
REMARK  Name = 
REMARK  7 active torsions:
REMARK  status: ('A' for Active; 'I' for Inactive)
REMARK    1  A    between atoms: C_1  and  C_2
REMARK    2  A    between atoms: C_2  and  C_3
REMARK    3  A    between atoms: N_10  and  C_11
REMARK    4  A    between atoms: C_15  and  C_16
REMARK    5  A    between atoms: C_16  and  C_17
REMARK    6  A    between atoms: C_17  and  C_18
REMARK    7  A    between atoms: N_22  and  C_23
REMARK                            x       y       z     vdW  Elec       q    Type
REMARK                         _______ _______ _______ _____ _____    ______ ____
ROOT
ATOM      1  C   UNL     1       2.685   6.340  18.276  0.00  0.00    +0.000 A 
ATOM      2  C   UNL     1       1.794   5.282  18.087  0.00  0.00    +0.000 A 
ATOM      3  C   UNL     1       2.214   4.066  17.536  0.00  0.00    +0.000 A 
ATOM      4  C   UNL     1       3.541   3.890  17.145  0.00  0.00    +0.000 A 
ATOM      5  C   UNL     1       4.486   4.909  17.321  0.00  0.00    +0.000 A 
ATOM      6  C   UNL     1       4.021   6.084  17.942  0.00  0.00    +0.000 A 
ENDROOT
BRANCH   1  14
ATOM      7  C   UNL     1       0.552   9.857  21.077  0.00  0.00    +0.000 A 
ATOM      8  C   UNL     1      -0.087  11.058  20.728  0.00  0.00    +0.000 A 
ATOM      9  C   UNL     1      -0.118  11.505  19.399  0.00  0.00    +0.000 A 
ATOM     10  C   UNL     1       0.476  10.761  18.386  0.00  0.00    +0.000 A 
ATOM     11  C   UNL     1       1.106   9.577  18.734  0.00  0.00    +0.000 A 
ATOM     12  C   UNL     1       1.153   9.130  20.056  0.00  0.00    +0.000 A 
ATOM     13  C   UNL     1       1.877   7.815  20.134  0.00  0.00    +0.000 C 
ATOM     14  N   UNL     1       2.320   7.585  18.753  0.00  0.00    +0.000 N 
ATOM     15  C   UNL     1       1.765   8.594  17.829  0.00  0.00    +0.000 C 
BRANCH   7  17
ATOM     16  C   UNL     1      -0.710   9.837  23.235  0.00  0.00    +0.000 C 
ATOM     17  C   UNL     1       0.525   9.351  22.492  0.00  0.00    +0.000 C 
ENDBRANCH   7  17
ENDBRANCH   1  14
BRANCH   5  18
ATOM     18  C   UNL     1       5.999   4.834  16.818  0.00  0.00    +0.000 C 
ATOM     19  C   UNL     1       7.044   4.439  17.912  0.00  0.00    +0.000 C 
ATOM     20  O   UNL     1       7.960   5.458  17.440  0.00  0.00    +0.000 OA
ATOM     21  C   UNL     1       6.840   6.141  16.803  0.00  0.00    +0.000 C 
BRANCH  18  22
ATOM     22  C   UNL     1       6.152   3.912  15.597  0.00  0.00    +0.000 C 
BRANCH  22  23
ATOM     23  C   UNL     1       6.843   4.543  14.439  0.00  0.00    +0.000 A 
ATOM     24  N   UNL     1       7.775   5.473  14.509  0.00  0.00    +0.000 NA
ATOM     25  N   UNL     1       8.214   5.740  13.234  0.00  0.00    +0.000 NA
ATOM     26  C   UNL     1       7.539   4.973  12.413  0.00  0.00    +0.000 A 
ATOM     27  N   UNL     1       6.651   4.221  13.119  0.00  0.00    +0.000 N 
ATOM     28  C   UNL     1       5.724   3.277  12.555  0.00  0.00    +0.000 C 
ENDBRANCH  22  23
ENDBRANCH  18  22
ENDBRANCH   5  18
TORSDOF 5
ENDMDL
MODEL 4
REMARK VINA RESULT:      -8.7      2.010      3.105
REMARK  Name = 
REMARK  7 active torsions:
REMARK  status: ('A' for Active; 'I' for Inactive)
REMARK    1  A    between atoms: C_1  and  C_2
REMARK    2  A    between atoms: C_2  and  C_3
REMARK    3  A    between atoms: N_10  and  C_11
REMARK    4  A    between atoms: C_15  and  C_16
REMARK    5  A    between atoms: C_16  and  C_17
REMARK    6  A    between atoms: C_17  and  C_18
REMARK    7  A    between atoms: N_22  and  C_23
REMARK                            x       y       z     vdW  Elec       q    Type
REMARK                         _______ _______ _______ _____ _____    ______ ____
ROOT
ATOM      1  C   UNL     1       2.771   6.431  18.254  0.00  0.00    +0.000 A 
ATOM      2  C   UNL     1       1.979   5.281  18.234  0.00  0.00    +0.000 A 
ATOM      3  C   UNL     1       2.440   4.089  17.663  0.00  0.00    +0.000 A 
ATOM      4  C   UNL     1       3.706   4.030  17.080  0.00  0.00    +0.000 A 
ATOM      5  C   UNL     1       4.553   5.146  17.080  0.00  0.00    +0.000 A 
ATOM      6  C   UNL     1       4.062   6.296  17.728  0.00  0.00    +0.000 A 
ENDROOT
BRANCH   1  14
ATOM      7  C   UNL     1       0.447   9.819  21.062  0.00  0.00    +0.000 A 
ATOM      8  C   UNL     1      -0.227  11.003  20.718  0.00  0.00    +0.000 A 
ATOM      9  C   UNL     1      -0.244  11.471  19.397  0.00  0.00    +0.000 A 
ATOM     10  C   UNL     1       0.400  10.766  18.385  0.00  0.00    +0.000 A 
ATOM     11  C   UNL     1       1.065   9.601  18.728  0.00  0.00    +0.000 A 
ATOM     12  C   UNL     1       1.098   9.132  20.043  0.00  0.00    +0.000 A 
ATOM     13  C   UNL     1       1.867   7.843  20.116  0.00  0.00    +0.000 C 
ATOM     14  N   UNL     1       2.350   7.653  18.742  0.00  0.00    +0.000 N 
ATOM     15  C   UNL     1       1.779   8.658  17.823  0.00  0.00    +0.000 C 
BRANCH   7  17
ATOM     16  C   UNL     1      -0.741   9.896  23.261  0.00  0.00    +0.000 C 
ATOM     17  C   UNL     1       0.406   9.288  22.468  0.00  0.00    +0.000 C 
ENDBRANCH   7  17
ENDBRANCH   1  14
BRANCH   5  18
ATOM     18  C   UNL     1       5.974   5.201  16.356  0.00  0.00    +0.000 C 
ATOM     19  C   UNL     1       6.754   3.847  16.319  0.00  0.00    +0.000 C 
ATOM     20  O   UNL     1       7.990   4.522  16.660  0.00  0.00    +0.000 OA
ATOM     21  C   UNL     1       7.212   5.637  17.187  0.00  0.00    +0.000 C 
BRANCH  18  22
ATOM     22  C   UNL     1       5.870   5.779  14.935  0.00  0.00    +0.000 C 
BRANCH  22  23
ATOM     23  C   UNL     1       6.049   4.773  13.853  0.00  0.00    +0.000 A 
ATOM     24  N   UNL     1       5.198   3.815  13.539  0.00  0.00    +0.000 NA
ATOM     25  N   UNL     1       5.686   3.145  12.443  0.00  0.00    +0.000 NA
ATOM     26  C   UNL     1       6.825   3.704  12.112  0.00  0.00    +0.000 A 
ATOM     27  N   UNL     1       7.107   4.714  12.980  0.00  0.00    +0.000 N 
ATOM     28  C   UNL     1       8.283   5.539  12.945  0.00  0.00    +0.000 C 
ENDBRANCH  22  23
ENDBRANCH  18  22
ENDBRANCH   5  18
TORSDOF 5
ENDMDL
MODEL 5
REMARK VINA RESULT:      -8.7      1.987      3.631
REMARK  Name = 
REMARK  7 active torsions:
REMARK  status: ('A' for Active; 'I' for Inactive)
REMARK    1  A    between atoms: C_1  and  C_2
REMARK    2  A    between atoms: C_2  and  C_3
REMARK    3  A    between atoms: N_10  and  C_11
REMARK    4  A    between atoms: C_15  and  C_16
REMARK    5  A    between atoms: C_16  and  C_17
REMARK    6  A    between atoms: C_17  and  C_18
REMARK    7  A    between atoms: N_22  and  C_23
REMARK                            x       y       z     vdW  Elec       q    Type
REMARK                         _______ _______ _______ _____ _____    ______ ____
ROOT
ATOM      1  C   UNL     1       2.042   7.802  18.785  0.00  0.00    +0.000 A 
ATOM      2  C   UNL     1       2.874   8.490  17.900  0.00  0.00    +0.000 A 
ATOM      3  C   UNL     1       3.846   7.822  17.146  0.00  0.00    +0.000 A 
ATOM      4  C   UNL     1       4.018   6.444  17.279  0.00  0.00    +0.000 A 
ATOM      5  C   UNL     1       3.207   5.696  18.142  0.00  0.00    +0.000 A 
ATOM      6  C   UNL     1       2.201   6.411  18.822  0.00  0.00    +0.000 A 
ENDROOT
BRANCH   1  14
ATOM      7  C   UNL     1      -0.715  11.336  20.948  0.00  0.00    +0.000 A 
ATOM      8  C   UNL     1      -1.087  11.529  22.288  0.00  0.00    +0.000 A 
ATOM      9  C   UNL     1      -0.766  10.586  23.275  0.00  0.00    +0.000 A 
ATOM     10  C   UNL     1      -0.058   9.434  22.952  0.00  0.00    +0.000 A 
ATOM     11  C   UNL     1       0.307   9.245  21.629  0.00  0.00    +0.000 A 
ATOM     12  C   UNL     1      -0.018  10.173  20.637  0.00  0.00    +0.000 A 
ATOM     13  C   UNL     1       0.520   9.723  19.308  0.00  0.00    +0.000 C 
ATOM     14  N   UNL     1       1.109   8.410  19.603  0.00  0.00    +0.000 N 
ATOM     15  C   UNL     1       1.103   8.126  21.053  0.00  0.00    +0.000 C 
BRANCH   7  17
ATOM     16  C   UNL     1      -2.297  12.086  19.164  0.00  0.00    +0.000 C 
ATOM     17  C   UNL     1      -1.004  12.382  19.908  0.00  0.00    +0.000 C 
ENDBRANCH   7  17
ENDBRANCH   1  14
BRANCH   5  18
ATOM     18  C   UNL     1       3.391   4.137  18.431  0.00  0.00    +0.000 C 
ATOM     19  C   UNL     1       2.273   3.216  17.844  0.00  0.00    +0.000 C 
ATOM     20  O   UNL     1       2.230   2.446  19.071  0.00  0.00    +0.000 OA
ATOM     21  C   UNL     1       2.852   3.563  19.770  0.00  0.00    +0.000 C 
BRANCH  18  22
ATOM     22  C   UNL     1       4.771   3.631  17.978  0.00  0.00    +0.000 C 
BRANCH  22  23
ATOM     23  C   UNL     1       5.914   4.424  18.507  0.00  0.00    +0.000 A 
ATOM     24  N   UNL     1       6.080   4.800  19.760  0.00  0.00    +0.000 NA
ATOM     25  N   UNL     1       7.289   5.447  19.861  0.00  0.00    +0.000 NA
ATOM     26  C   UNL     1       7.833   5.457  18.668  0.00  0.00    +0.000 A 
ATOM     27  N   UNL     1       7.000   4.848  17.781  0.00  0.00    +0.000 N 
ATOM     28  C   UNL     1       7.251   4.689  16.375  0.00  0.00    +0.000 C 
ENDBRANCH  22  23
ENDBRANCH  18  22
ENDBRANCH   5  18
TORSDOF 5
ENDMDL
MODEL 6
REMARK VINA RESULT:      -8.5      3.807      8.244
REMARK  Name = 
REMARK  7 active torsions:
REMARK  status: ('A' for Active; 'I' for Inactive)
REMARK    1  A    between atoms: C_1  and  C_2
REMARK    2  A    between atoms: C_2  and  C_3
REMARK    3  A    between atoms: N_10  and  C_11
REMARK    4  A    between atoms: C_15  and  C_16
REMARK    5  A    between atoms: C_16  and  C_17
REMARK    6  A    between atoms: C_17  and  C_18
REMARK    7  A    between atoms: N_22  and  C_23
REMARK                            x       y       z     vdW  Elec       q    Type
REMARK                         _______ _______ _______ _____ _____    ______ ____
ROOT
ATOM      1  C   UNL     1       1.761   8.142  19.548  0.00  0.00    +0.000 A 
ATOM      2  C   UNL     1       1.665   7.847  20.909  0.00  0.00    +0.000 A 
ATOM      3  C   UNL     1       1.123   8.764  21.817  0.00  0.00    +0.000 A 
ATOM      4  C   UNL     1       0.679  10.012  21.378  0.00  0.00    +0.000 A 
ATOM      5  C   UNL     1       0.736  10.362  20.023  0.00  0.00    +0.000 A 
ATOM      6  C   UNL     1       1.227   9.374  19.148  0.00  0.00    +0.000 A 
ENDROOT
BRANCH   1  14
ATOM      7  C   UNL     1       4.115   4.234  17.561  0.00  0.00    +0.000 A 
ATOM      8  C   UNL     1       5.125   4.158  16.588  0.00  0.00    +0.000 A 
ATOM      9  C   UNL     1       5.575   5.303  15.917  0.00  0.00    +0.000 A 
ATOM     10  C   UNL     1       5.036   6.553  16.205  0.00  0.00    +0.000 A 
ATOM     11  C   UNL     1       4.039   6.624  17.164  0.00  0.00    +0.000 A 
ATOM     12  C   UNL     1       3.577   5.487  17.830  0.00  0.00    +0.000 A 
ATOM     13  C   UNL     1       2.515   5.864  18.825  0.00  0.00    +0.000 C 
ATOM     14  N   UNL     1       2.344   7.307  18.614  0.00  0.00    +0.000 N 
ATOM     15  C   UNL     1       3.350   7.842  17.674  0.00  0.00    +0.000 C 
BRANCH   7  17
ATOM     16  C   UNL     1       2.505   2.324  17.655  0.00  0.00    +0.000 C 
ATOM     17  C   UNL     1       3.684   3.012  18.324  0.00  0.00    +0.000 C 
ENDBRANCH   7  17
ENDBRANCH   1  14
BRANCH   5  18
ATOM     18  C   UNL     1       0.342  11.796  19.443  0.00  0.00    +0.000 C 
ATOM     19  C   UNL     1      -0.660  12.615  20.320  0.00  0.00    +0.000 C 
ATOM     20  O   UNL     1      -1.403  13.013  19.142  0.00  0.00    +0.000 OA
ATOM     21  C   UNL     1      -0.824  11.887  18.420  0.00  0.00    +0.000 C 
BRANCH  18  22
ATOM     22  C   UNL     1       1.584  12.651  19.138  0.00  0.00    +0.000 C 
BRANCH  22  23
ATOM     23  C   UNL     1       1.960  13.591  20.229  0.00  0.00    +0.000 A 
ATOM     24  N   UNL     1       2.558  13.265  21.358  0.00  0.00    +0.000 NA
ATOM     25  N   UNL     1       2.800  14.418  22.067  0.00  0.00    +0.000 NA
ATOM     26  C   UNL     1       2.341  15.422  21.359  0.00  0.00    +0.000 A 
ATOM     27  N   UNL     1       1.785  14.952  20.209  0.00  0.00    +0.000 N 
ATOM     28  C   UNL     1       1.161  15.759  19.196  0.00  0.00    +0.000 C 
ENDBRANCH  22  23
ENDBRANCH  18  22
ENDBRANCH   5  18
TORSDOF 5
ENDMDL
MODEL 7
REMARK VINA RESULT:      -8.3      1.055      2.093
REMARK  Name = 
REMARK  7 active torsions:
REMARK  status: ('A' for Active; 'I' for Inactive)
REMARK    1  A    between atoms: C_1  and  C_2
REMARK    2  A    between atoms: C_2  and  C_3
REMARK    3  A    between atoms: N_10  and  C_11
REMARK    4  A    between atoms: C_15  and  C_16
REMARK    5  A    between atoms: C_16  and  C_17
REMARK    6  A    between atoms: C_17  and  C_18
REMARK    7  A    between atoms: N_22  and  C_23
REMARK                            x       y       z     vdW  Elec       q    Type
REMARK                         _______ _______ _______ _____ _____    ______ ____
ROOT
ATOM      1  C   UNL     1       2.955   5.455  19.393  0.00  0.00    +0.000 A 
ATOM      2  C   UNL     1       2.888   4.288  20.155  0.00  0.00    +0.000 A 
ATOM      3  C   UNL     1       3.697   3.183  19.867  0.00  0.00    +0.000 A 
ATOM      4  C   UNL     1       4.583   3.219  18.789  0.00  0.00    +0.000 A 
ATOM      5  C   UNL     1       4.705   4.366  17.994  0.00  0.00    +0.000 A 
ATOM      6  C   UNL     1       3.916   5.469  18.374  0.00  0.00    +0.000 A 
ENDROOT
BRANCH   1  14
ATOM      7  C   UNL     1       1.340  10.163  19.402  0.00  0.00    +0.000 A 
ATOM      8  C   UNL     1       0.656  10.905  20.378  0.00  0.00    +0.000 A 
ATOM      9  C   UNL     1       0.214  10.309  21.567  0.00  0.00    +0.000 A 
ATOM     10  C   UNL     1       0.451   8.961  21.816  0.00  0.00    +0.000 A 
ATOM     11  C   UNL     1       1.124   8.231  20.851  0.00  0.00    +0.000 A 
ATOM     12  C   UNL     1       1.559   8.814  19.658  0.00  0.00    +0.000 A 
ATOM     13  C   UNL     1       2.275   7.797  18.814  0.00  0.00    +0.000 C 
ATOM     14  N   UNL     1       2.139   6.554  19.585  0.00  0.00    +0.000 N 
ATOM     15  C   UNL     1       1.534   6.801  20.910  0.00  0.00    +0.000 C 
BRANCH   7  17
ATOM     16  C   UNL     1       1.981  12.330  18.333  0.00  0.00    +0.000 C 
ATOM     17  C   UNL     1       1.870  10.823  18.159  0.00  0.00    +0.000 C 
ENDBRANCH   7  17
ENDBRANCH   1  14
BRANCH   5  18
ATOM     18  C   UNL     1       5.617   4.467  16.689  0.00  0.00    +0.000 C 
ATOM     19  C   UNL     1       5.217   5.596  15.685  0.00  0.00    +0.000 C 
ATOM     20  O   UNL     1       5.406   4.700  14.563  0.00  0.00    +0.000 OA
ATOM     21  C   UNL     1       5.269   3.567  15.470  0.00  0.00    +0.000 C 
BRANCH  18  22
ATOM     22  C   UNL     1       7.109   4.589  17.041  0.00  0.00    +0.000 C 
BRANCH  22  23
ATOM     23  C   UNL     1       7.537   5.966  17.408  0.00  0.00    +0.000 A 
ATOM     24  N   UNL     1       7.627   6.993  16.586  0.00  0.00    +0.000 NA
ATOM     25  N   UNL     1       7.983   8.102  17.316  0.00  0.00    +0.000 NA
ATOM     26  C   UNL     1       8.109   7.729  18.567  0.00  0.00    +0.000 A 
ATOM     27  N   UNL     1       7.862   6.394  18.671  0.00  0.00    +0.000 N 
ATOM     28  C   UNL     1       7.925   5.628  19.886  0.00  0.00    +0.000 C 
ENDBRANCH  22  23
ENDBRANCH  18  22
ENDBRANCH   5  18
TORSDOF 5
ENDMDL
MODEL 8
REMARK VINA RESULT:      -8.1      3.661      8.858
REMARK  Name = 
REMARK  7 active torsions:
REMARK  status: ('A' for Active; 'I' for Inactive)
REMARK    1  A    between atoms: C_1  and  C_2
REMARK    2  A    between atoms: C_2  and  C_3
REMARK    3  A    between atoms: N_10  and  C_11
REMARK    4  A    between atoms: C_15  and  C_16
REMARK    5  A    between atoms: C_16  and  C_17
REMARK    6  A    between atoms: C_17  and  C_18
REMARK    7  A    between atoms: N_22  and  C_23
REMARK                            x       y       z     vdW  Elec       q    Type
REMARK                         _______ _______ _______ _____ _____    ______ ____
ROOT
ATOM      1  C   UNL     1       2.295   7.789  18.835  0.00  0.00    +0.000 A 
ATOM      2  C   UNL     1       2.475   8.706  17.799  0.00  0.00    +0.000 A 
ATOM      3  C   UNL     1       1.904   9.983  17.849  0.00  0.00    +0.000 A 
ATOM      4  C   UNL     1       1.121  10.363  18.940  0.00  0.00    +0.000 A 
ATOM      5  C   UNL     1       0.915   9.492  20.018  0.00  0.00    +0.000 A 
ATOM      6  C   UNL     1       1.569   8.248  19.942  0.00  0.00    +0.000 A 
ENDROOT
BRANCH   1  14
ATOM      7  C   UNL     1       4.523   3.629  17.255  0.00  0.00    +0.000 A 
ATOM      8  C   UNL     1       4.143   2.280  17.351  0.00  0.00    +0.000 A 
ATOM      9  C   UNL     1       3.003   1.897  18.072  0.00  0.00    +0.000 A 
ATOM     10  C   UNL     1       2.210   2.848  18.705  0.00  0.00    +0.000 A 
ATOM     11  C   UNL     1       2.588   4.177  18.609  0.00  0.00    +0.000 A 
ATOM     12  C   UNL     1       3.729   4.568  17.902  0.00  0.00    +0.000 A 
ATOM     13  C   UNL     1       3.881   6.063  17.948  0.00  0.00    +0.000 C 
ATOM     14  N   UNL     1       2.777   6.494  18.816  0.00  0.00    +0.000 N 
ATOM     15  C   UNL     1       1.881   5.369  19.153  0.00  0.00    +0.000 C 
BRANCH   7  17
ATOM     16  C   UNL     1       5.295   4.422  15.013  0.00  0.00    +0.000 C 
ATOM     17  C   UNL     1       5.708   4.040  16.425  0.00  0.00    +0.000 C 
ENDBRANCH   7  17
ENDBRANCH   1  14
BRANCH   5  18
ATOM     18  C   UNL     1      -0.039   9.802  21.260  0.00  0.00    +0.000 C 
ATOM     19  C   UNL     1       0.695  10.015  22.623  0.00  0.00    +0.000 C 
ATOM     20  O   UNL     1      -0.295   9.210  23.310  0.00  0.00    +0.000 OA
ATOM     21  C   UNL     1      -0.659   8.605  22.034  0.00  0.00    +0.000 C 
BRANCH  18  22
ATOM     22  C   UNL     1      -0.973  10.991  20.981  0.00  0.00    +0.000 C 
BRANCH  22  23
ATOM     23  C   UNL     1      -0.694  12.193  21.812  0.00  0.00    +0.000 A 
ATOM     24  N   UNL     1       0.345  12.995  21.686  0.00  0.00    +0.000 NA
ATOM     25  N   UNL     1       0.205  14.027  22.583  0.00  0.00    +0.000 NA
ATOM     26  C   UNL     1      -0.913  13.832  23.241  0.00  0.00    +0.000 A 
ATOM     27  N   UNL     1      -1.501  12.683  22.809  0.00  0.00    +0.000 N 
ATOM     28  C   UNL     1      -2.730  12.136  23.314  0.00  0.00    +0.000 C 
ENDBRANCH  22  23
ENDBRANCH  18  22
ENDBRANCH   5  18
TORSDOF 5
ENDMDL
MODEL 9
REMARK VINA RESULT:      -8.1      3.770      9.044
REMARK  Name = 
REMARK  7 active torsions:
REMARK  status: ('A' for Active; 'I' for Inactive)
REMARK    1  A    between atoms: C_1  and  C_2
REMARK    2  A    between atoms: C_2  and  C_3
REMARK    3  A    between atoms: N_10  and  C_11
REMARK    4  A    between atoms: C_15  and  C_16
REMARK    5  A    between atoms: C_16  and  C_17
REMARK    6  A    between atoms: C_17  and  C_18
REMARK    7  A    between atoms: N_22  and  C_23
REMARK                            x       y       z     vdW  Elec       q    Type
REMARK                         _______ _______ _______ _____ _____    ______ ____
ROOT
ATOM      1  C   UNL     1       2.168   7.811  18.922  0.00  0.00    +0.000 A 
ATOM      2  C   UNL     1       2.048   8.605  17.780  0.00  0.00    +0.000 A 
ATOM      3  C   UNL     1       1.438   9.863  17.829  0.00  0.00    +0.000 A 
ATOM      4  C   UNL     1       0.915  10.348  19.028  0.00  0.00    +0.000 A 
ATOM      5  C   UNL     1       1.016   9.605  20.211  0.00  0.00    +0.000 A 
ATOM      6  C   UNL     1       1.700   8.378  20.115  0.00  0.00    +0.000 A 
ENDROOT
BRANCH   1  14
ATOM      7  C   UNL     1       4.110   3.525  17.302  0.00  0.00    +0.000 A 
ATOM      8  C   UNL     1       3.851   2.194  17.668  0.00  0.00    +0.000 A 
ATOM      9  C   UNL     1       2.980   1.887  18.722  0.00  0.00    +0.000 A 
ATOM     10  C   UNL     1       2.338   2.897  19.431  0.00  0.00    +0.000 A 
ATOM     11  C   UNL     1       2.597   4.209  19.069  0.00  0.00    +0.000 A 
ATOM     12  C   UNL     1       3.472   4.526  18.027  0.00  0.00    +0.000 A 
ATOM     13  C   UNL     1       3.543   6.016  17.843  0.00  0.00    +0.000 C 
ATOM     14  N   UNL     1       2.700   6.536  18.927  0.00  0.00    +0.000 N 
ATOM     15  C   UNL     1       2.000   5.448  19.640  0.00  0.00    +0.000 C 
BRANCH   7  17
ATOM     16  C   UNL     1       6.391   4.246  16.575  0.00  0.00    +0.000 C 
ATOM     17  C   UNL     1       4.993   3.846  16.128  0.00  0.00    +0.000 C 
ENDBRANCH   7  17
ENDBRANCH   1  14
BRANCH   5  18
ATOM     18  C   UNL     1       0.366  10.033  21.605  0.00  0.00    +0.000 C 
ATOM     19  C   UNL     1       1.153   9.570  22.874  0.00  0.00    +0.000 C 
ATOM     20  O   UNL     1      -0.081   9.184  23.528  0.00  0.00    +0.000 OA
ATOM     21  C   UNL     1      -0.729   9.120  22.223  0.00  0.00    +0.000 C 
BRANCH  18  22
ATOM     22  C   UNL     1       0.111  11.548  21.676  0.00  0.00    +0.000 C 
BRANCH  22  23
ATOM     23  C   UNL     1      -1.299  11.914  21.982  0.00  0.00    +0.000 A 
ATOM     24  N   UNL     1      -1.824  12.025  23.186  0.00  0.00    +0.000 NA
ATOM     25  N   UNL     1      -3.124  12.451  23.052  0.00  0.00    +0.000 NA
ATOM     26  C   UNL     1      -3.367  12.588  21.771  0.00  0.00    +0.000 A 
ATOM     27  N   UNL     1      -2.260  12.241  21.058  0.00  0.00    +0.000 N 
ATOM     28  C   UNL     1      -2.158  12.245  19.624  0.00  0.00    +0.000 C 
ENDBRANCH  22  23
ENDBRANCH  18  22
ENDBRANCH   5  18
TORSDOF 5
ENDMDL
