MODEL 1
REMARK VINA RESULT:      -8.8      0.000      0.000
REMARK  Name = 
REMARK  9 active torsions:
REMARK  status: ('A' for Active; 'I' for Inactive)
REMARK    1  A    between atoms: C_1  and  N_2
REMARK    2  A    between atoms: C_3  and  C_5
REMARK    3  A    between atoms: C_8  and  N_9
REMARK    4  A    between atoms: C_10  and  C_12
REMARK    5  A    between atoms: C_16  and  S_17
REMARK    6  A    between atoms: S_17  and  N_20
REMARK    7  A    between atoms: N_20  and  C_21
REMARK    8  A    between atoms: N_20  and  C_28
REMARK    9  A    between atoms: C_21  and  C_22
REMARK                            x       y       z     vdW  Elec       q    Type
REMARK                         _______ _______ _______ _____ _____    ______ ____
ROOT
ATOM      1  C   UNL     1       1.411   8.684  19.755  0.00  0.00    +0.000 A 
ATOM      2  C   UNL     1       1.327   7.807  20.846  0.00  0.00    +0.000 A 
ATOM      3  C   UNL     1       0.604   8.170  21.976  0.00  0.00    +0.000 A 
ATOM      4  C   UNL     1       0.007   9.430  22.033  0.00  0.00    +0.000 A 
ATOM      5  C   UNL     1       0.153  10.344  20.972  0.00  0.00    +0.000 A 
ATOM      6  C   UNL     1       0.838   9.965  19.818  0.00  0.00    +0.000 A 
ENDROOT
BRANCH   1   8
ATOM      7  N   UNL     1       2.898   7.057  18.735  0.00  0.00    +0.000 N 
ATOM      8  C   UNL     1       2.177   8.229  18.570  0.00  0.00    +0.000 C 
ATOM      9  O   UNL     1       2.122   8.930  17.567  0.00  0.00    +0.000 OA
ATOM     10  H   UNL     1       2.908   6.634  19.655  0.00  0.00    +0.000 HD
BRANCH   7  14
ATOM     11  C   UNL     1       5.319   5.222  15.795  0.00  0.00    +0.000 A 
ATOM     12  C   UNL     1       4.461   4.441  16.572  0.00  0.00    +0.000 A 
ATOM     13  C   UNL     1       3.645   5.036  17.534  0.00  0.00    +0.000 A 
ATOM     14  C   UNL     1       3.679   6.415  17.751  0.00  0.00    +0.000 A 
ATOM     15  C   UNL     1       4.541   7.198  16.970  0.00  0.00    +0.000 A 
ATOM     16  C   UNL     1       5.365   6.603  16.004  0.00  0.00    +0.000 A 
BRANCH  11  19
ATOM     17  C   UNL     1       6.330   3.353  12.667  0.00  0.00    +0.000 C 
ATOM     18  N   UNL     1       5.596   4.083  13.668  0.00  0.00    +0.000 N 
ATOM     19  C   UNL     1       6.218   4.593  14.789  0.00  0.00    +0.000 C 
ATOM     20  O   UNL     1       7.427   4.550  14.979  0.00  0.00    +0.000 OA
ATOM     21  H   UNL     1       4.621   4.273  13.495  0.00  0.00    +0.000 HD
ENDBRANCH  11  19
ENDBRANCH   7  14
ENDBRANCH   1   8
BRANCH   5  22
ATOM     22  S   UNL     1      -0.569  11.966  21.213  0.00  0.00    +0.000 S 
ATOM     23  O   UNL     1      -1.762  11.720  21.997  0.00  0.00    +0.000 OA
ATOM     24  O   UNL     1       0.505  12.787  21.737  0.00  0.00    +0.000 OA
BRANCH  22  25
ATOM     25  N   UNL     1      -1.051  12.596  19.718  0.00  0.00    +0.000 N 
BRANCH  25  26
ATOM     26  C   UNL     1      -2.106  11.947  18.997  0.00  0.00    +0.000 A 
ATOM     27  C   UNL     1      -1.859  10.925  18.078  0.00  0.00    +0.000 A 
ATOM     28  C   UNL     1      -2.923  10.267  17.455  0.00  0.00    +0.000 A 
ATOM     29  C   UNL     1      -4.238  10.625  17.750  0.00  0.00    +0.000 A 
ATOM     30  C   UNL     1      -4.493  11.653  18.665  0.00  0.00    +0.000 A 
ATOM     31  C   UNL     1      -3.427  12.313  19.281  0.00  0.00    +0.000 A 
ENDBRANCH  25  26
BRANCH  25  32
ATOM     32  C   UNL     1      -0.659  13.957  19.310  0.00  0.00    +0.000 C 
BRANCH  32  33
ATOM     33  C   UNL     1       0.752  14.201  18.816  0.00  0.00    +0.000 A 
ATOM     34  C   UNL     1       1.637  13.194  18.413  0.00  0.00    +0.000 A 
ATOM     35  C   UNL     1       2.951  13.507  18.039  0.00  0.00    +0.000 A 
ATOM     36  C   UNL     1       3.398  14.827  18.062  0.00  0.00    +0.000 A 
ATOM     37  C   UNL     1       2.531  15.842  18.449  0.00  0.00    +0.000 A 
ATOM     38  C   UNL     1       1.221  15.530  18.820  0.00  0.00    +0.000 A 
ENDBRANCH  32  33
ENDBRANCH  25  32
ENDBRANCH  22  25
ENDBRANCH   5  22
TORSDOF 8
ENDMDL
MODEL 2
REMARK VINA RESULT:      -8.8      1.893      3.518
REMARK  Name = 
REMARK  9 active torsions:
REMARK  status: ('A' for Active; 'I' for Inactive)
REMARK    1  A    between atoms: C_1  and  N_2
REMARK    2  A    between atoms: C_3  and  C_5
REMARK    3  A    between atoms: C_8  and  N_9
REMARK    4  A    between atoms: C_10  and  C_12
REMARK    5  A    between atoms: C_16  and  S_17
REMARK    6  A    between atoms: S_17  and  N_20
REMARK    7  A    between atoms: N_20  and  C_21
REMARK    8  A    between atoms: N_20  and  C_28
REMARK    9  A    between atoms: C_21  and  C_22
REMARK                            x       y       z     vdW  Elec       q    Type
REMARK                         _______ _______ _______ _____ _____    ______ ____
ROOT
ATOM      1  C   UNL     1       1.183   8.821  20.082  0.00  0.00    +0.000 A 
ATOM      2  C   UNL     1       0.753   7.849  20.996  0.00  0.00    +0.000 A 
ATOM      3  C   UNL     1      -0.043   8.213  22.075  0.00  0.00    +0.000 A 
ATOM      4  C   UNL     1      -0.368   9.557  22.266  0.00  0.00    +0.000 A 
ATOM      5  C   UNL     1       0.125  10.547  21.395  0.00  0.00    +0.000 A 
ATOM      6  C   UNL     1       0.884  10.178  20.285  0.00  0.00    +0.000 A 
ENDROOT
BRANCH   1   8
ATOM      7  N   UNL     1       2.688   7.172  19.126  0.00  0.00    +0.000 N 
ATOM      8  C   UNL     1       2.009   8.365  18.938  0.00  0.00    +0.000 C 
ATOM      9  O   UNL     1       2.036   9.084  17.947  0.00  0.00    +0.000 OA
ATOM     10  H   UNL     1       2.630   6.734  20.037  0.00  0.00    +0.000 HD
BRANCH   7  14
ATOM     11  C   UNL     1       5.076   5.152  16.281  0.00  0.00    +0.000 A 
ATOM     12  C   UNL     1       5.225   6.529  16.459  0.00  0.00    +0.000 A 
ATOM     13  C   UNL     1       4.455   7.204  17.405  0.00  0.00    +0.000 A 
ATOM     14  C   UNL     1       3.513   6.526  18.181  0.00  0.00    +0.000 A 
ATOM     15  C   UNL     1       3.364   5.144  18.002  0.00  0.00    +0.000 A 
ATOM     16  C   UNL     1       4.134   4.461  17.050  0.00  0.00    +0.000 A 
BRANCH  11  19
ATOM     17  C   UNL     1       5.880   3.535  12.959  0.00  0.00    +0.000 C 
ATOM     18  N   UNL     1       5.272   4.304  14.013  0.00  0.00    +0.000 N 
ATOM     19  C   UNL     1       5.869   4.428  15.251  0.00  0.00    +0.000 C 
ATOM     20  O   UNL     1       6.978   3.984  15.523  0.00  0.00    +0.000 OA
ATOM     21  H   UNL     1       4.426   4.811  13.803  0.00  0.00    +0.000 HD
ENDBRANCH  11  19
ENDBRANCH   7  14
ENDBRANCH   1   8
BRANCH   5  22
ATOM     22  S   UNL     1      -0.274  12.243  21.810  0.00  0.00    +0.000 S 
ATOM     23  O   UNL     1      -0.642  12.197  23.210  0.00  0.00    +0.000 OA
ATOM     24  O   UNL     1       0.868  13.021  21.370  0.00  0.00    +0.000 OA
BRANCH  22  25
ATOM     25  N   UNL     1      -1.633  12.734  20.930  0.00  0.00    +0.000 N 
BRANCH  25  26
ATOM     26  C   UNL     1      -2.729  13.345  21.624  0.00  0.00    +0.000 A 
ATOM     27  C   UNL     1      -3.858  12.621  22.013  0.00  0.00    +0.000 A 
ATOM     28  C   UNL     1      -4.867  13.238  22.756  0.00  0.00    +0.000 A 
ATOM     29  C   UNL     1      -4.751  14.580  23.116  0.00  0.00    +0.000 A 
ATOM     30  C   UNL     1      -3.626  15.314  22.724  0.00  0.00    +0.000 A 
ATOM     31  C   UNL     1      -2.622  14.695  21.976  0.00  0.00    +0.000 A 
ENDBRANCH  25  26
BRANCH  25  32
ATOM     32  C   UNL     1      -1.579  12.860  19.462  0.00  0.00    +0.000 C 
BRANCH  32  33
ATOM     33  C   UNL     1      -2.129  11.739  18.605  0.00  0.00    +0.000 A 
ATOM     34  C   UNL     1      -1.342  10.808  17.917  0.00  0.00    +0.000 A 
ATOM     35  C   UNL     1      -1.937   9.848  17.087  0.00  0.00    +0.000 A 
ATOM     36  C   UNL     1      -3.322   9.804  16.934  0.00  0.00    +0.000 A 
ATOM     37  C   UNL     1      -4.120  10.713  17.618  0.00  0.00    +0.000 A 
ATOM     38  C   UNL     1      -3.528  11.669  18.446  0.00  0.00    +0.000 A 
ENDBRANCH  32  33
ENDBRANCH  25  32
ENDBRANCH  22  25
ENDBRANCH   5  22
TORSDOF 8
ENDMDL
MODEL 3
REMARK VINA RESULT:      -8.7      5.618      9.767
REMARK  Name = 
REMARK  9 active torsions:
REMARK  status: ('A' for Active; 'I' for Inactive)
REMARK    1  A    between atoms: C_1  and  N_2
REMARK    2  A    between atoms: C_3  and  C_5
REMARK    3  A    between atoms: C_8  and  N_9
REMARK    4  A    between atoms: C_10  and  C_12
REMARK    5  A    between atoms: C_16  and  S_17
REMARK    6  A    between atoms: S_17  and  N_20
REMARK    7  A    between atoms: N_20  and  C_21
REMARK    8  A    between atoms: N_20  and  C_28
REMARK    9  A    between atoms: C_21  and  C_22
REMARK                            x       y       z     vdW  Elec       q    Type
REMARK                         _______ _______ _______ _____ _____    ______ ____
ROOT
ATOM      1  C   UNL     1       7.716   7.487  18.195  0.00  0.00    +0.000 A 
ATOM      2  C   UNL     1       8.349   6.633  19.109  0.00  0.00    +0.000 A 
ATOM      3  C   UNL     1       7.961   5.301  19.199  0.00  0.00    +0.000 A 
ATOM      4  C   UNL     1       6.908   4.838  18.408  0.00  0.00    +0.000 A 
ATOM      5  C   UNL     1       6.219   5.711  17.544  0.00  0.00    +0.000 A 
ATOM      6  C   UNL     1       6.637   7.035  17.418  0.00  0.00    +0.000 A 
ENDROOT
BRANCH   1   8
ATOM      7  N   UNL     1       8.956   9.315  19.205  0.00  0.00    +0.000 N 
ATOM      8  C   UNL     1       8.192   8.890  18.130  0.00  0.00    +0.000 C 
ATOM      9  O   UNL     1       7.855   9.549  17.154  0.00  0.00    +0.000 OA
ATOM     10  H   UNL     1       9.081   8.674  19.978  0.00  0.00    +0.000 HD
BRANCH   7  14
ATOM     11  C   UNL     1      10.736  13.108  19.777  0.00  0.00    +0.000 A 
ATOM     12  C   UNL     1      10.614  12.586  18.487  0.00  0.00    +0.000 A 
ATOM     13  C   UNL     1      10.015  11.344  18.283  0.00  0.00    +0.000 A 
ATOM     14  C   UNL     1       9.540  10.591  19.359  0.00  0.00    +0.000 A 
ATOM     15  C   UNL     1       9.661  11.115  20.653  0.00  0.00    +0.000 A 
ATOM     16  C   UNL     1      10.266  12.362  20.863  0.00  0.00    +0.000 A 
BRANCH  11  19
ATOM     17  C   UNL     1      11.386  16.498  21.321  0.00  0.00    +0.000 C 
ATOM     18  N   UNL     1      10.906  15.166  21.055  0.00  0.00    +0.000 N 
ATOM     19  C   UNL     1      11.403  14.417  20.008  0.00  0.00    +0.000 C 
ATOM     20  O   UNL     1      12.332  14.773  19.293  0.00  0.00    +0.000 OA
ATOM     21  H   UNL     1      10.241  14.765  21.697  0.00  0.00    +0.000 HD
ENDBRANCH  11  19
ENDBRANCH   7  14
ENDBRANCH   1   8
BRANCH   5  22
ATOM     22  S   UNL     1       4.819   5.020  16.666  0.00  0.00    +0.000 S 
ATOM     23  O   UNL     1       4.662   5.871  15.505  0.00  0.00    +0.000 OA
ATOM     24  O   UNL     1       5.121   3.610  16.515  0.00  0.00    +0.000 OA
BRANCH  22  25
ATOM     25  N   UNL     1       3.427   5.176  17.616  0.00  0.00    +0.000 N 
BRANCH  25  26
ATOM     26  C   UNL     1       2.991   6.486  18.004  0.00  0.00    +0.000 A 
ATOM     27  C   UNL     1       2.982   7.559  17.111  0.00  0.00    +0.000 A 
ATOM     28  C   UNL     1       2.475   8.800  17.508  0.00  0.00    +0.000 A 
ATOM     29  C   UNL     1       1.975   8.971  18.798  0.00  0.00    +0.000 A 
ATOM     30  C   UNL     1       1.989   7.902  19.701  0.00  0.00    +0.000 A 
ATOM     31  C   UNL     1       2.501   6.665  19.302  0.00  0.00    +0.000 A 
ENDBRANCH  25  26
BRANCH  25  32
ATOM     32  C   UNL     1       2.483   4.053  17.764  0.00  0.00    +0.000 C 
BRANCH  32  33
ATOM     33  C   UNL     1       2.267   3.447  19.136  0.00  0.00    +0.000 A 
ATOM     34  C   UNL     1       1.029   3.383  19.788  0.00  0.00    +0.000 A 
ATOM     35  C   UNL     1       0.936   2.870  21.088  0.00  0.00    +0.000 A 
ATOM     36  C   UNL     1       2.073   2.414  21.754  0.00  0.00    +0.000 A 
ATOM     37  C   UNL     1       3.307   2.459  21.118  0.00  0.00    +0.000 A 
ATOM     38  C   UNL     1       3.401   2.969  19.821  0.00  0.00    +0.000 A 
ENDBRANCH  32  33
ENDBRANCH  25  32
ENDBRANCH  22  25
ENDBRANCH   5  22
TORSDOF 8
ENDMDL
MODEL 4
REMARK VINA RESULT:      -8.6      2.035      3.627
REMARK  Name = 
REMARK  9 active torsions:
REMARK  status: ('A' for Active; 'I' for Inactive)
REMARK    1  A    between atoms: C_1  and  N_2
REMARK    2  A    between atoms: C_3  and  C_5
REMARK    3  A    between atoms: C_8  and  N_9
REMARK    4  A    between atoms: C_10  and  C_12
REMARK    5  A    between atoms: C_16  and  S_17
REMARK    6  A    between atoms: S_17  and  N_20
REMARK    7  A    between atoms: N_20  and  C_21
REMARK    8  A    between atoms: N_20  and  C_28
REMARK    9  A    between atoms: C_21  and  C_22
REMARK                            x       y       z     vdW  Elec       q    Type
REMARK                         _______ _______ _______ _____ _____    ______ ____
ROOT
ATOM      1  C   UNL     1       1.125   9.071  19.986  0.00  0.00    +0.000 A 
ATOM      2  C   UNL     1       0.799   8.198  21.033  0.00  0.00    +0.000 A 
ATOM      3  C   UNL     1       0.100   8.669  22.138  0.00  0.00    +0.000 A 
ATOM      4  C   UNL     1      -0.228  10.023  22.217  0.00  0.00    +0.000 A 
ATOM      5  C   UNL     1       0.164  10.919  21.203  0.00  0.00    +0.000 A 
ATOM      6  C   UNL     1       0.824  10.439  20.072  0.00  0.00    +0.000 A 
ENDROOT
BRANCH   1   8
ATOM      7  N   UNL     1       2.624   7.384  19.088  0.00  0.00    +0.000 N 
ATOM      8  C   UNL     1       1.849   8.502  18.823  0.00  0.00    +0.000 C 
ATOM      9  O   UNL     1       1.717   9.074  17.749  0.00  0.00    +0.000 OA
ATOM     10  H   UNL     1       2.697   7.076  20.050  0.00  0.00    +0.000 HD
BRANCH   7  14
ATOM     11  C   UNL     1       4.979   5.284  16.273  0.00  0.00    +0.000 A 
ATOM     12  C   UNL     1       4.070   4.589  17.072  0.00  0.00    +0.000 A 
ATOM     13  C   UNL     1       3.276   5.271  17.994  0.00  0.00    +0.000 A 
ATOM     14  C   UNL     1       3.382   6.655  18.147  0.00  0.00    +0.000 A 
ATOM     15  C   UNL     1       4.295   7.352  17.343  0.00  0.00    +0.000 A 
ATOM     16  C   UNL     1       5.097   6.670  16.418  0.00  0.00    +0.000 A 
BRANCH  11  19
ATOM     17  C   UNL     1       7.437   4.792  13.442  0.00  0.00    +0.000 C 
ATOM     18  N   UNL     1       6.627   5.357  14.490  0.00  0.00    +0.000 N 
ATOM     19  C   UNL     1       5.854   4.561  15.311  0.00  0.00    +0.000 C 
ATOM     20  O   UNL     1       5.860   3.337  15.279  0.00  0.00    +0.000 OA
ATOM     21  H   UNL     1       6.691   6.349  14.656  0.00  0.00    +0.000 HD
ENDBRANCH  11  19
ENDBRANCH   7  14
ENDBRANCH   1   8
BRANCH   5  22
ATOM     22  S   UNL     1      -0.222  12.646  21.474  0.00  0.00    +0.000 S 
ATOM     23  O   UNL     1      -0.126  12.820  22.908  0.00  0.00    +0.000 OA
ATOM     24  O   UNL     1       0.654  13.377  20.579  0.00  0.00    +0.000 OA
BRANCH  22  25
ATOM     25  N   UNL     1      -1.826  12.942  21.021  0.00  0.00    +0.000 N 
BRANCH  25  26
ATOM     26  C   UNL     1      -2.785  13.276  22.033  0.00  0.00    +0.000 A 
ATOM     27  C   UNL     1      -3.195  12.357  23.000  0.00  0.00    +0.000 A 
ATOM     28  C   UNL     1      -4.072  12.748  24.015  0.00  0.00    +0.000 A 
ATOM     29  C   UNL     1      -4.541  14.060  24.069  0.00  0.00    +0.000 A 
ATOM     30  C   UNL     1      -4.140  14.985  23.098  0.00  0.00    +0.000 A 
ATOM     31  C   UNL     1      -3.268  14.589  22.082  0.00  0.00    +0.000 A 
ENDBRANCH  25  26
BRANCH  25  32
ATOM     32  C   UNL     1      -2.179  13.195  19.613  0.00  0.00    +0.000 C 
BRANCH  32  33
ATOM     33  C   UNL     1      -2.596  12.031  18.736  0.00  0.00    +0.000 A 
ATOM     34  C   UNL     1      -3.918  11.608  18.557  0.00  0.00    +0.000 A 
ATOM     35  C   UNL     1      -4.204  10.474  17.784  0.00  0.00    +0.000 A 
ATOM     36  C   UNL     1      -3.177   9.750  17.180  0.00  0.00    +0.000 A 
ATOM     37  C   UNL     1      -1.860  10.163  17.338  0.00  0.00    +0.000 A 
ATOM     38  C   UNL     1      -1.574  11.293  18.107  0.00  0.00    +0.000 A 
ENDBRANCH  32  33
ENDBRANCH  25  32
ENDBRANCH  22  25
ENDBRANCH   5  22
TORSDOF 8
ENDMDL
MODEL 5
REMARK VINA RESULT:      -8.6      2.088      3.664
REMARK  Name = 
REMARK  9 active torsions:
REMARK  status: ('A' for Active; 'I' for Inactive)
REMARK    1  A    between atoms: C_1  and  N_2
REMARK    2  A    between atoms: C_3  and  C_5
REMARK    3  A    between atoms: C_8  and  N_9
REMARK    4  A    between atoms: C_10  and  C_12
REMARK    5  A    between atoms: C_16  and  S_17
REMARK    6  A    between atoms: S_17  and  N_20
REMARK    7  A    between atoms: N_20  and  C_21
REMARK    8  A    between atoms: N_20  and  C_28
REMARK    9  A    between atoms: C_21  and  C_22
REMARK                            x       y       z     vdW  Elec       q    Type
REMARK                         _______ _______ _______ _____ _____    ______ ____
ROOT
ATOM      1  C   UNL     1       0.876   9.144  20.476  0.00  0.00    +0.000 A 
ATOM      2  C   UNL     1       0.517   8.266  21.509  0.00  0.00    +0.000 A 
ATOM      3  C   UNL     1      -0.235   8.727  22.582  0.00  0.00    +0.000 A 
ATOM      4  C   UNL     1      -0.586  10.077  22.645  0.00  0.00    +0.000 A 
ATOM      5  C   UNL     1      -0.163  10.977  21.649  0.00  0.00    +0.000 A 
ATOM      6  C   UNL     1       0.552  10.508  20.548  0.00  0.00    +0.000 A 
ENDROOT
BRANCH   1   8
ATOM      7  N   UNL     1       2.299   7.382  19.597  0.00  0.00    +0.000 N 
ATOM      8  C   UNL     1       1.658   8.585  19.346  0.00  0.00    +0.000 C 
ATOM      9  O   UNL     1       1.687   9.238  18.310  0.00  0.00    +0.000 OA
ATOM     10  H   UNL     1       2.246   7.005  20.535  0.00  0.00    +0.000 HD
BRANCH   7  14
ATOM     11  C   UNL     1       4.549   5.091  16.846  0.00  0.00    +0.000 A 
ATOM     12  C   UNL     1       4.671   6.482  16.853  0.00  0.00    +0.000 A 
ATOM     13  C   UNL     1       3.946   7.248  17.765  0.00  0.00    +0.000 A 
ATOM     14  C   UNL     1       3.077   6.647  18.678  0.00  0.00    +0.000 A 
ATOM     15  C   UNL     1       2.956   5.250  18.671  0.00  0.00    +0.000 A 
ATOM     16  C   UNL     1       3.680   4.476  17.753  0.00  0.00    +0.000 A 
BRANCH  11  19
ATOM     17  C   UNL     1       6.360   4.238  13.638  0.00  0.00    +0.000 C 
ATOM     18  N   UNL     1       5.724   4.935  14.726  0.00  0.00    +0.000 N 
ATOM     19  C   UNL     1       5.293   4.268  15.855  0.00  0.00    +0.000 C 
ATOM     20  O   UNL     1       5.490   3.077  16.062  0.00  0.00    +0.000 OA
ATOM     21  H   UNL     1       5.662   5.939  14.674  0.00  0.00    +0.000 HD
ENDBRANCH  11  19
ENDBRANCH   7  14
ENDBRANCH   1   8
BRANCH   5  22
ATOM     22  S   UNL     1      -0.585  12.699  21.902  0.00  0.00    +0.000 S 
ATOM     23  O   UNL     1      -0.901  12.793  23.312  0.00  0.00    +0.000 OA
ATOM     24  O   UNL     1       0.521  13.450  21.339  0.00  0.00    +0.000 OA
BRANCH  22  25
ATOM     25  N   UNL     1      -1.988  13.069  21.029  0.00  0.00    +0.000 N 
BRANCH  25  26
ATOM     26  C   UNL     1      -3.117  13.615  21.725  0.00  0.00    +0.000 A 
ATOM     27  C   UNL     1      -3.256  14.985  21.954  0.00  0.00    +0.000 A 
ATOM     28  C   UNL     1      -4.409  15.482  22.566  0.00  0.00    +0.000 A 
ATOM     29  C   UNL     1      -5.429  14.612  22.950  0.00  0.00    +0.000 A 
ATOM     30  C   UNL     1      -5.293  13.237  22.731  0.00  0.00    +0.000 A 
ATOM     31  C   UNL     1      -4.136  12.743  22.124  0.00  0.00    +0.000 A 
ENDBRANCH  25  26
BRANCH  25  32
ATOM     32  C   UNL     1      -1.960  13.163  19.559  0.00  0.00    +0.000 C 
BRANCH  32  33
ATOM     33  C   UNL     1      -2.336  11.948  18.735  0.00  0.00    +0.000 A 
ATOM     34  C   UNL     1      -1.417  11.113  18.088  0.00  0.00    +0.000 A 
ATOM     35  C   UNL     1      -1.860  10.053  17.286  0.00  0.00    +0.000 A 
ATOM     36  C   UNL     1      -3.223   9.812  17.119  0.00  0.00    +0.000 A 
ATOM     37  C   UNL     1      -4.150  10.623  17.762  0.00  0.00    +0.000 A 
ATOM     38  C   UNL     1      -3.709  11.679  18.563  0.00  0.00    +0.000 A 
ENDBRANCH  32  33
ENDBRANCH  25  32
ENDBRANCH  22  25
ENDBRANCH   5  22
TORSDOF 8
ENDMDL
MODEL 6
REMARK VINA RESULT:      -8.6      0.749      1.080
REMARK  Name = 
REMARK  9 active torsions:
REMARK  status: ('A' for Active; 'I' for Inactive)
REMARK    1  A    between atoms: C_1  and  N_2
REMARK    2  A    between atoms: C_3  and  C_5
REMARK    3  A    between atoms: C_8  and  N_9
REMARK    4  A    between atoms: C_10  and  C_12
REMARK    5  A    between atoms: C_16  and  S_17
REMARK    6  A    between atoms: S_17  and  N_20
REMARK    7  A    between atoms: N_20  and  C_21
REMARK    8  A    between atoms: N_20  and  C_28
REMARK    9  A    between atoms: C_21  and  C_22
REMARK                            x       y       z     vdW  Elec       q    Type
REMARK                         _______ _______ _______ _____ _____    ______ ____
ROOT
ATOM      1  C   UNL     1       1.061   8.935  20.066  0.00  0.00    +0.000 A 
ATOM      2  C   UNL     1       0.896   8.087  21.171  0.00  0.00    +0.000 A 
ATOM      3  C   UNL     1       0.168   8.517  22.273  0.00  0.00    +0.000 A 
ATOM      4  C   UNL     1      -0.354   9.811  22.290  0.00  0.00    +0.000 A 
ATOM      5  C   UNL     1      -0.127  10.692  21.215  0.00  0.00    +0.000 A 
ATOM      6  C   UNL     1       0.564  10.248  20.088  0.00  0.00    +0.000 A 
ENDROOT
BRANCH   1   8
ATOM      7  N   UNL     1       2.553   7.252  19.149  0.00  0.00    +0.000 N 
ATOM      8  C   UNL     1       1.828   8.409  18.911  0.00  0.00    +0.000 C 
ATOM      9  O   UNL     1       1.772   9.046  17.866  0.00  0.00    +0.000 OA
ATOM     10  H   UNL     1       2.565   6.887  20.092  0.00  0.00    +0.000 HD
BRANCH   7  14
ATOM     11  C   UNL     1       4.987   5.240  16.337  0.00  0.00    +0.000 A 
ATOM     12  C   UNL     1       4.036   4.525  17.067  0.00  0.00    +0.000 A 
ATOM     13  C   UNL     1       3.216   5.180  17.986  0.00  0.00    +0.000 A 
ATOM     14  C   UNL     1       3.337   6.553  18.206  0.00  0.00    +0.000 A 
ATOM     15  C   UNL     1       4.292   7.270  17.471  0.00  0.00    +0.000 A 
ATOM     16  C   UNL     1       5.120   6.616  16.549  0.00  0.00    +0.000 A 
BRANCH  11  19
ATOM     17  C   UNL     1       7.363   4.811  13.426  0.00  0.00    +0.000 C 
ATOM     18  N   UNL     1       6.545   5.359  14.477  0.00  0.00    +0.000 N 
ATOM     19  C   UNL     1       5.889   4.546  15.378  0.00  0.00    +0.000 C 
ATOM     20  O   UNL     1       6.015   3.328  15.418  0.00  0.00    +0.000 OA
ATOM     21  H   UNL     1       6.517   6.362  14.581  0.00  0.00    +0.000 HD
ENDBRANCH  11  19
ENDBRANCH   7  14
ENDBRANCH   1   8
BRANCH   5  22
ATOM     22  S   UNL     1      -0.756  12.358  21.405  0.00  0.00    +0.000 S 
ATOM     23  O   UNL     1      -1.985  12.200  22.154  0.00  0.00    +0.000 OA
ATOM     24  O   UNL     1       0.349  13.123  21.949  0.00  0.00    +0.000 OA
BRANCH  22  25
ATOM     25  N   UNL     1      -1.151  12.987  19.884  0.00  0.00    +0.000 N 
BRANCH  25  26
ATOM     26  C   UNL     1      -2.177  12.349  19.113  0.00  0.00    +0.000 A 
ATOM     27  C   UNL     1      -3.518  12.361  19.505  0.00  0.00    +0.000 A 
ATOM     28  C   UNL     1      -4.496  11.794  18.684  0.00  0.00    +0.000 A 
ATOM     29  C   UNL     1      -4.139  11.215  17.466  0.00  0.00    +0.000 A 
ATOM     30  C   UNL     1      -2.797  11.192  17.070  0.00  0.00    +0.000 A 
ATOM     31  C   UNL     1      -1.821  11.754  17.897  0.00  0.00    +0.000 A 
ENDBRANCH  25  26
BRANCH  25  32
ATOM     32  C   UNL     1      -0.721  14.341  19.490  0.00  0.00    +0.000 C 
BRANCH  32  33
ATOM     33  C   UNL     1       0.664  14.533  18.907  0.00  0.00    +0.000 A 
ATOM     34  C   UNL     1       1.523  13.489  18.541  0.00  0.00    +0.000 A 
ATOM     35  C   UNL     1       2.817  13.761  18.077  0.00  0.00    +0.000 A 
ATOM     36  C   UNL     1       3.270  15.075  17.970  0.00  0.00    +0.000 A 
ATOM     37  C   UNL     1       2.428  16.124  18.317  0.00  0.00    +0.000 A 
ATOM     38  C   UNL     1       1.138  15.854  18.779  0.00  0.00    +0.000 A 
ENDBRANCH  32  33
ENDBRANCH  25  32
ENDBRANCH  22  25
ENDBRANCH   5  22
TORSDOF 8
ENDMDL
MODEL 7
REMARK VINA RESULT:      -8.5      0.661      1.039
REMARK  Name = 
REMARK  9 active torsions:
REMARK  status: ('A' for Active; 'I' for Inactive)
REMARK    1  A    between atoms: C_1  and  N_2
REMARK    2  A    between atoms: C_3  and  C_5
REMARK    3  A    between atoms: C_8  and  N_9
REMARK    4  A    between atoms: C_10  and  C_12
REMARK    5  A    between atoms: C_16  and  S_17
REMARK    6  A    between atoms: S_17  and  N_20
REMARK    7  A    between atoms: N_20  and  C_21
REMARK    8  A    between atoms: N_20  and  C_28
REMARK    9  A    between atoms: C_21  and  C_22
REMARK                            x       y       z     vdW  Elec       q    Type
REMARK                         _______ _______ _______ _____ _____    ______ ____
ROOT
ATOM      1  C   UNL     1       1.291   8.822  19.825  0.00  0.00    +0.000 A 
ATOM      2  C   UNL     1       1.197   7.962  20.929  0.00  0.00    +0.000 A 
ATOM      3  C   UNL     1       0.479   8.351  22.053  0.00  0.00    +0.000 A 
ATOM      4  C   UNL     1      -0.104   9.618  22.092  0.00  0.00    +0.000 A 
ATOM      5  C   UNL     1       0.052  10.515  21.017  0.00  0.00    +0.000 A 
ATOM      6  C   UNL     1       0.732  10.110  19.869  0.00  0.00    +0.000 A 
ENDROOT
BRANCH   1   8
ATOM      7  N   UNL     1       2.792   7.186  18.842  0.00  0.00    +0.000 N 
ATOM      8  C   UNL     1       2.050   8.340  18.646  0.00  0.00    +0.000 C 
ATOM      9  O   UNL     1       1.973   9.006  17.621  0.00  0.00    +0.000 OA
ATOM     10  H   UNL     1       2.819   6.794  19.775  0.00  0.00    +0.000 HD
BRANCH   7  14
ATOM     11  C   UNL     1       5.214   5.289  15.940  0.00  0.00    +0.000 A 
ATOM     12  C   UNL     1       4.320   4.532  16.700  0.00  0.00    +0.000 A 
ATOM     13  C   UNL     1       3.504   5.147  17.649  0.00  0.00    +0.000 A 
ATOM     14  C   UNL     1       3.573   6.524  17.870  0.00  0.00    +0.000 A 
ATOM     15  C   UNL     1       4.470   7.284  17.107  0.00  0.00    +0.000 A 
ATOM     16  C   UNL     1       5.294   6.669  16.154  0.00  0.00    +0.000 A 
BRANCH  11  19
ATOM     17  C   UNL     1       7.828   4.999  13.223  0.00  0.00    +0.000 C 
ATOM     18  N   UNL     1       6.980   5.479  14.284  0.00  0.00    +0.000 N 
ATOM     19  C   UNL     1       6.112   4.637  14.949  0.00  0.00    +0.000 C 
ATOM     20  O   UNL     1       6.054   3.428  14.763  0.00  0.00    +0.000 OA
ATOM     21  H   UNL     1       7.086   6.437  14.578  0.00  0.00    +0.000 HD
ENDBRANCH  11  19
ENDBRANCH   7  14
ENDBRANCH   1   8
BRANCH   5  22
ATOM     22  S   UNL     1      -0.651  12.148  21.234  0.00  0.00    +0.000 S 
ATOM     23  O   UNL     1      -1.897  11.917  21.934  0.00  0.00    +0.000 OA
ATOM     24  O   UNL     1       0.403  12.939  21.839  0.00  0.00    +0.000 OA
BRANCH  22  25
ATOM     25  N   UNL     1      -1.020  12.807  19.720  0.00  0.00    +0.000 N 
BRANCH  25  26
ATOM     26  C   UNL     1      -1.942  12.117  18.866  0.00  0.00    +0.000 A 
ATOM     27  C   UNL     1      -1.515  11.340  17.787  0.00  0.00    +0.000 A 
ATOM     28  C   UNL     1      -2.443  10.622  17.028  0.00  0.00    +0.000 A 
ATOM     29  C   UNL     1      -3.800  10.675  17.345  0.00  0.00    +0.000 A 
ATOM     30  C   UNL     1      -4.235  11.458  18.420  0.00  0.00    +0.000 A 
ATOM     31  C   UNL     1      -3.306  12.180  19.173  0.00  0.00    +0.000 A 
ENDBRANCH  25  26
BRANCH  25  32
ATOM     32  C   UNL     1      -0.693  14.210  19.406  0.00  0.00    +0.000 C 
BRANCH  32  33
ATOM     33  C   UNL     1       0.701  14.551  18.918  0.00  0.00    +0.000 A 
ATOM     34  C   UNL     1       1.202  15.852  18.797  0.00  0.00    +0.000 A 
ATOM     35  C   UNL     1       2.480  16.076  18.267  0.00  0.00    +0.000 A 
ATOM     36  C   UNL     1       3.273  15.007  17.852  0.00  0.00    +0.000 A 
ATOM     37  C   UNL     1       2.796  13.708  17.975  0.00  0.00    +0.000 A 
ATOM     38  C   UNL     1       1.523  13.484  18.504  0.00  0.00    +0.000 A 
ENDBRANCH  32  33
ENDBRANCH  25  32
ENDBRANCH  22  25
ENDBRANCH   5  22
TORSDOF 8
ENDMDL
MODEL 8
REMARK VINA RESULT:      -8.5      3.201     10.504
REMARK  Name = 
REMARK  9 active torsions:
REMARK  status: ('A' for Active; 'I' for Inactive)
REMARK    1  A    between atoms: C_1  and  N_2
REMARK    2  A    between atoms: C_3  and  C_5
REMARK    3  A    between atoms: C_8  and  N_9
REMARK    4  A    between atoms: C_10  and  C_12
REMARK    5  A    between atoms: C_16  and  S_17
REMARK    6  A    between atoms: S_17  and  N_20
REMARK    7  A    between atoms: N_20  and  C_21
REMARK    8  A    between atoms: N_20  and  C_28
REMARK    9  A    between atoms: C_21  and  C_22
REMARK                            x       y       z     vdW  Elec       q    Type
REMARK                         _______ _______ _______ _____ _____    ______ ____
ROOT
ATOM      1  C   UNL     1       2.663   7.575  18.748  0.00  0.00    +0.000 A 
ATOM      2  C   UNL     1       2.468   6.690  19.819  0.00  0.00    +0.000 A 
ATOM      3  C   UNL     1       3.368   5.655  20.038  0.00  0.00    +0.000 A 
ATOM      4  C   UNL     1       4.436   5.475  19.157  0.00  0.00    +0.000 A 
ATOM      5  C   UNL     1       4.593   6.314  18.037  0.00  0.00    +0.000 A 
ATOM      6  C   UNL     1       3.718   7.382  17.842  0.00  0.00    +0.000 A 
ENDROOT
BRANCH   1   8
ATOM      7  N   UNL     1       0.933   8.984  19.706  0.00  0.00    +0.000 N 
ATOM      8  C   UNL     1       1.681   8.674  18.582  0.00  0.00    +0.000 C 
ATOM      9  O   UNL     1       1.603   9.191  17.475  0.00  0.00    +0.000 OA
ATOM     10  H   UNL     1       1.055   8.408  20.530  0.00  0.00    +0.000 HD
BRANCH   7  14
ATOM     11  C   UNL     1      -1.912  12.092  20.067  0.00  0.00    +0.000 A 
ATOM     12  C   UNL     1      -1.912  11.280  18.931  0.00  0.00    +0.000 A 
ATOM     13  C   UNL     1      -0.989  10.242  18.807  0.00  0.00    +0.000 A 
ATOM     14  C   UNL     1      -0.042  10.001  19.803  0.00  0.00    +0.000 A 
ATOM     15  C   UNL     1      -0.042  10.815  20.944  0.00  0.00    +0.000 A 
ATOM     16  C   UNL     1      -0.966  11.862  21.071  0.00  0.00    +0.000 A 
BRANCH  11  19
ATOM     17  C   UNL     1      -3.135  15.600  20.768  0.00  0.00    +0.000 C 
ATOM     18  N   UNL     1      -2.315  14.446  20.509  0.00  0.00    +0.000 N 
ATOM     19  C   UNL     1      -2.870  13.223  20.194  0.00  0.00    +0.000 C 
ATOM     20  O   UNL     1      -4.069  13.040  20.022  0.00  0.00    +0.000 OA
ATOM     21  H   UNL     1      -1.314  14.569  20.497  0.00  0.00    +0.000 HD
ENDBRANCH  11  19
ENDBRANCH   7  14
ENDBRANCH   1   8
BRANCH   5  22
ATOM     22  S   UNL     1       5.938   5.912  16.925  0.00  0.00    +0.000 S 
ATOM     23  O   UNL     1       5.959   7.002  15.971  0.00  0.00    +0.000 OA
ATOM     24  O   UNL     1       7.079   5.657  17.783  0.00  0.00    +0.000 OA
BRANCH  22  25
ATOM     25  N   UNL     1       5.568   4.492  16.083  0.00  0.00    +0.000 N 
BRANCH  25  26
ATOM     26  C   UNL     1       5.938   4.384  14.702  0.00  0.00    +0.000 A 
ATOM     27  C   UNL     1       7.171   4.835  14.227  0.00  0.00    +0.000 A 
ATOM     28  C   UNL     1       7.523   4.640  12.888  0.00  0.00    +0.000 A 
ATOM     29  C   UNL     1       6.644   3.992  12.020  0.00  0.00    +0.000 A 
ATOM     30  C   UNL     1       5.403   3.545  12.488  0.00  0.00    +0.000 A 
ATOM     31  C   UNL     1       5.053   3.747  13.825  0.00  0.00    +0.000 A 
ENDBRANCH  25  26
BRANCH  25  32
ATOM     32  C   UNL     1       5.193   3.262  16.803  0.00  0.00    +0.000 C 
BRANCH  32  33
ATOM     33  C   UNL     1       3.778   3.115  17.325  0.00  0.00    +0.000 A 
ATOM     34  C   UNL     1       2.688   3.874  16.885  0.00  0.00    +0.000 A 
ATOM     35  C   UNL     1       1.427   3.721  17.477  0.00  0.00    +0.000 A 
ATOM     36  C   UNL     1       1.238   2.808  18.514  0.00  0.00    +0.000 A 
ATOM     37  C   UNL     1       2.306   2.037  18.957  0.00  0.00    +0.000 A 
ATOM     38  C   UNL     1       3.562   2.189  18.366  0.00  0.00    +0.000 A 
ENDBRANCH  32  33
ENDBRANCH  25  32
ENDBRANCH  22  25
ENDBRANCH   5  22
TORSDOF 8
ENDMDL
MODEL 9
REMARK VINA RESULT:      -8.4      2.166      3.655
REMARK  Name = 
REMARK  9 active torsions:
REMARK  status: ('A' for Active; 'I' for Inactive)
REMARK    1  A    between atoms: C_1  and  N_2
REMARK    2  A    between atoms: C_3  and  C_5
REMARK    3  A    between atoms: C_8  and  N_9
REMARK    4  A    between atoms: C_10  and  C_12
REMARK    5  A    between atoms: C_16  and  S_17
REMARK    6  A    between atoms: S_17  and  N_20
REMARK    7  A    between atoms: N_20  and  C_21
REMARK    8  A    between atoms: N_20  and  C_28
REMARK    9  A    between atoms: C_21  and  C_22
REMARK                            x       y       z     vdW  Elec       q    Type
REMARK                         _______ _______ _______ _____ _____    ______ ____
ROOT
ATOM      1  C   UNL     1       0.826   9.357  20.729  0.00  0.00    +0.000 A 
ATOM      2  C   UNL     1       0.634   8.536  21.850  0.00  0.00    +0.000 A 
ATOM      3  C   UNL     1      -0.060   9.018  22.953  0.00  0.00    +0.000 A 
ATOM      4  C   UNL     1      -0.519  10.336  22.954  0.00  0.00    +0.000 A 
ATOM      5  C   UNL     1      -0.262  11.187  21.862  0.00  0.00    +0.000 A 
ATOM      6  C   UNL     1       0.393  10.692  20.735  0.00  0.00    +0.000 A 
ENDROOT
BRANCH   1   8
ATOM      7  N   UNL     1       2.249   7.606  19.831  0.00  0.00    +0.000 N 
ATOM      8  C   UNL     1       1.554   8.777  19.574  0.00  0.00    +0.000 C 
ATOM      9  O   UNL     1       1.494   9.386  18.514  0.00  0.00    +0.000 OA
ATOM     10  H   UNL     1       2.270   7.267  20.784  0.00  0.00    +0.000 HD
BRANCH   7  14
ATOM     11  C   UNL     1       4.545   5.461  17.001  0.00  0.00    +0.000 A 
ATOM     12  C   UNL     1       3.889   4.775  18.025  0.00  0.00    +0.000 A 
ATOM     13  C   UNL     1       3.116   5.469  18.956  0.00  0.00    +0.000 A 
ATOM     14  C   UNL     1       2.993   6.858  18.893  0.00  0.00    +0.000 A 
ATOM     15  C   UNL     1       3.651   7.546  17.864  0.00  0.00    +0.000 A 
ATOM     16  C   UNL     1       4.432   6.852  16.929  0.00  0.00    +0.000 A 
BRANCH  11  19
ATOM     17  C   UNL     1       6.887   4.950  14.076  0.00  0.00    +0.000 C 
ATOM     18  N   UNL     1       6.107   5.524  15.142  0.00  0.00    +0.000 N 
ATOM     19  C   UNL     1       5.399   4.733  16.023  0.00  0.00    +0.000 C 
ATOM     20  O   UNL     1       5.444   3.509  16.032  0.00  0.00    +0.000 OA
ATOM     21  H   UNL     1       6.145   6.523  15.272  0.00  0.00    +0.000 HD
ENDBRANCH  11  19
ENDBRANCH   7  14
ENDBRANCH   1   8
BRANCH   5  22
ATOM     22  S   UNL     1      -0.809  12.885  22.031  0.00  0.00    +0.000 S 
ATOM     23  O   UNL     1      -1.231  12.995  23.412  0.00  0.00    +0.000 OA
ATOM     24  O   UNL     1       0.286  13.690  21.525  0.00  0.00    +0.000 OA
BRANCH  22  25
ATOM     25  N   UNL     1      -2.165  13.139  21.052  0.00  0.00    +0.000 N 
BRANCH  25  26
ATOM     26  C   UNL     1      -3.382  13.599  21.654  0.00  0.00    +0.000 A 
ATOM     27  C   UNL     1      -3.672  14.957  21.800  0.00  0.00    +0.000 A 
ATOM     28  C   UNL     1      -4.905  15.361  22.321  0.00  0.00    +0.000 A 
ATOM     29  C   UNL     1      -5.852  14.409  22.697  0.00  0.00    +0.000 A 
ATOM     30  C   UNL     1      -5.566  13.046  22.560  0.00  0.00    +0.000 A 
ATOM     31  C   UNL     1      -4.331  12.646  22.045  0.00  0.00    +0.000 A 
ENDBRANCH  25  26
BRANCH  25  32
ATOM     32  C   UNL     1      -2.033  13.230  19.586  0.00  0.00    +0.000 C 
BRANCH  32  33
ATOM     33  C   UNL     1      -2.506  12.072  18.731  0.00  0.00    +0.000 A 
ATOM     34  C   UNL     1      -3.848  11.718  18.547  0.00  0.00    +0.000 A 
ATOM     35  C   UNL     1      -4.189  10.585  17.796  0.00  0.00    +0.000 A 
ATOM     36  C   UNL     1      -3.198   9.793  17.218  0.00  0.00    +0.000 A 
ATOM     37  C   UNL     1      -1.861  10.135  17.380  0.00  0.00    +0.000 A 
ATOM     38  C   UNL     1      -1.520  11.265  18.128  0.00  0.00    +0.000 A 
ENDBRANCH  32  33
ENDBRANCH  25  32
ENDBRANCH  22  25
ENDBRANCH   5  22
TORSDOF 8
ENDMDL
