MODEL 1
REMARK VINA RESULT:      -8.9      0.000      0.000
REMARK  Name = 
REMARK  5 active torsions:
REMARK  status: ('A' for Active; 'I' for Inactive)
REMARK    1  A    between atoms: C_2  and  C_3
REMARK    2  A    between atoms: C_3  and  C_4
REMARK    3  A    between atoms: N_15  and  C_16
REMARK    4  A    between atoms: C_19  and  S_20
REMARK    5  A    between atoms: S_20  and  N_23
REMARK                            x       y       z     vdW  Elec       q    Type
REMARK                         _______ _______ _______ _____ _____    ______ ____
ROOT
ATOM      1  O   UNL     1       7.492   8.770  17.396  0.00  0.00    +0.000 OA
ATOM      2  C   UNL     1       8.150   8.250  18.301  0.00  0.00    +0.000 C 
ATOM      3  N   UNL     1       9.044   8.920  19.137  0.00  0.00    +0.000 N 
ATOM      4  H   UNL     1       9.610   8.363  19.773  0.00  0.00    +0.000 HD
ENDROOT
BRANCH   3   5
ATOM      5  C   UNL     1       9.308  10.313  19.069  0.00  0.00    +0.000 A 
ATOM      6  C   UNL     1       9.182  11.128  20.190  0.00  0.00    +0.000 A 
ATOM      7  C   UNL     1       9.306  12.512  20.123  0.00  0.00    +0.000 A 
ATOM      8  C   UNL     1       9.780  13.101  18.960  0.00  0.00    +0.000 A 
ATOM      9  C   UNL     1       9.951  12.319  17.808  0.00  0.00    +0.000 A 
ATOM     10  C   UNL     1       9.702  10.925  17.858  0.00  0.00    +0.000 A 
BRANCH   8  11
ATOM     11  S   UNL     1      10.126  14.854  19.004  0.00  0.00    +0.000 S 
ATOM     12  O   UNL     1      10.557  15.168  20.346  0.00  0.00    +0.000 OA
ATOM     13  O   UNL     1      10.968  15.154  17.866  0.00  0.00    +0.000 OA
BRANCH  11  14
ATOM     14  N   UNL     1       8.631  15.616  18.743  0.00  0.00    +0.000 NA
ATOM     15  C   UNL     1       7.912  16.219  19.874  0.00  0.00    +0.000 C 
ATOM     16  C   UNL     1       6.806  15.222  20.157  0.00  0.00    +0.000 C 
ATOM     17  C   UNL     1       6.393  14.750  18.770  0.00  0.00    +0.000 C 
ATOM     18  C   UNL     1       7.612  14.989  17.871  0.00  0.00    +0.000 C 
ENDBRANCH  11  14
ENDBRANCH   8  11
ENDBRANCH   3   5
BRANCH   2  19
ATOM     19  C   UNL     1       7.942   6.770  18.544  0.00  0.00    +0.000 C 
BRANCH  19  20
ATOM     20  C   UNL     1       7.232   6.021  17.455  0.00  0.00    +0.000 A 
ATOM     21  N   UNL     1       7.701   6.189  16.251  0.00  0.00    +0.000 NA
ATOM     22  N   UNL     1       7.075   5.571  15.223  0.00  0.00    +0.000 N 
ATOM     23  C   UNL     1       5.914   4.843  15.300  0.00  0.00    +0.000 A 
ATOM     24  O   UNL     1       5.373   4.370  14.317  0.00  0.00    +0.000 OA
ATOM     25  C   UNL     1       5.360   4.651  16.653  0.00  0.00    +0.000 A 
ATOM     26  C   UNL     1       4.180   3.924  16.823  0.00  0.00    +0.000 A 
ATOM     27  C   UNL     1       3.669   3.726  18.103  0.00  0.00    +0.000 A 
ATOM     28  C   UNL     1       4.349   4.237  19.207  0.00  0.00    +0.000 A 
ATOM     29  C   UNL     1       5.530   4.970  19.037  0.00  0.00    +0.000 A 
ATOM     30  C   UNL     1       6.029   5.196  17.747  0.00  0.00    +0.000 A 
ATOM     31  H   UNL     1       7.485   5.690  14.300  0.00  0.00    +0.000 HD
ENDBRANCH  19  20
ENDBRANCH   2  19
TORSDOF 5
ENDMDL
MODEL 2
REMARK VINA RESULT:      -8.8      0.613      1.170
REMARK  Name = 
REMARK  5 active torsions:
REMARK  status: ('A' for Active; 'I' for Inactive)
REMARK    1  A    between atoms: C_2  and  C_3
REMARK    2  A    between atoms: C_3  and  C_4
REMARK    3  A    between atoms: N_15  and  C_16
REMARK    4  A    between atoms: C_19  and  S_20
REMARK    5  A    between atoms: S_20  and  N_23
REMARK                            x       y       z     vdW  Elec       q    Type
REMARK                         _______ _______ _______ _____ _____    ______ ____
ROOT
ATOM      1  O   UNL     1       7.471   8.659  17.422  0.00  0.00    +0.000 OA
ATOM      2  C   UNL     1       8.128   8.110  18.309  0.00  0.00    +0.000 C 
ATOM      3  N   UNL     1       9.019   8.752  19.169  0.00  0.00    +0.000 N 
ATOM      4  H   UNL     1       9.587   8.175  19.786  0.00  0.00    +0.000 HD
ENDROOT
BRANCH   3   5
ATOM      5  C   UNL     1       9.280  10.148  19.151  0.00  0.00    +0.000 A 
ATOM      6  C   UNL     1       9.579  10.812  17.965  0.00  0.00    +0.000 A 
ATOM      7  C   UNL     1       9.966  12.148  17.936  0.00  0.00    +0.000 A 
ATOM      8  C   UNL     1       9.851  12.919  19.084  0.00  0.00    +0.000 A 
ATOM      9  C   UNL     1       9.524  12.303  20.302  0.00  0.00    +0.000 A 
ATOM     10  C   UNL     1       9.251  10.914  20.339  0.00  0.00    +0.000 A 
BRANCH   8  11
ATOM     11  S   UNL     1      10.152  14.674  18.934  0.00  0.00    +0.000 S 
ATOM     12  O   UNL     1      10.119  15.226  20.267  0.00  0.00    +0.000 OA
ATOM     13  O   UNL     1      11.318  14.840  18.092  0.00  0.00    +0.000 OA
BRANCH  11  14
ATOM     14  N   UNL     1       8.819  15.289  18.080  0.00  0.00    +0.000 NA
ATOM     15  C   UNL     1       8.755  16.722  17.760  0.00  0.00    +0.000 C 
ATOM     16  C   UNL     1       7.748  17.258  18.757  0.00  0.00    +0.000 C 
ATOM     17  C   UNL     1       6.714  16.146  18.846  0.00  0.00    +0.000 C 
ATOM     18  C   UNL     1       7.445  14.864  18.429  0.00  0.00    +0.000 C 
ENDBRANCH  11  14
ENDBRANCH   8  11
ENDBRANCH   3   5
BRANCH   2  19
ATOM     19  C   UNL     1       7.925   6.621  18.500  0.00  0.00    +0.000 C 
BRANCH  19  20
ATOM     20  C   UNL     1       7.210   5.911  17.389  0.00  0.00    +0.000 A 
ATOM     21  N   UNL     1       7.671   6.122  16.189  0.00  0.00    +0.000 NA
ATOM     22  N   UNL     1       7.040   5.541  15.144  0.00  0.00    +0.000 N 
ATOM     23  C   UNL     1       5.881   4.808  15.201  0.00  0.00    +0.000 A 
ATOM     24  O   UNL     1       5.335   4.370  14.205  0.00  0.00    +0.000 OA
ATOM     25  C   UNL     1       5.335   4.567  16.550  0.00  0.00    +0.000 A 
ATOM     26  C   UNL     1       4.157   3.832  16.700  0.00  0.00    +0.000 A 
ATOM     27  C   UNL     1       3.654   3.587  17.976  0.00  0.00    +0.000 A 
ATOM     28  C   UNL     1       4.340   4.060  19.094  0.00  0.00    +0.000 A 
ATOM     29  C   UNL     1       5.519   4.801  18.943  0.00  0.00    +0.000 A 
ATOM     30  C   UNL     1       6.010   5.074  17.659  0.00  0.00    +0.000 A 
ATOM     31  H   UNL     1       7.444   5.693  14.223  0.00  0.00    +0.000 HD
ENDBRANCH  19  20
ENDBRANCH   2  19
TORSDOF 5
ENDMDL
MODEL 3
REMARK VINA RESULT:      -8.8      6.453      7.679
REMARK  Name = 
REMARK  5 active torsions:
REMARK  status: ('A' for Active; 'I' for Inactive)
REMARK    1  A    between atoms: C_2  and  C_3
REMARK    2  A    between atoms: C_3  and  C_4
REMARK    3  A    between atoms: N_15  and  C_16
REMARK    4  A    between atoms: C_19  and  S_20
REMARK    5  A    between atoms: S_20  and  N_23
REMARK                            x       y       z     vdW  Elec       q    Type
REMARK                         _______ _______ _______ _____ _____    ______ ____
ROOT
ATOM      1  O   UNL     1       1.130   4.781  17.988  0.00  0.00    +0.000 OA
ATOM      2  C   UNL     1       2.353   4.921  18.069  0.00  0.00    +0.000 C 
ATOM      3  N   UNL     1       3.010   6.106  18.401  0.00  0.00    +0.000 N 
ATOM      4  H   UNL     1       4.024   6.126  18.326  0.00  0.00    +0.000 HD
ENDROOT
BRANCH   3   5
ATOM      5  C   UNL     1       2.350   7.323  18.714  0.00  0.00    +0.000 A 
ATOM      6  C   UNL     1       2.141   8.302  17.748  0.00  0.00    +0.000 A 
ATOM      7  C   UNL     1       1.617   9.553  18.055  0.00  0.00    +0.000 A 
ATOM      8  C   UNL     1       1.081   9.781  19.314  0.00  0.00    +0.000 A 
ATOM      9  C   UNL     1       1.239   8.814  20.319  0.00  0.00    +0.000 A 
ATOM     10  C   UNL     1       1.886   7.589  20.023  0.00  0.00    +0.000 A 
BRANCH   8  11
ATOM     11  S   UNL     1       0.227  11.328  19.582  0.00  0.00    +0.000 S 
ATOM     12  O   UNL     1       0.257  11.590  21.001  0.00  0.00    +0.000 OA
ATOM     13  O   UNL     1       0.767  12.285  18.640  0.00  0.00    +0.000 OA
BRANCH  11  14
ATOM     14  N   UNL     1      -1.386  11.034  19.138  0.00  0.00    +0.000 NA
ATOM     15  C   UNL     1      -1.755   9.742  18.541  0.00  0.00    +0.000 C 
ATOM     16  C   UNL     1      -1.919  10.071  17.071  0.00  0.00    +0.000 C 
ATOM     17  C   UNL     1      -2.559  11.451  17.087  0.00  0.00    +0.000 C 
ATOM     18  C   UNL     1      -2.171  12.073  18.434  0.00  0.00    +0.000 C 
ENDBRANCH  11  14
ENDBRANCH   8  11
ENDBRANCH   3   5
BRANCH   2  19
ATOM     19  C   UNL     1       3.208   3.696  17.818  0.00  0.00    +0.000 C 
BRANCH  19  20
ATOM     20  C   UNL     1       4.690   3.927  17.794  0.00  0.00    +0.000 A 
ATOM     21  N   UNL     1       5.279   3.964  18.956  0.00  0.00    +0.000 NA
ATOM     22  N   UNL     1       6.608   4.210  18.998  0.00  0.00    +0.000 N 
ATOM     23  C   UNL     1       7.409   4.527  17.929  0.00  0.00    +0.000 A 
ATOM     24  O   UNL     1       8.588   4.800  18.055  0.00  0.00    +0.000 OA
ATOM     25  C   UNL     1       6.759   4.502  16.606  0.00  0.00    +0.000 A 
ATOM     26  C   UNL     1       7.500   4.814  15.463  0.00  0.00    +0.000 A 
ATOM     27  C   UNL     1       6.890   4.770  14.212  0.00  0.00    +0.000 A 
ATOM     28  C   UNL     1       5.551   4.397  14.106  0.00  0.00    +0.000 A 
ATOM     29  C   UNL     1       4.806   4.090  15.252  0.00  0.00    +0.000 A 
ATOM     30  C   UNL     1       5.411   4.162  16.514  0.00  0.00    +0.000 A 
ATOM     31  H   UNL     1       7.047   4.196  19.915  0.00  0.00    +0.000 HD
ENDBRANCH  19  20
ENDBRANCH   2  19
TORSDOF 5
ENDMDL
MODEL 4
REMARK VINA RESULT:      -8.7      6.026      7.090
REMARK  Name = 
REMARK  5 active torsions:
REMARK  status: ('A' for Active; 'I' for Inactive)
REMARK    1  A    between atoms: C_2  and  C_3
REMARK    2  A    between atoms: C_3  and  C_4
REMARK    3  A    between atoms: N_15  and  C_16
REMARK    4  A    between atoms: C_19  and  S_20
REMARK    5  A    between atoms: S_20  and  N_23
REMARK                            x       y       z     vdW  Elec       q    Type
REMARK                         _______ _______ _______ _____ _____    ______ ____
ROOT
ATOM      1  O   UNL     1       1.046   5.078  17.580  0.00  0.00    +0.000 OA
ATOM      2  C   UNL     1       2.239   5.093  17.892  0.00  0.00    +0.000 C 
ATOM      3  N   UNL     1       2.887   6.137  18.553  0.00  0.00    +0.000 N 
ATOM      4  H   UNL     1       3.897   6.081  18.656  0.00  0.00    +0.000 HD
ENDROOT
BRANCH   3   5
ATOM      5  C   UNL     1       2.248   7.332  18.976  0.00  0.00    +0.000 A 
ATOM      6  C   UNL     1       1.871   7.520  20.303  0.00  0.00    +0.000 A 
ATOM      7  C   UNL     1       1.128   8.620  20.718  0.00  0.00    +0.000 A 
ATOM      8  C   UNL     1       0.929   9.680  19.845  0.00  0.00    +0.000 A 
ATOM      9  C   UNL     1       1.316   9.554  18.503  0.00  0.00    +0.000 A 
ATOM     10  C   UNL     1       1.964   8.374  18.063  0.00  0.00    +0.000 A 
BRANCH   8  11
ATOM     11  S   UNL     1       0.160  11.155  20.500  0.00  0.00    +0.000 S 
ATOM     12  O   UNL     1      -1.168  11.227  19.938  0.00  0.00    +0.000 OA
ATOM     13  O   UNL     1       0.358  11.143  21.934  0.00  0.00    +0.000 OA
BRANCH  11  14
ATOM     14  N   UNL     1       1.064  12.450  19.874  0.00  0.00    +0.000 NA
ATOM     15  C   UNL     1       1.492  13.538  20.765  0.00  0.00    +0.000 C 
ATOM     16  C   UNL     1       0.543  14.667  20.419  0.00  0.00    +0.000 C 
ATOM     17  C   UNL     1       0.374  14.536  18.912  0.00  0.00    +0.000 C 
ATOM     18  C   UNL     1       0.689  13.072  18.585  0.00  0.00    +0.000 C 
ENDBRANCH  11  14
ENDBRANCH   8  11
ENDBRANCH   3   5
BRANCH   2  19
ATOM     19  C   UNL     1       3.057   3.863  17.561  0.00  0.00    +0.000 C 
BRANCH  19  20
ATOM     20  C   UNL     1       4.546   4.026  17.644  0.00  0.00    +0.000 A 
ATOM     21  N   UNL     1       5.053   4.020  18.845  0.00  0.00    +0.000 NA
ATOM     22  N   UNL     1       6.385   4.205  18.984  0.00  0.00    +0.000 N 
ATOM     23  C   UNL     1       7.273   4.498  17.979  0.00  0.00    +0.000 A 
ATOM     24  O   UNL     1       8.451   4.716  18.192  0.00  0.00    +0.000 OA
ATOM     25  C   UNL     1       6.717   4.521  16.613  0.00  0.00    +0.000 A 
ATOM     26  C   UNL     1       7.550   4.813  15.531  0.00  0.00    +0.000 A 
ATOM     27  C   UNL     1       7.029   4.813  14.239  0.00  0.00    +0.000 A 
ATOM     28  C   UNL     1       5.686   4.504  14.033  0.00  0.00    +0.000 A 
ATOM     29  C   UNL     1       4.849   4.216  15.119  0.00  0.00    +0.000 A 
ATOM     30  C   UNL     1       5.365   4.244  16.422  0.00  0.00    +0.000 A 
ATOM     31  H   UNL     1       6.758   4.159  19.929  0.00  0.00    +0.000 HD
ENDBRANCH  19  20
ENDBRANCH   2  19
TORSDOF 5
ENDMDL
MODEL 5
REMARK VINA RESULT:      -8.6      5.759      6.998
REMARK  Name = 
REMARK  5 active torsions:
REMARK  status: ('A' for Active; 'I' for Inactive)
REMARK    1  A    between atoms: C_2  and  C_3
REMARK    2  A    between atoms: C_3  and  C_4
REMARK    3  A    between atoms: N_15  and  C_16
REMARK    4  A    between atoms: C_19  and  S_20
REMARK    5  A    between atoms: S_20  and  N_23
REMARK                            x       y       z     vdW  Elec       q    Type
REMARK                         _______ _______ _______ _____ _____    ______ ____
ROOT
ATOM      1  O   UNL     1       1.066   4.948  17.690  0.00  0.00    +0.000 OA
ATOM      2  C   UNL     1       2.257   5.011  18.004  0.00  0.00    +0.000 C 
ATOM      3  N   UNL     1       2.892   6.129  18.547  0.00  0.00    +0.000 N 
ATOM      4  H   UNL     1       3.902   6.095  18.661  0.00  0.00    +0.000 HD
ENDROOT
BRANCH   3   5
ATOM      5  C   UNL     1       2.239   7.357  18.830  0.00  0.00    +0.000 A 
ATOM      6  C   UNL     1       1.994   8.294  17.830  0.00  0.00    +0.000 A 
ATOM      7  C   UNL     1       1.477   9.556  18.101  0.00  0.00    +0.000 A 
ATOM      8  C   UNL     1       0.983   9.836  19.368  0.00  0.00    +0.000 A 
ATOM      9  C   UNL     1       1.178   8.913  20.406  0.00  0.00    +0.000 A 
ATOM     10  C   UNL     1       1.819   7.678  20.142  0.00  0.00    +0.000 A 
BRANCH   8  11
ATOM     11  S   UNL     1       0.134  11.392  19.598  0.00  0.00    +0.000 S 
ATOM     12  O   UNL     1      -0.484  11.728  18.337  0.00  0.00    +0.000 OA
ATOM     13  O   UNL     1      -0.658  11.275  20.803  0.00  0.00    +0.000 OA
BRANCH  11  14
ATOM     14  N   UNL     1       1.356  12.531  19.902  0.00  0.00    +0.000 NA
ATOM     15  C   UNL     1       1.035  13.770  20.626  0.00  0.00    +0.000 C 
ATOM     16  C   UNL     1       1.003  14.816  19.531  0.00  0.00    +0.000 C 
ATOM     17  C   UNL     1       2.135  14.394  18.606  0.00  0.00    +0.000 C 
ATOM     18  C   UNL     1       2.327  12.891  18.844  0.00  0.00    +0.000 C 
ENDBRANCH  11  14
ENDBRANCH   8  11
ENDBRANCH   3   5
BRANCH   2  19
ATOM     19  C   UNL     1       3.089   3.759  17.818  0.00  0.00    +0.000 C 
BRANCH  19  20
ATOM     20  C   UNL     1       4.577   3.955  17.831  0.00  0.00    +0.000 A 
ATOM     21  N   UNL     1       5.139   3.968  19.007  0.00  0.00    +0.000 NA
ATOM     22  N   UNL     1       6.472   4.182  19.082  0.00  0.00    +0.000 N 
ATOM     23  C   UNL     1       7.305   4.488  18.035  0.00  0.00    +0.000 A 
ATOM     24  O   UNL     1       8.487   4.733  18.191  0.00  0.00    +0.000 OA
ATOM     25  C   UNL     1       6.686   4.490  16.696  0.00  0.00    +0.000 A 
ATOM     26  C   UNL     1       7.461   4.793  15.575  0.00  0.00    +0.000 A 
ATOM     27  C   UNL     1       6.881   4.773  14.309  0.00  0.00    +0.000 A 
ATOM     28  C   UNL     1       5.537   4.434  14.168  0.00  0.00    +0.000 A 
ATOM     29  C   UNL     1       4.758   4.135  15.293  0.00  0.00    +0.000 A 
ATOM     30  C   UNL     1       5.333   4.183  16.570  0.00  0.00    +0.000 A 
ATOM     31  H   UNL     1       6.889   4.150  20.009  0.00  0.00    +0.000 HD
ENDBRANCH  19  20
ENDBRANCH   2  19
TORSDOF 5
ENDMDL
MODEL 6
REMARK VINA RESULT:      -8.6      8.908     11.837
REMARK  Name = 
REMARK  5 active torsions:
REMARK  status: ('A' for Active; 'I' for Inactive)
REMARK    1  A    between atoms: C_2  and  C_3
REMARK    2  A    between atoms: C_3  and  C_4
REMARK    3  A    between atoms: N_15  and  C_16
REMARK    4  A    between atoms: C_19  and  S_20
REMARK    5  A    between atoms: S_20  and  N_23
REMARK                            x       y       z     vdW  Elec       q    Type
REMARK                         _______ _______ _______ _____ _____    ______ ____
ROOT
ATOM      1  O   UNL     1      -1.680   9.922  18.233  0.00  0.00    +0.000 OA
ATOM      2  C   UNL     1      -1.000  10.872  18.627  0.00  0.00    +0.000 C 
ATOM      3  N   UNL     1       0.341  10.804  19.004  0.00  0.00    +0.000 N 
ATOM      4  H   UNL     1       0.763  11.632  19.417  0.00  0.00    +0.000 HD
ENDROOT
BRANCH   3   5
ATOM      5  C   UNL     1       1.120   9.618  18.968  0.00  0.00    +0.000 A 
ATOM      6  C   UNL     1       1.865   9.275  17.844  0.00  0.00    +0.000 A 
ATOM      7  C   UNL     1       2.530   8.059  17.732  0.00  0.00    +0.000 A 
ATOM      8  C   UNL     1       2.645   7.237  18.844  0.00  0.00    +0.000 A 
ATOM      9  C   UNL     1       1.937   7.551  20.013  0.00  0.00    +0.000 A 
ATOM     10  C   UNL     1       1.162   8.735  20.072  0.00  0.00    +0.000 A 
BRANCH   8  11
ATOM     11  S   UNL     1       3.694   5.796  18.701  0.00  0.00    +0.000 S 
ATOM     12  O   UNL     1       4.910   6.219  18.048  0.00  0.00    +0.000 OA
ATOM     13  O   UNL     1       3.732   5.162  20.001  0.00  0.00    +0.000 OA
BRANCH  11  14
ATOM     14  N   UNL     1       2.873   4.745  17.648  0.00  0.00    +0.000 NA
ATOM     15  C   UNL     1       1.443   4.477  17.854  0.00  0.00    +0.000 C 
ATOM     16  C   UNL     1       1.432   3.091  18.466  0.00  0.00    +0.000 C 
ATOM     17  C   UNL     1       2.549   2.370  17.727  0.00  0.00    +0.000 C 
ATOM     18  C   UNL     1       3.495   3.469  17.228  0.00  0.00    +0.000 C 
ENDBRANCH  11  14
ENDBRANCH   8  11
ENDBRANCH   3   5
BRANCH   2  19
ATOM     19  C   UNL     1      -1.669  12.230  18.671  0.00  0.00    +0.000 C 
BRANCH  19  20
ATOM     20  C   UNL     1      -2.797  12.372  19.651  0.00  0.00    +0.000 A 
ATOM     21  N   UNL     1      -2.455  12.665  20.874  0.00  0.00    +0.000 NA
ATOM     22  N   UNL     1      -3.426  12.765  21.809  0.00  0.00    +0.000 N 
ATOM     23  C   UNL     1      -4.759  12.492  21.626  0.00  0.00    +0.000 A 
ATOM     24  O   UNL     1      -5.566  12.542  22.536  0.00  0.00    +0.000 OA
ATOM     25  C   UNL     1      -5.165  12.147  20.251  0.00  0.00    +0.000 A 
ATOM     26  C   UNL     1      -6.503  11.853  19.977  0.00  0.00    +0.000 A 
ATOM     27  C   UNL     1      -6.889  11.547  18.674  0.00  0.00    +0.000 A 
ATOM     28  C   UNL     1      -5.943  11.556  17.651  0.00  0.00    +0.000 A 
ATOM     29  C   UNL     1      -4.600  11.846  17.927  0.00  0.00    +0.000 A 
ATOM     30  C   UNL     1      -4.205  12.124  19.242  0.00  0.00    +0.000 A 
ATOM     31  H   UNL     1      -3.134  13.031  22.746  0.00  0.00    +0.000 HD
ENDBRANCH  19  20
ENDBRANCH   2  19
TORSDOF 5
ENDMDL
MODEL 7
REMARK VINA RESULT:      -8.6      6.429      7.627
REMARK  Name = 
REMARK  5 active torsions:
REMARK  status: ('A' for Active; 'I' for Inactive)
REMARK    1  A    between atoms: C_2  and  C_3
REMARK    2  A    between atoms: C_3  and  C_4
REMARK    3  A    between atoms: N_15  and  C_16
REMARK    4  A    between atoms: C_19  and  S_20
REMARK    5  A    between atoms: S_20  and  N_23
REMARK                            x       y       z     vdW  Elec       q    Type
REMARK                         _______ _______ _______ _____ _____    ______ ____
ROOT
ATOM      1  O   UNL     1       1.070   4.654  18.308  0.00  0.00    +0.000 OA
ATOM      2  C   UNL     1       2.248   4.905  18.041  0.00  0.00    +0.000 C 
ATOM      3  N   UNL     1       2.893   6.117  18.291  0.00  0.00    +0.000 N 
ATOM      4  H   UNL     1       3.833   6.241  17.924  0.00  0.00    +0.000 HD
ENDROOT
BRANCH   3   5
ATOM      5  C   UNL     1       2.276   7.234  18.913  0.00  0.00    +0.000 A 
ATOM      6  C   UNL     1       1.983   8.390  18.197  0.00  0.00    +0.000 A 
ATOM      7  C   UNL     1       1.503   9.544  18.807  0.00  0.00    +0.000 A 
ATOM      8  C   UNL     1       1.093   9.497  20.132  0.00  0.00    +0.000 A 
ATOM      9  C   UNL     1       1.339   8.344  20.893  0.00  0.00    +0.000 A 
ATOM     10  C   UNL     1       1.944   7.216  20.287  0.00  0.00    +0.000 A 
BRANCH   8  11
ATOM     11  S   UNL     1       0.282  10.945  20.797  0.00  0.00    +0.000 S 
ATOM     12  O   UNL     1      -0.693  10.482  21.756  0.00  0.00    +0.000 OA
ATOM     13  O   UNL     1       1.318  11.878  21.185  0.00  0.00    +0.000 OA
BRANCH  11  14
ATOM     14  N   UNL     1      -0.555  11.633  19.489  0.00  0.00    +0.000 NA
ATOM     15  C   UNL     1      -1.095  12.996  19.604  0.00  0.00    +0.000 C 
ATOM     16  C   UNL     1      -2.579  12.767  19.807  0.00  0.00    +0.000 C 
ATOM     17  C   UNL     1      -2.880  11.581  18.901  0.00  0.00    +0.000 C 
ATOM     18  C   UNL     1      -1.549  10.838  18.734  0.00  0.00    +0.000 C 
ENDBRANCH  11  14
ENDBRANCH   8  11
ENDBRANCH   3   5
BRANCH   2  19
ATOM     19  C   UNL     1       3.069   3.794  17.420  0.00  0.00    +0.000 C 
BRANCH  19  20
ATOM     20  C   UNL     1       4.558   3.952  17.510  0.00  0.00    +0.000 A 
ATOM     21  N   UNL     1       5.062   3.913  18.712  0.00  0.00    +0.000 NA
ATOM     22  N   UNL     1       6.395   4.091  18.858  0.00  0.00    +0.000 N 
ATOM     23  C   UNL     1       7.285   4.410  17.863  0.00  0.00    +0.000 A 
ATOM     24  O   UNL     1       8.463   4.620  18.084  0.00  0.00    +0.000 OA
ATOM     25  C   UNL     1       6.732   4.471  16.497  0.00  0.00    +0.000 A 
ATOM     26  C   UNL     1       7.568   4.791  15.425  0.00  0.00    +0.000 A 
ATOM     27  C   UNL     1       7.049   4.828  14.132  0.00  0.00    +0.000 A 
ATOM     28  C   UNL     1       5.706   4.526  13.916  0.00  0.00    +0.000 A 
ATOM     29  C   UNL     1       4.866   4.210  14.992  0.00  0.00    +0.000 A 
ATOM     30  C   UNL     1       5.380   4.202  16.296  0.00  0.00    +0.000 A 
ATOM     31  H   UNL     1       6.765   4.019  19.802  0.00  0.00    +0.000 HD
ENDBRANCH  19  20
ENDBRANCH   2  19
TORSDOF 5
ENDMDL
MODEL 8
REMARK VINA RESULT:      -8.5      8.078     11.235
REMARK  Name = 
REMARK  5 active torsions:
REMARK  status: ('A' for Active; 'I' for Inactive)
REMARK    1  A    between atoms: C_2  and  C_3
REMARK    2  A    between atoms: C_3  and  C_4
REMARK    3  A    between atoms: N_15  and  C_16
REMARK    4  A    between atoms: C_19  and  S_20
REMARK    5  A    between atoms: S_20  and  N_23
REMARK                            x       y       z     vdW  Elec       q    Type
REMARK                         _______ _______ _______ _____ _____    ______ ____
ROOT
ATOM      1  O   UNL     1       1.914  11.853  19.013  0.00  0.00    +0.000 OA
ATOM      2  C   UNL     1       0.756  11.481  19.215  0.00  0.00    +0.000 C 
ATOM      3  N   UNL     1       0.331  10.153  19.267  0.00  0.00    +0.000 N 
ATOM      4  H   UNL     1      -0.668   9.974  19.328  0.00  0.00    +0.000 HD
ENDROOT
BRANCH   3   5
ATOM      5  C   UNL     1       1.191   9.034  19.109  0.00  0.00    +0.000 A 
ATOM      6  C   UNL     1       1.449   8.166  20.166  0.00  0.00    +0.000 A 
ATOM      7  C   UNL     1       2.386   7.142  20.078  0.00  0.00    +0.000 A 
ATOM      8  C   UNL     1       2.937   6.823  18.845  0.00  0.00    +0.000 A 
ATOM      9  C   UNL     1       2.686   7.650  17.739  0.00  0.00    +0.000 A 
ATOM     10  C   UNL     1       1.824   8.765  17.874  0.00  0.00    +0.000 A 
BRANCH   8  11
ATOM     11  S   UNL     1       3.964   5.363  18.753  0.00  0.00    +0.000 S 
ATOM     12  O   UNL     1       4.209   5.103  17.353  0.00  0.00    +0.000 OA
ATOM     13  O   UNL     1       5.064   5.552  19.674  0.00  0.00    +0.000 OA
BRANCH  11  14
ATOM     14  N   UNL     1       3.006   4.099  19.360  0.00  0.00    +0.000 NA
ATOM     15  C   UNL     1       3.631   2.818  19.720  0.00  0.00    +0.000 C 
ATOM     16  C   UNL     1       3.248   1.908  18.571  0.00  0.00    +0.000 C 
ATOM     17  C   UNL     1       1.825   2.336  18.240  0.00  0.00    +0.000 C 
ATOM     18  C   UNL     1       1.701   3.781  18.737  0.00  0.00    +0.000 C 
ENDBRANCH  11  14
ENDBRANCH   8  11
ENDBRANCH   3   5
BRANCH   2  19
ATOM     19  C   UNL     1      -0.283  12.555  19.460  0.00  0.00    +0.000 C 
BRANCH  19  20
ATOM     20  C   UNL     1      -1.667  12.252  18.966  0.00  0.00    +0.000 A 
ATOM     21  N   UNL     1      -1.765  11.946  17.702  0.00  0.00    +0.000 NA
ATOM     22  N   UNL     1      -2.994  11.703  17.191  0.00  0.00    +0.000 N 
ATOM     23  C   UNL     1      -4.189  11.839  17.853  0.00  0.00    +0.000 A 
ATOM     24  O   UNL     1      -5.261  11.664  17.304  0.00  0.00    +0.000 OA
ATOM     25  C   UNL     1      -4.100  12.195  19.281  0.00  0.00    +0.000 A 
ATOM     26  C   UNL     1      -5.268  12.355  20.029  0.00  0.00    +0.000 A 
ATOM     27  C   UNL     1      -5.183  12.672  21.383  0.00  0.00    +0.000 A 
ATOM     28  C   UNL     1      -3.934  12.808  21.985  0.00  0.00    +0.000 A 
ATOM     29  C   UNL     1      -2.762  12.653  21.233  0.00  0.00    +0.000 A 
ATOM     30  C   UNL     1      -2.846  12.363  19.865  0.00  0.00    +0.000 A 
ATOM     31  H   UNL     1      -3.036  11.431  16.212  0.00  0.00    +0.000 HD
ENDBRANCH  19  20
ENDBRANCH   2  19
TORSDOF 5
ENDMDL
MODEL 9
REMARK VINA RESULT:      -8.4      0.683      1.120
REMARK  Name = 
REMARK  5 active torsions:
REMARK  status: ('A' for Active; 'I' for Inactive)
REMARK    1  A    between atoms: C_2  and  C_3
REMARK    2  A    between atoms: C_3  and  C_4
REMARK    3  A    between atoms: N_15  and  C_16
REMARK    4  A    between atoms: C_19  and  S_20
REMARK    5  A    between atoms: S_20  and  N_23
REMARK                            x       y       z     vdW  Elec       q    Type
REMARK                         _______ _______ _______ _____ _____    ______ ____
ROOT
ATOM      1  O   UNL     1       7.814   8.608  17.177  0.00  0.00    +0.000 OA
ATOM      2  C   UNL     1       8.208   8.132  18.244  0.00  0.00    +0.000 C 
ATOM      3  N   UNL     1       8.916   8.827  19.226  0.00  0.00    +0.000 N 
ATOM      4  H   UNL     1       9.284   8.297  20.012  0.00  0.00    +0.000 HD
ENDROOT
BRANCH   3   5
ATOM      5  C   UNL     1       9.266  10.199  19.135  0.00  0.00    +0.000 A 
ATOM      6  C   UNL     1       8.818  10.993  18.083  0.00  0.00    +0.000 A 
ATOM      7  C   UNL     1       9.252  12.301  17.899  0.00  0.00    +0.000 A 
ATOM      8  C   UNL     1       9.985  12.926  18.898  0.00  0.00    +0.000 A 
ATOM      9  C   UNL     1      10.438  12.179  19.995  0.00  0.00    +0.000 A 
ATOM     10  C   UNL     1      10.090  10.810  20.108  0.00  0.00    +0.000 A 
BRANCH   8  11
ATOM     11  S   UNL     1      10.325  14.670  18.704  0.00  0.00    +0.000 S 
ATOM     12  O   UNL     1      11.536  14.951  19.439  0.00  0.00    +0.000 OA
ATOM     13  O   UNL     1      10.229  14.973  17.292  0.00  0.00    +0.000 OA
BRANCH  11  14
ATOM     14  N   UNL     1       9.043  15.468  19.481  0.00  0.00    +0.000 NA
ATOM     15  C   UNL     1       7.886  14.697  19.958  0.00  0.00    +0.000 C 
ATOM     16  C   UNL     1       6.815  15.005  18.931  0.00  0.00    +0.000 C 
ATOM     17  C   UNL     1       7.048  16.473  18.607  0.00  0.00    +0.000 C 
ATOM     18  C   UNL     1       8.519  16.744  18.945  0.00  0.00    +0.000 C 
ENDBRANCH  11  14
ENDBRANCH   8  11
ENDBRANCH   3   5
BRANCH   2  19
ATOM     19  C   UNL     1       7.866   6.684  18.524  0.00  0.00    +0.000 C 
BRANCH  19  20
ATOM     20  C   UNL     1       7.177   5.948  17.413  0.00  0.00    +0.000 A 
ATOM     21  N   UNL     1       7.682   6.112  16.223  0.00  0.00    +0.000 NA
ATOM     22  N   UNL     1       7.076   5.506  15.176  0.00  0.00    +0.000 N 
ATOM     23  C   UNL     1       5.904   4.794  15.218  0.00  0.00    +0.000 A 
ATOM     24  O   UNL     1       5.385   4.332  14.219  0.00  0.00    +0.000 OA
ATOM     25  C   UNL     1       5.310   4.606  16.555  0.00  0.00    +0.000 A 
ATOM     26  C   UNL     1       4.115   3.895  16.689  0.00  0.00    +0.000 A 
ATOM     27  C   UNL     1       3.566   3.700  17.954  0.00  0.00    +0.000 A 
ATOM     28  C   UNL     1       4.222   4.199  19.078  0.00  0.00    +0.000 A 
ATOM     29  C   UNL     1       5.418   4.916  18.944  0.00  0.00    +0.000 A 
ATOM     30  C   UNL     1       5.955   5.139  17.669  0.00  0.00    +0.000 A 
ATOM     31  H   UNL     1       7.513   5.622  14.265  0.00  0.00    +0.000 HD
ENDBRANCH  19  20
ENDBRANCH   2  19
TORSDOF 5
ENDMDL
