MODEL 1
REMARK VINA RESULT:      -8.2      0.000      0.000
REMARK  Name = 
REMARK  6 active torsions:
REMARK  status: ('A' for Active; 'I' for Inactive)
REMARK    1  A    between atoms: C_1  and  N_2
REMARK    2  A    between atoms: C_6  and  C_7
REMARK    3  A    between atoms: C_8  and  C_9
REMARK    4  A    between atoms: C_9  and  C_10
REMARK    5  A    between atoms: C_14  and  N_15
REMARK    6  A    between atoms: C_22  and  C_23
REMARK                            x       y       z     vdW  Elec       q    Type
REMARK                         _______ _______ _______ _____ _____    ______ ____
ROOT
ATOM      1  C   UNL     1       9.029  10.497  18.386  0.00  0.00    +0.000 A 
ATOM      2  C   UNL     1       8.049  11.278  17.756  0.00  0.00    +0.000 A 
ATOM      3  C   UNL     1       8.353  12.557  17.306  0.00  0.00    +0.000 A 
ATOM      4  C   UNL     1       9.598  13.110  17.587  0.00  0.00    +0.000 A 
ATOM      5  C   UNL     1      10.490  12.422  18.424  0.00  0.00    +0.000 A 
ATOM      6  C   UNL     1      10.277  11.062  18.672  0.00  0.00    +0.000 A 
ENDROOT
BRANCH   5   7
ATOM      7  N   UNL     1      11.290  13.165  19.393  0.00  0.00    +0.000 N 
ATOM      8  C   UNL     1      10.962  12.720  20.770  0.00  0.00    +0.000 C 
ATOM      9  C   UNL     1       9.847  13.652  21.139  0.00  0.00    +0.000 A 
ATOM     10  C   UNL     1      10.035  14.829  20.411  0.00  0.00    +0.000 A 
ATOM     11  C   UNL     1       9.109  15.854  20.379  0.00  0.00    +0.000 A 
ATOM     12  C   UNL     1       7.931  15.667  21.102  0.00  0.00    +0.000 A 
ATOM     13  C   UNL     1       7.715  14.477  21.823  0.00  0.00    +0.000 A 
ATOM     14  C   UNL     1       8.673  13.441  21.857  0.00  0.00    +0.000 A 
ATOM     15  C   UNL     1      11.087  14.570  19.397  0.00  0.00    +0.000 C 
ATOM     16  O   UNL     1      11.496  15.396  18.605  0.00  0.00    +0.000 OA
BRANCH  14  17
ATOM     17  C   UNL     1       8.335  12.148  22.553  0.00  0.00    +0.000 C 
ATOM     18  F   UNL     1       8.697  11.031  21.864  0.00  0.00    +0.000 F 
ATOM     19  F   UNL     1       8.944  12.043  23.767  0.00  0.00    +0.000 F 
ATOM     20  F   UNL     1       7.000  12.019  22.792  0.00  0.00    +0.000 F 
ENDBRANCH  14  17
ENDBRANCH   5   7
BRANCH   1  21
ATOM     21  C   UNL     1       8.733   9.072  18.772  0.00  0.00    +0.000 C 
BRANCH  21  23
ATOM     22  C   UNL     1       7.577   7.006  17.820  0.00  0.00    +0.000 C 
ATOM     23  C   UNL     1       8.060   8.257  17.706  0.00  0.00    +0.000 C 
BRANCH  22  29
ATOM     24  C   UNL     1       4.590   6.813  17.397  0.00  0.00    +0.000 C 
ATOM     25  N   UNL     1       5.623   6.311  16.535  0.00  0.00    +0.000 N 
ATOM     26  C   UNL     1       5.416   5.648  15.359  0.00  0.00    +0.000 A 
ATOM     27  N   UNL     1       6.565   5.322  14.827  0.00  0.00    +0.000 NA
ATOM     28  N   UNL     1       7.549   5.779  15.662  0.00  0.00    +0.000 NA
ATOM     29  C   UNL     1       6.986   6.378  16.697  0.00  0.00    +0.000 A 
ENDBRANCH  22  29
ENDBRANCH  21  23
ENDBRANCH   1  21
TORSDOF 5
ENDMDL
MODEL 2
REMARK VINA RESULT:      -8.2      8.191     10.852
REMARK  Name = 
REMARK  6 active torsions:
REMARK  status: ('A' for Active; 'I' for Inactive)
REMARK    1  A    between atoms: C_1  and  N_2
REMARK    2  A    between atoms: C_6  and  C_7
REMARK    3  A    between atoms: C_8  and  C_9
REMARK    4  A    between atoms: C_9  and  C_10
REMARK    5  A    between atoms: C_14  and  N_15
REMARK    6  A    between atoms: C_22  and  C_23
REMARK                            x       y       z     vdW  Elec       q    Type
REMARK                         _______ _______ _______ _____ _____    ______ ____
ROOT
ATOM      1  C   UNL     1       1.207   9.342  19.655  0.00  0.00    +0.000 A 
ATOM      2  C   UNL     1       0.778   8.630  20.786  0.00  0.00    +0.000 A 
ATOM      3  C   UNL     1       1.320   7.385  21.078  0.00  0.00    +0.000 A 
ATOM      4  C   UNL     1       2.203   6.789  20.184  0.00  0.00    +0.000 A 
ATOM      5  C   UNL     1       2.446   7.394  18.941  0.00  0.00    +0.000 A 
ATOM      6  C   UNL     1       2.090   8.734  18.756  0.00  0.00    +0.000 A 
ENDROOT
BRANCH   5   7
ATOM      7  N   UNL     1       2.579   6.564  17.748  0.00  0.00    +0.000 N 
ATOM      8  C   UNL     1       1.724   5.357  17.871  0.00  0.00    +0.000 C 
ATOM      9  C   UNL     1       2.658   4.381  18.521  0.00  0.00    +0.000 A 
ATOM     10  C   UNL     1       3.955   4.739  18.148  0.00  0.00    +0.000 A 
ATOM     11  C   UNL     1       5.086   4.157  18.688  0.00  0.00    +0.000 A 
ATOM     12  C   UNL     1       4.891   3.180  19.664  0.00  0.00    +0.000 A 
ATOM     13  C   UNL     1       3.590   2.822  20.070  0.00  0.00    +0.000 A 
ATOM     14  C   UNL     1       2.443   3.417  19.503  0.00  0.00    +0.000 A 
ATOM     15  C   UNL     1       3.886   6.070  17.494  0.00  0.00    +0.000 C 
ATOM     16  O   UNL     1       4.844   6.664  17.042  0.00  0.00    +0.000 OA
BRANCH  14  17
ATOM     17  C   UNL     1       1.084   3.073  20.058  0.00  0.00    +0.000 C 
ATOM     18  F   UNL     1       0.364   4.148  20.480  0.00  0.00    +0.000 F 
ATOM     19  F   UNL     1       0.299   2.443  19.141  0.00  0.00    +0.000 F 
ATOM     20  F   UNL     1       1.157   2.233  21.129  0.00  0.00    +0.000 F 
ENDBRANCH  14  17
ENDBRANCH   5   7
BRANCH   1  21
ATOM     21  C   UNL     1       0.703  10.737  19.400  0.00  0.00    +0.000 C 
BRANCH  21  23
ATOM     22  C   UNL     1      -1.511  10.130  18.285  0.00  0.00    +0.000 C 
ATOM     23  C   UNL     1      -0.369  10.840  18.354  0.00  0.00    +0.000 C 
BRANCH  22  29
ATOM     24  C   UNL     1      -3.974  11.872  18.488  0.00  0.00    +0.000 C 
ATOM     25  N   UNL     1      -3.515  11.146  17.335  0.00  0.00    +0.000 N 
ATOM     26  C   UNL     1      -4.135  11.126  16.119  0.00  0.00    +0.000 A 
ATOM     27  N   UNL     1      -3.464  10.366  15.293  0.00  0.00    +0.000 NA
ATOM     28  N   UNL     1      -2.381   9.876  15.974  0.00  0.00    +0.000 NA
ATOM     29  C   UNL     1      -2.406  10.345  17.209  0.00  0.00    +0.000 A 
ENDBRANCH  22  29
ENDBRANCH  21  23
ENDBRANCH   1  21
TORSDOF 5
ENDMDL
MODEL 3
REMARK VINA RESULT:      -8.2      6.676     10.075
REMARK  Name = 
REMARK  6 active torsions:
REMARK  status: ('A' for Active; 'I' for Inactive)
REMARK    1  A    between atoms: C_1  and  N_2
REMARK    2  A    between atoms: C_6  and  C_7
REMARK    3  A    between atoms: C_8  and  C_9
REMARK    4  A    between atoms: C_9  and  C_10
REMARK    5  A    between atoms: C_14  and  N_15
REMARK    6  A    between atoms: C_22  and  C_23
REMARK                            x       y       z     vdW  Elec       q    Type
REMARK                         _______ _______ _______ _____ _____    ______ ____
ROOT
ATOM      1  C   UNL     1       1.907   7.215  20.031  0.00  0.00    +0.000 A 
ATOM      2  C   UNL     1       2.317   8.135  19.055  0.00  0.00    +0.000 A 
ATOM      3  C   UNL     1       2.971   7.699  17.910  0.00  0.00    +0.000 A 
ATOM      4  C   UNL     1       3.325   6.360  17.785  0.00  0.00    +0.000 A 
ATOM      5  C   UNL     1       3.129   5.486  18.865  0.00  0.00    +0.000 A 
ATOM      6  C   UNL     1       2.273   5.870  19.903  0.00  0.00    +0.000 A 
ENDROOT
BRANCH   5   7
ATOM      7  N   UNL     1       4.133   4.471  19.164  0.00  0.00    +0.000 N 
ATOM      8  C   UNL     1       5.476   5.097  19.260  0.00  0.00    +0.000 C 
ATOM      9  C   UNL     1       5.962   5.003  17.844  0.00  0.00    +0.000 A 
ATOM     10  C   UNL     1       5.335   3.897  17.265  0.00  0.00    +0.000 A 
ATOM     11  C   UNL     1       5.423   3.598  15.919  0.00  0.00    +0.000 A 
ATOM     12  C   UNL     1       6.165   4.471  15.122  0.00  0.00    +0.000 A 
ATOM     13  C   UNL     1       6.784   5.604  15.686  0.00  0.00    +0.000 A 
ATOM     14  C   UNL     1       6.696   5.893  17.064  0.00  0.00    +0.000 A 
ATOM     15  C   UNL     1       4.268   3.445  18.192  0.00  0.00    +0.000 C 
ATOM     16  O   UNL     1       3.540   2.494  17.989  0.00  0.00    +0.000 OA
BRANCH  14  17
ATOM     17  C   UNL     1       7.284   7.178  17.586  0.00  0.00    +0.000 C 
ATOM     18  F   UNL     1       8.164   7.777  16.737  0.00  0.00    +0.000 F 
ATOM     19  F   UNL     1       6.328   8.114  17.842  0.00  0.00    +0.000 F 
ATOM     20  F   UNL     1       7.960   7.004  18.757  0.00  0.00    +0.000 F 
ENDBRANCH  14  17
ENDBRANCH   5   7
BRANCH   1  21
ATOM     21  C   UNL     1       1.100   7.673  21.217  0.00  0.00    +0.000 C 
BRANCH  21  23
ATOM     22  C   UNL     1       0.051  10.000  21.227  0.00  0.00    +0.000 C 
ATOM     23  C   UNL     1       1.082   9.159  21.431  0.00  0.00    +0.000 C 
BRANCH  22  29
ATOM     24  C   UNL     1      -1.831  11.640  22.932  0.00  0.00    +0.000 C 
ATOM     25  N   UNL     1      -0.655  12.100  22.247  0.00  0.00    +0.000 N 
ATOM     26  C   UNL     1      -0.190  13.384  22.255  0.00  0.00    +0.000 A 
ATOM     27  N   UNL     1       0.894  13.466  21.528  0.00  0.00    +0.000 NA
ATOM     28  N   UNL     1       1.152  12.216  21.032  0.00  0.00    +0.000 NA
ATOM     29  C   UNL     1       0.219  11.386  21.463  0.00  0.00    +0.000 A 
ENDBRANCH  22  29
ENDBRANCH  21  23
ENDBRANCH   1  21
TORSDOF 5
ENDMDL
MODEL 4
REMARK VINA RESULT:      -8.2      8.204     11.067
REMARK  Name = 
REMARK  6 active torsions:
REMARK  status: ('A' for Active; 'I' for Inactive)
REMARK    1  A    between atoms: C_1  and  N_2
REMARK    2  A    between atoms: C_6  and  C_7
REMARK    3  A    between atoms: C_8  and  C_9
REMARK    4  A    between atoms: C_9  and  C_10
REMARK    5  A    between atoms: C_14  and  N_15
REMARK    6  A    between atoms: C_22  and  C_23
REMARK                            x       y       z     vdW  Elec       q    Type
REMARK                         _______ _______ _______ _____ _____    ______ ____
ROOT
ATOM      1  C   UNL     1       1.277   9.403  19.384  0.00  0.00    +0.000 A 
ATOM      2  C   UNL     1       0.848   8.772  20.561  0.00  0.00    +0.000 A 
ATOM      3  C   UNL     1       1.364   7.533  20.920  0.00  0.00    +0.000 A 
ATOM      4  C   UNL     1       2.219   6.863  20.052  0.00  0.00    +0.000 A 
ATOM      5  C   UNL     1       2.457   7.386  18.771  0.00  0.00    +0.000 A 
ATOM      6  C   UNL     1       2.131   8.721  18.512  0.00  0.00    +0.000 A 
ENDROOT
BRANCH   5   7
ATOM      7  N   UNL     1       2.551   6.482  17.629  0.00  0.00    +0.000 N 
ATOM      8  C   UNL     1       1.667   5.309  17.835  0.00  0.00    +0.000 C 
ATOM      9  C   UNL     1       2.585   4.348  18.531  0.00  0.00    +0.000 A 
ATOM     10  C   UNL     1       3.885   4.649  18.120  0.00  0.00    +0.000 A 
ATOM     11  C   UNL     1       5.008   4.069  18.680  0.00  0.00    +0.000 A 
ATOM     12  C   UNL     1       4.801   3.158  19.716  0.00  0.00    +0.000 A 
ATOM     13  C   UNL     1       3.497   2.860  20.158  0.00  0.00    +0.000 A 
ATOM     14  C   UNL     1       2.358   3.451  19.571  0.00  0.00    +0.000 A 
ATOM     15  C   UNL     1       3.842   5.940  17.389  0.00  0.00    +0.000 C 
ATOM     16  O   UNL     1       4.809   6.480  16.890  0.00  0.00    +0.000 OA
BRANCH  14  17
ATOM     17  C   UNL     1       0.999   3.178  20.163  0.00  0.00    +0.000 C 
ATOM     18  F   UNL     1       0.302   4.296  20.505  0.00  0.00    +0.000 F 
ATOM     19  F   UNL     1       0.194   2.492  19.305  0.00  0.00    +0.000 F 
ATOM     20  F   UNL     1       1.067   2.423  21.296  0.00  0.00    +0.000 F 
ENDBRANCH  14  17
ENDBRANCH   5   7
BRANCH   1  21
ATOM     21  C   UNL     1       0.803  10.793  19.053  0.00  0.00    +0.000 C 
BRANCH  21  23
ATOM     22  C   UNL     1      -1.338  11.325  17.769  0.00  0.00    +0.000 C 
ATOM     23  C   UNL     1      -0.681  10.929  18.875  0.00  0.00    +0.000 C 
BRANCH  22  29
ATOM     24  C   UNL     1      -3.071  10.799  15.349  0.00  0.00    +0.000 C 
ATOM     25  N   UNL     1      -3.508  11.166  16.668  0.00  0.00    +0.000 N 
ATOM     26  C   UNL     1      -4.808  11.342  17.047  0.00  0.00    +0.000 A 
ATOM     27  N   UNL     1      -4.859  11.679  18.309  0.00  0.00    +0.000 NA
ATOM     28  N   UNL     1      -3.572  11.725  18.774  0.00  0.00    +0.000 NA
ATOM     29  C   UNL     1      -2.751  11.415  17.787  0.00  0.00    +0.000 A 
ENDBRANCH  22  29
ENDBRANCH  21  23
ENDBRANCH   1  21
TORSDOF 5
ENDMDL
MODEL 5
REMARK VINA RESULT:      -8.2      7.231     10.230
REMARK  Name = 
REMARK  6 active torsions:
REMARK  status: ('A' for Active; 'I' for Inactive)
REMARK    1  A    between atoms: C_1  and  N_2
REMARK    2  A    between atoms: C_6  and  C_7
REMARK    3  A    between atoms: C_8  and  C_9
REMARK    4  A    between atoms: C_9  and  C_10
REMARK    5  A    between atoms: C_14  and  N_15
REMARK    6  A    between atoms: C_22  and  C_23
REMARK                            x       y       z     vdW  Elec       q    Type
REMARK                         _______ _______ _______ _____ _____    ______ ____
ROOT
ATOM      1  C   UNL     1       2.304   6.052  19.966  0.00  0.00    +0.000 A 
ATOM      2  C   UNL     1       1.256   5.387  20.620  0.00  0.00    +0.000 A 
ATOM      3  C   UNL     1       1.394   4.053  20.986  0.00  0.00    +0.000 A 
ATOM      4  C   UNL     1       2.525   3.343  20.598  0.00  0.00    +0.000 A 
ATOM      5  C   UNL     1       3.460   3.943  19.740  0.00  0.00    +0.000 A 
ATOM      6  C   UNL     1       3.436   5.331  19.573  0.00  0.00    +0.000 A 
ENDROOT
BRANCH   5   7
ATOM      7  N   UNL     1       4.085   3.149  18.687  0.00  0.00    +0.000 N 
ATOM      8  C   UNL     1       5.558   3.322  18.725  0.00  0.00    +0.000 C 
ATOM      9  C   UNL     1       5.756   4.493  17.810  0.00  0.00    +0.000 A 
ATOM     10  C   UNL     1       4.704   4.481  16.891  0.00  0.00    +0.000 A 
ATOM     11  C   UNL     1       4.474   5.506  15.993  0.00  0.00    +0.000 A 
ATOM     12  C   UNL     1       5.339   6.599  16.043  0.00  0.00    +0.000 A 
ATOM     13  C   UNL     1       6.392   6.637  16.978  0.00  0.00    +0.000 A 
ATOM     14  C   UNL     1       6.623   5.580  17.883  0.00  0.00    +0.000 A 
ATOM     15  C   UNL     1       3.704   3.492  17.362  0.00  0.00    +0.000 C 
ATOM     16  O   UNL     1       2.669   3.231  16.781  0.00  0.00    +0.000 OA
BRANCH  14  17
ATOM     17  C   UNL     1       7.694   5.731  18.933  0.00  0.00    +0.000 C 
ATOM     18  F   UNL     1       7.233   5.690  20.213  0.00  0.00    +0.000 F 
ATOM     19  F   UNL     1       8.635   4.749  18.851  0.00  0.00    +0.000 F 
ATOM     20  F   UNL     1       8.371   6.908  18.821  0.00  0.00    +0.000 F 
ENDBRANCH  14  17
ENDBRANCH   5   7
BRANCH   1  21
ATOM     21  C   UNL     1       2.200   7.525  19.670  0.00  0.00    +0.000 C 
BRANCH  21  23
ATOM     22  C   UNL     1       0.973   9.586  20.540  0.00  0.00    +0.000 C 
ATOM     23  C   UNL     1       1.386   8.311  20.657  0.00  0.00    +0.000 C 
BRANCH  22  29
ATOM     24  C   UNL     1      -1.248  11.585  20.076  0.00  0.00    +0.000 C 
ATOM     25  N   UNL     1      -0.780  11.083  21.339  0.00  0.00    +0.000 N 
ATOM     26  C   UNL     1      -1.276  11.439  22.560  0.00  0.00    +0.000 A 
ATOM     27  N   UNL     1      -0.626  10.806  23.502  0.00  0.00    +0.000 NA
ATOM     28  N   UNL     1       0.314  10.017  22.895  0.00  0.00    +0.000 NA
ATOM     29  C   UNL     1       0.225  10.179  21.586  0.00  0.00    +0.000 A 
ENDBRANCH  22  29
ENDBRANCH  21  23
ENDBRANCH   1  21
TORSDOF 5
ENDMDL
MODEL 6
REMARK VINA RESULT:      -8.1      6.771     10.050
REMARK  Name = 
REMARK  6 active torsions:
REMARK  status: ('A' for Active; 'I' for Inactive)
REMARK    1  A    between atoms: C_1  and  N_2
REMARK    2  A    between atoms: C_6  and  C_7
REMARK    3  A    between atoms: C_8  and  C_9
REMARK    4  A    between atoms: C_9  and  C_10
REMARK    5  A    between atoms: C_14  and  N_15
REMARK    6  A    between atoms: C_22  and  C_23
REMARK                            x       y       z     vdW  Elec       q    Type
REMARK                         _______ _______ _______ _____ _____    ______ ____
ROOT
ATOM      1  C   UNL     1       1.984   6.933  19.989  0.00  0.00    +0.000 A 
ATOM      2  C   UNL     1       2.371   7.897  19.046  0.00  0.00    +0.000 A 
ATOM      3  C   UNL     1       3.018   7.514  17.877  0.00  0.00    +0.000 A 
ATOM      4  C   UNL     1       3.389   6.186  17.696  0.00  0.00    +0.000 A 
ATOM      5  C   UNL     1       3.215   5.268  18.744  0.00  0.00    +0.000 A 
ATOM      6  C   UNL     1       2.366   5.600  19.804  0.00  0.00    +0.000 A 
ENDROOT
BRANCH   5   7
ATOM      7  N   UNL     1       4.237   4.256  18.993  0.00  0.00    +0.000 N 
ATOM      8  C   UNL     1       5.567   4.899  19.131  0.00  0.00    +0.000 C 
ATOM      9  C   UNL     1       6.063   4.893  17.716  0.00  0.00    +0.000 A 
ATOM     10  C   UNL     1       5.459   3.811  17.072  0.00  0.00    +0.000 A 
ATOM     11  C   UNL     1       5.561   3.589  15.712  0.00  0.00    +0.000 A 
ATOM     12  C   UNL     1       6.291   4.518  14.970  0.00  0.00    +0.000 A 
ATOM     13  C   UNL     1       6.886   5.628  15.601  0.00  0.00    +0.000 A 
ATOM     14  C   UNL     1       6.785   5.839  16.992  0.00  0.00    +0.000 A 
ATOM     15  C   UNL     1       4.396   3.289  17.965  0.00  0.00    +0.000 C 
ATOM     16  O   UNL     1       3.686   2.337  17.705  0.00  0.00    +0.000 OA
BRANCH  14  17
ATOM     17  C   UNL     1       7.347   7.103  17.589  0.00  0.00    +0.000 C 
ATOM     18  F   UNL     1       6.410   8.037  17.907  0.00  0.00    +0.000 F 
ATOM     19  F   UNL     1       8.033   6.866  18.742  0.00  0.00    +0.000 F 
ATOM     20  F   UNL     1       8.224   7.727  16.754  0.00  0.00    +0.000 F 
ENDBRANCH  14  17
ENDBRANCH   5   7
BRANCH   1  21
ATOM     21  C   UNL     1       1.184   7.335  21.200  0.00  0.00    +0.000 C 
BRANCH  21  23
ATOM     22  C   UNL     1      -0.204   9.455  21.496  0.00  0.00    +0.000 C 
ATOM     23  C   UNL     1       0.970   8.812  21.353  0.00  0.00    +0.000 C 
BRANCH  22  29
ATOM     24  C   UNL     1      -0.245  11.314  19.113  0.00  0.00    +0.000 C 
ATOM     25  N   UNL     1      -0.243  11.682  20.502  0.00  0.00    +0.000 N 
ATOM     26  C   UNL     1      -0.256  12.962  20.978  0.00  0.00    +0.000 A 
ATOM     27  N   UNL     1      -0.242  12.947  22.285  0.00  0.00    +0.000 NA
ATOM     28  N   UNL     1      -0.220  11.636  22.682  0.00  0.00    +0.000 NA
ATOM     29  C   UNL     1      -0.221  10.867  21.608  0.00  0.00    +0.000 A 
ENDBRANCH  22  29
ENDBRANCH  21  23
ENDBRANCH   1  21
TORSDOF 5
ENDMDL
MODEL 7
REMARK VINA RESULT:      -8.0      8.150     11.019
REMARK  Name = 
REMARK  6 active torsions:
REMARK  status: ('A' for Active; 'I' for Inactive)
REMARK    1  A    between atoms: C_1  and  N_2
REMARK    2  A    between atoms: C_6  and  C_7
REMARK    3  A    between atoms: C_8  and  C_9
REMARK    4  A    between atoms: C_9  and  C_10
REMARK    5  A    between atoms: C_14  and  N_15
REMARK    6  A    between atoms: C_22  and  C_23
REMARK                            x       y       z     vdW  Elec       q    Type
REMARK                         _______ _______ _______ _____ _____    ______ ____
ROOT
ATOM      1  C   UNL     1       1.463   8.982  19.549  0.00  0.00    +0.000 A 
ATOM      2  C   UNL     1       1.987   9.308  18.289  0.00  0.00    +0.000 A 
ATOM      3  C   UNL     1       2.570   8.327  17.497  0.00  0.00    +0.000 A 
ATOM      4  C   UNL     1       2.741   7.042  18.002  0.00  0.00    +0.000 A 
ATOM      5  C   UNL     1       2.435   6.779  19.346  0.00  0.00    +0.000 A 
ATOM      6  C   UNL     1       1.644   7.690  20.054  0.00  0.00    +0.000 A 
ENDROOT
BRANCH   5   7
ATOM      7  N   UNL     1       3.296   5.892  20.122  0.00  0.00    +0.000 N 
ATOM      8  C   UNL     1       4.489   5.517  19.324  0.00  0.00    +0.000 C 
ATOM      9  C   UNL     1       4.019   4.273  18.630  0.00  0.00    +0.000 A 
ATOM     10  C   UNL     1       3.050   3.686  19.447  0.00  0.00    +0.000 A 
ATOM     11  C   UNL     1       2.282   2.607  19.052  0.00  0.00    +0.000 A 
ATOM     12  C   UNL     1       2.494   2.115  17.764  0.00  0.00    +0.000 A 
ATOM     13  C   UNL     1       3.452   2.710  16.919  0.00  0.00    +0.000 A 
ATOM     14  C   UNL     1       4.237   3.805  17.337  0.00  0.00    +0.000 A 
ATOM     15  C   UNL     1       2.705   4.661  20.511  0.00  0.00    +0.000 C 
ATOM     16  O   UNL     1       1.898   4.455  21.396  0.00  0.00    +0.000 OA
BRANCH  14  17
ATOM     17  C   UNL     1       5.163   4.467  16.349  0.00  0.00    +0.000 C 
ATOM     18  F   UNL     1       5.331   3.775  15.189  0.00  0.00    +0.000 F 
ATOM     19  F   UNL     1       4.720   5.701  15.978  0.00  0.00    +0.000 F 
ATOM     20  F   UNL     1       6.414   4.655  16.853  0.00  0.00    +0.000 F 
ENDBRANCH  14  17
ENDBRANCH   5   7
BRANCH   1  21
ATOM     21  C   UNL     1       0.732  10.020  20.358  0.00  0.00    +0.000 C 
BRANCH  21  23
ATOM     22  C   UNL     1      -1.046  11.327  19.077  0.00  0.00    +0.000 C 
ATOM     23  C   UNL     1      -0.660  10.323  19.887  0.00  0.00    +0.000 C 
BRANCH  22  29
ATOM     24  C   UNL     1      -2.317  10.094  16.627  0.00  0.00    +0.000 C 
ATOM     25  N   UNL     1      -2.961  10.898  17.628  0.00  0.00    +0.000 N 
ATOM     26  C   UNL     1      -4.282  11.244  17.632  0.00  0.00    +0.000 A 
ATOM     27  N   UNL     1      -4.543  11.985  18.677  0.00  0.00    +0.000 NA
ATOM     28  N   UNL     1      -3.376  12.131  19.378  0.00  0.00    +0.000 NA
ATOM     29  C   UNL     1      -2.416  11.475  18.750  0.00  0.00    +0.000 A 
ENDBRANCH  22  29
ENDBRANCH  21  23
ENDBRANCH   1  21
TORSDOF 5
ENDMDL
MODEL 8
REMARK VINA RESULT:      -8.0      8.208     11.174
REMARK  Name = 
REMARK  6 active torsions:
REMARK  status: ('A' for Active; 'I' for Inactive)
REMARK    1  A    between atoms: C_1  and  N_2
REMARK    2  A    between atoms: C_6  and  C_7
REMARK    3  A    between atoms: C_8  and  C_9
REMARK    4  A    between atoms: C_9  and  C_10
REMARK    5  A    between atoms: C_14  and  N_15
REMARK    6  A    between atoms: C_22  and  C_23
REMARK                            x       y       z     vdW  Elec       q    Type
REMARK                         _______ _______ _______ _____ _____    ______ ____
ROOT
ATOM      1  C   UNL     1       1.491   9.246  19.008  0.00  0.00    +0.000 A 
ATOM      2  C   UNL     1       1.065   8.734  20.243  0.00  0.00    +0.000 A 
ATOM      3  C   UNL     1       1.565   7.525  20.710  0.00  0.00    +0.000 A 
ATOM      4  C   UNL     1       2.397   6.762  19.899  0.00  0.00    +0.000 A 
ATOM      5  C   UNL     1       2.629   7.159  18.573  0.00  0.00    +0.000 A 
ATOM      6  C   UNL     1       2.323   8.470  18.193  0.00  0.00    +0.000 A 
ENDROOT
BRANCH   5   7
ATOM      7  N   UNL     1       2.694   6.152  17.519  0.00  0.00    +0.000 N 
ATOM      8  C   UNL     1       1.753   5.044  17.816  0.00  0.00    +0.000 C 
ATOM      9  C   UNL     1       2.616   4.109  18.611  0.00  0.00    +0.000 A 
ATOM     10  C   UNL     1       3.934   4.311  18.196  0.00  0.00    +0.000 A 
ATOM     11  C   UNL     1       5.021   3.734  18.825  0.00  0.00    +0.000 A 
ATOM     12  C   UNL     1       4.759   2.931  19.935  0.00  0.00    +0.000 A 
ATOM     13  C   UNL     1       3.436   2.736  20.381  0.00  0.00    +0.000 A 
ATOM     14  C   UNL     1       2.334   3.322  19.724  0.00  0.00    +0.000 A 
ATOM     15  C   UNL     1       3.960   5.530  17.351  0.00  0.00    +0.000 C 
ATOM     16  O   UNL     1       4.958   5.978  16.821  0.00  0.00    +0.000 OA
BRANCH  14  17
ATOM     17  C   UNL     1       0.956   3.167  20.316  0.00  0.00    +0.000 C 
ATOM     18  F   UNL     1       0.928   2.495  21.499  0.00  0.00    +0.000 F 
ATOM     19  F   UNL     1       0.365   4.369  20.562  0.00  0.00    +0.000 F 
ATOM     20  F   UNL     1       0.107   2.495  19.488  0.00  0.00    +0.000 F 
ENDBRANCH  14  17
ENDBRANCH   5   7
BRANCH   1  21
ATOM     21  C   UNL     1       1.037  10.607  18.553  0.00  0.00    +0.000 C 
BRANCH  21  23
ATOM     22  C   UNL     1      -1.311  11.536  18.184  0.00  0.00    +0.000 C 
ATOM     23  C   UNL     1      -0.362  10.973  18.955  0.00  0.00    +0.000 C 
BRANCH  22  29
ATOM     24  C   UNL     1      -3.918  11.081  16.722  0.00  0.00    +0.000 C 
ATOM     25  N   UNL     1      -3.745  11.611  18.046  0.00  0.00    +0.000 N 
ATOM     26  C   UNL     1      -4.757  12.005  18.875  0.00  0.00    +0.000 A 
ATOM     27  N   UNL     1      -4.260  12.444  20.002  0.00  0.00    +0.000 NA
ATOM     28  N   UNL     1      -2.897  12.337  19.919  0.00  0.00    +0.000 NA
ATOM     29  C   UNL     1      -2.580  11.833  18.739  0.00  0.00    +0.000 A 
ENDBRANCH  22  29
ENDBRANCH  21  23
ENDBRANCH   1  21
TORSDOF 5
ENDMDL
MODEL 9
REMARK VINA RESULT:      -8.0      4.612      9.453
REMARK  Name = 
REMARK  6 active torsions:
REMARK  status: ('A' for Active; 'I' for Inactive)
REMARK    1  A    between atoms: C_1  and  N_2
REMARK    2  A    between atoms: C_6  and  C_7
REMARK    3  A    between atoms: C_8  and  C_9
REMARK    4  A    between atoms: C_9  and  C_10
REMARK    5  A    between atoms: C_14  and  N_15
REMARK    6  A    between atoms: C_22  and  C_23
REMARK                            x       y       z     vdW  Elec       q    Type
REMARK                         _______ _______ _______ _____ _____    ______ ____
ROOT
ATOM      1  C   UNL     1       6.870   6.220  17.649  0.00  0.00    +0.000 A 
ATOM      2  C   UNL     1       6.991   6.083  19.039  0.00  0.00    +0.000 A 
ATOM      3  C   UNL     1       6.533   4.935  19.674  0.00  0.00    +0.000 A 
ATOM      4  C   UNL     1       5.847   3.970  18.944  0.00  0.00    +0.000 A 
ATOM      5  C   UNL     1       5.517   4.218  17.603  0.00  0.00    +0.000 A 
ATOM      6  C   UNL     1       6.172   5.249  16.922  0.00  0.00    +0.000 A 
ENDROOT
BRANCH   5   7
ATOM      7  N   UNL     1       4.220   3.791  17.088  0.00  0.00    +0.000 N 
ATOM      8  C   UNL     1       3.327   4.965  16.924  0.00  0.00    +0.000 C 
ATOM      9  C   UNL     1       2.651   5.030  18.261  0.00  0.00    +0.000 A 
ATOM     10  C   UNL     1       2.628   3.731  18.775  0.00  0.00    +0.000 A 
ATOM     11  C   UNL     1       2.223   3.435  20.062  0.00  0.00    +0.000 A 
ATOM     12  C   UNL     1       1.842   4.507  20.870  0.00  0.00    +0.000 A 
ATOM     13  C   UNL     1       1.881   5.825  20.375  0.00  0.00    +0.000 A 
ATOM     14  C   UNL     1       2.287   6.114  19.055  0.00  0.00    +0.000 A 
ATOM     15  C   UNL     1       3.503   2.891  17.920  0.00  0.00    +0.000 C 
ATOM     16  O   UNL     1       3.693   1.703  18.089  0.00  0.00    +0.000 OA
BRANCH  14  17
ATOM     17  C   UNL     1       2.415   7.552  18.621  0.00  0.00    +0.000 C 
ATOM     18  F   UNL     1       1.604   7.898  17.584  0.00  0.00    +0.000 F 
ATOM     19  F   UNL     1       2.114   8.420  19.627  0.00  0.00    +0.000 F 
ATOM     20  F   UNL     1       3.680   7.865  18.223  0.00  0.00    +0.000 F 
ENDBRANCH  14  17
ENDBRANCH   5   7
BRANCH   1  21
ATOM     21  C   UNL     1       7.466   7.412  16.948  0.00  0.00    +0.000 C 
BRANCH  21  23
ATOM     22  C   UNL     1       8.150   9.739  17.741  0.00  0.00    +0.000 C 
ATOM     23  C   UNL     1       8.149   8.398  17.851  0.00  0.00    +0.000 C 
BRANCH  22  29
ATOM     24  C   UNL     1       8.515  12.730  17.490  0.00  0.00    +0.000 C 
ATOM     25  N   UNL     1       9.015  11.878  18.534  0.00  0.00    +0.000 N 
ATOM     26  C   UNL     1       9.754  12.293  19.604  0.00  0.00    +0.000 A 
ATOM     27  N   UNL     1      10.053  11.269  20.360  0.00  0.00    +0.000 NA
ATOM     28  N   UNL     1       9.501  10.157  19.782  0.00  0.00    +0.000 NA
ATOM     29  C   UNL     1       8.871  10.519  18.678  0.00  0.00    +0.000 A 
ENDBRANCH  22  29
ENDBRANCH  21  23
ENDBRANCH   1  21
TORSDOF 5
ENDMDL
