MODEL 1
REMARK VINA RESULT:      -7.8      0.000      0.000
REMARK  Name = 
REMARK  6 active torsions:
REMARK  status: ('A' for Active; 'I' for Inactive)
REMARK    1  A    between atoms: C_1  and  C_2
REMARK    2  A    between atoms: C_2  and  C_3
REMARK    3  A    between atoms: C_2  and  N_13
REMARK    4  A    between atoms: C_7  and  C_8
REMARK    5  A    between atoms: N_13  and  C_27
REMARK    6  A    between atoms: C_14  and  C_16
REMARK                            x       y       z     vdW  Elec       q    Type
REMARK                         _______ _______ _______ _____ _____    ______ ____
ROOT
ATOM      1  N   UNL     1       4.470   4.973  16.911  0.00  0.00    +0.000 N 
ATOM      2  C   UNL     1       4.637   3.569  16.798  0.00  0.00    +0.000 C 
ATOM      3  O   UNL     1       5.477   3.020  16.088  0.00  0.00    +0.000 OA
ENDROOT
BRANCH   2   4
ATOM      4  C   UNL     1       3.905   2.625  17.732  0.00  0.00    +0.000 A 
ATOM      5  N   UNL     1       2.799   2.041  17.334  0.00  0.00    +0.000 NA
ATOM      6  N   UNL     1       1.871   1.715  18.297  0.00  0.00    +0.000 N 
ATOM      7  C   UNL     1       1.820   2.689  19.323  0.00  0.00    +0.000 A 
ATOM      8  C   UNL     1       0.672   3.427  19.582  0.00  0.00    +0.000 A 
ATOM      9  C   UNL     1       0.715   4.447  20.531  0.00  0.00    +0.000 A 
ATOM     10  C   UNL     1       1.885   4.696  21.265  0.00  0.00    +0.000 A 
ATOM     11  C   UNL     1       3.055   3.998  20.987  0.00  0.00    +0.000 A 
ATOM     12  C   UNL     1       3.009   3.049  19.977  0.00  0.00    +0.000 A 
ATOM     13  C   UNL     1       4.202   2.631  19.224  0.00  0.00    +0.000 A 
ATOM     14  O   UNL     1       5.275   2.341  19.717  0.00  0.00    +0.000 OA
ATOM     15  H   UNL     1       2.066   0.795  18.710  0.00  0.00    +0.000 HD
ENDBRANCH   2   4
BRANCH   1  16
ATOM     16  C   UNL     1       3.672   5.542  17.982  0.00  0.00    +0.000 C 
ATOM     17  C   UNL     1       2.240   5.936  17.692  0.00  0.00    +0.000 C 
ATOM     18  C   UNL     1       3.231   6.971  18.117  0.00  0.00    +0.000 C 
ENDBRANCH   1  16
BRANCH   1  20
ATOM     19  C   UNL     1       4.915   6.956  15.473  0.00  0.00    +0.000 C 
ATOM     20  C   UNL     1       5.531   5.850  16.348  0.00  0.00    +0.000 C 
BRANCH  20  21
ATOM     21  C   UNL     1       6.511   6.345  17.410  0.00  0.00    +0.000 A 
ATOM     22  C   UNL     1       7.131   5.481  18.329  0.00  0.00    +0.000 A 
ATOM     23  C   UNL     1       8.137   5.933  19.183  0.00  0.00    +0.000 A 
ATOM     24  C   UNL     1       8.548   7.261  19.130  0.00  0.00    +0.000 A 
ATOM     25  C   UNL     1       7.944   8.151  18.232  0.00  0.00    +0.000 A 
ATOM     26  C   UNL     1       6.904   7.694  17.404  0.00  0.00    +0.000 A 
BRANCH  25  27
ATOM     27  C   UNL     1       8.442   9.568  18.094  0.00  0.00    +0.000 C 
ATOM     28  F   UNL     1       9.525   9.691  17.275  0.00  0.00    +0.000 F 
ATOM     29  F   UNL     1       7.495  10.403  17.581  0.00  0.00    +0.000 F 
ATOM     30  F   UNL     1       8.810  10.112  19.286  0.00  0.00    +0.000 F 
ENDBRANCH  25  27
ENDBRANCH  20  21
ENDBRANCH   1  20
TORSDOF 5
ENDMDL
MODEL 2
REMARK VINA RESULT:      -7.1      5.363      7.606
REMARK  Name = 
REMARK  6 active torsions:
REMARK  status: ('A' for Active; 'I' for Inactive)
REMARK    1  A    between atoms: C_1  and  C_2
REMARK    2  A    between atoms: C_2  and  C_3
REMARK    3  A    between atoms: C_2  and  N_13
REMARK    4  A    between atoms: C_7  and  C_8
REMARK    5  A    between atoms: N_13  and  C_27
REMARK    6  A    between atoms: C_14  and  C_16
REMARK                            x       y       z     vdW  Elec       q    Type
REMARK                         _______ _______ _______ _____ _____    ______ ____
ROOT
ATOM      1  N   UNL     1       1.358   8.534  19.492  0.00  0.00    +0.000 N 
ATOM      2  C   UNL     1       1.948   7.665  18.538  0.00  0.00    +0.000 C 
ATOM      3  O   UNL     1       2.221   7.980  17.381  0.00  0.00    +0.000 OA
ENDROOT
BRANCH   2   4
ATOM      4  C   UNL     1       2.487   6.310  18.954  0.00  0.00    +0.000 A 
ATOM      5  N   UNL     1       3.265   6.213  20.005  0.00  0.00    +0.000 NA
ATOM      6  N   UNL     1       4.190   5.193  20.020  0.00  0.00    +0.000 N 
ATOM      7  C   UNL     1       4.720   4.952  18.729  0.00  0.00    +0.000 A 
ATOM      8  C   UNL     1       6.069   5.118  18.445  0.00  0.00    +0.000 A 
ATOM      9  C   UNL     1       6.515   4.972  17.131  0.00  0.00    +0.000 A 
ATOM     10  C   UNL     1       5.625   4.605  16.109  0.00  0.00    +0.000 A 
ATOM     11  C   UNL     1       4.264   4.480  16.368  0.00  0.00    +0.000 A 
ATOM     12  C   UNL     1       3.835   4.716  17.664  0.00  0.00    +0.000 A 
ATOM     13  C   UNL     1       2.462   5.140  17.983  0.00  0.00    +0.000 A 
ATOM     14  O   UNL     1       1.452   4.637  17.530  0.00  0.00    +0.000 OA
ATOM     15  H   UNL     1       3.784   4.324  20.388  0.00  0.00    +0.000 HD
ENDBRANCH   2   4
BRANCH   1  16
ATOM     16  C   UNL     1       1.344   8.188  20.902  0.00  0.00    +0.000 C 
ATOM     17  C   UNL     1       0.025   8.218  21.645  0.00  0.00    +0.000 C 
ATOM     18  C   UNL     1       1.140   9.124  22.058  0.00  0.00    +0.000 C 
ENDBRANCH   1  16
BRANCH   1  20
ATOM     19  C   UNL     1       2.248  10.326  18.011  0.00  0.00    +0.000 C 
ATOM     20  C   UNL     1       1.300   9.985  19.173  0.00  0.00    +0.000 C 
BRANCH  20  21
ATOM     21  C   UNL     1      -0.130  10.494  19.003  0.00  0.00    +0.000 A 
ATOM     22  C   UNL     1      -0.711  11.428  19.879  0.00  0.00    +0.000 A 
ATOM     23  C   UNL     1      -1.958  11.993  19.612  0.00  0.00    +0.000 A 
ATOM     24  C   UNL     1      -2.649  11.636  18.458  0.00  0.00    +0.000 A 
ATOM     25  C   UNL     1      -2.103  10.702  17.569  0.00  0.00    +0.000 A 
ATOM     26  C   UNL     1      -0.863  10.110  17.868  0.00  0.00    +0.000 A 
BRANCH  25  27
ATOM     27  C   UNL     1      -2.793  10.378  16.267  0.00  0.00    +0.000 C 
ATOM     28  F   UNL     1      -2.538  11.275  15.274  0.00  0.00    +0.000 F 
ATOM     29  F   UNL     1      -2.420   9.163  15.772  0.00  0.00    +0.000 F 
ATOM     30  F   UNL     1      -4.147  10.329  16.390  0.00  0.00    +0.000 F 
ENDBRANCH  25  27
ENDBRANCH  20  21
ENDBRANCH   1  20
TORSDOF 5
ENDMDL
MODEL 3
REMARK VINA RESULT:      -7.0      5.571      7.648
REMARK  Name = 
REMARK  6 active torsions:
REMARK  status: ('A' for Active; 'I' for Inactive)
REMARK    1  A    between atoms: C_1  and  C_2
REMARK    2  A    between atoms: C_2  and  C_3
REMARK    3  A    between atoms: C_2  and  N_13
REMARK    4  A    between atoms: C_7  and  C_8
REMARK    5  A    between atoms: N_13  and  C_27
REMARK    6  A    between atoms: C_14  and  C_16
REMARK                            x       y       z     vdW  Elec       q    Type
REMARK                         _______ _______ _______ _____ _____    ______ ____
ROOT
ATOM      1  N   UNL     1       1.220   8.917  19.778  0.00  0.00    +0.000 N 
ATOM      2  C   UNL     1       1.910   7.970  18.978  0.00  0.00    +0.000 C 
ATOM      3  O   UNL     1       2.172   8.121  17.786  0.00  0.00    +0.000 OA
ENDROOT
BRANCH   2   4
ATOM      4  C   UNL     1       2.572   6.760  19.607  0.00  0.00    +0.000 A 
ATOM      5  N   UNL     1       3.881   6.689  19.666  0.00  0.00    +0.000 NA
ATOM      6  N   UNL     1       4.451   5.436  19.654  0.00  0.00    +0.000 N 
ATOM      7  C   UNL     1       3.737   4.546  18.815  0.00  0.00    +0.000 A 
ATOM      8  C   UNL     1       4.317   3.964  17.696  0.00  0.00    +0.000 A 
ATOM      9  C   UNL     1       3.533   3.183  16.847  0.00  0.00    +0.000 A 
ATOM     10  C   UNL     1       2.184   2.934  17.144  0.00  0.00    +0.000 A 
ATOM     11  C   UNL     1       1.576   3.547  18.235  0.00  0.00    +0.000 A 
ATOM     12  C   UNL     1       2.355   4.388  19.012  0.00  0.00    +0.000 A 
ATOM     13  C   UNL     1       1.785   5.476  19.824  0.00  0.00    +0.000 A 
ATOM     14  O   UNL     1       0.820   5.370  20.556  0.00  0.00    +0.000 OA
ATOM     15  H   UNL     1       4.507   5.041  20.600  0.00  0.00    +0.000 HD
ENDBRANCH   2   4
BRANCH   1  16
ATOM     16  C   UNL     1       1.215   8.801  21.226  0.00  0.00    +0.000 C 
ATOM     17  C   UNL     1      -0.100   8.540  21.929  0.00  0.00    +0.000 C 
ATOM     18  C   UNL     1       0.665   9.795  22.207  0.00  0.00    +0.000 C 
ENDBRANCH   1  16
BRANCH   1  20
ATOM     19  C   UNL     1       1.955  10.528  18.028  0.00  0.00    +0.000 C 
ATOM     20  C   UNL     1       1.025  10.285  19.230  0.00  0.00    +0.000 C 
BRANCH  20  21
ATOM     21  C   UNL     1      -0.445  10.615  18.979  0.00  0.00    +0.000 A 
ATOM     22  C   UNL     1      -1.192  11.440  19.838  0.00  0.00    +0.000 A 
ATOM     23  C   UNL     1      -2.483  11.852  19.505  0.00  0.00    +0.000 A 
ATOM     24  C   UNL     1      -3.051  11.449  18.300  0.00  0.00    +0.000 A 
ATOM     25  C   UNL     1      -2.336  10.619  17.425  0.00  0.00    +0.000 A 
ATOM     26  C   UNL     1      -1.052  10.179  17.790  0.00  0.00    +0.000 A 
BRANCH  25  27
ATOM     27  C   UNL     1      -2.898  10.253  16.075  0.00  0.00    +0.000 C 
ATOM     28  F   UNL     1      -2.528   9.013  15.646  0.00  0.00    +0.000 F 
ATOM     29  F   UNL     1      -4.262  10.255  16.064  0.00  0.00    +0.000 F 
ATOM     30  F   UNL     1      -2.517  11.118  15.096  0.00  0.00    +0.000 F 
ENDBRANCH  25  27
ENDBRANCH  20  21
ENDBRANCH   1  20
TORSDOF 5
ENDMDL
MODEL 4
REMARK VINA RESULT:      -7.0      7.577      9.288
REMARK  Name = 
REMARK  6 active torsions:
REMARK  status: ('A' for Active; 'I' for Inactive)
REMARK    1  A    between atoms: C_1  and  C_2
REMARK    2  A    between atoms: C_2  and  C_3
REMARK    3  A    between atoms: C_2  and  N_13
REMARK    4  A    between atoms: C_7  and  C_8
REMARK    5  A    between atoms: N_13  and  C_27
REMARK    6  A    between atoms: C_14  and  C_16
REMARK                            x       y       z     vdW  Elec       q    Type
REMARK                         _______ _______ _______ _____ _____    ______ ____
ROOT
ATOM      1  N   UNL     1       0.085  11.065  19.800  0.00  0.00    +0.000 N 
ATOM      2  C   UNL     1      -1.208  10.754  19.308  0.00  0.00    +0.000 C 
ATOM      3  O   UNL     1      -1.687   9.621  19.264  0.00  0.00    +0.000 OA
ENDROOT
BRANCH   2   4
ATOM      4  C   UNL     1      -2.199  11.855  18.983  0.00  0.00    +0.000 A 
ATOM      5  N   UNL     1      -2.426  12.806  19.859  0.00  0.00    +0.000 NA
ATOM      6  N   UNL     1      -3.669  13.398  19.846  0.00  0.00    +0.000 N 
ATOM      7  C   UNL     1      -4.689  12.461  19.545  0.00  0.00    +0.000 A 
ATOM      8  C   UNL     1      -5.703  12.164  20.446  0.00  0.00    +0.000 A 
ATOM      9  C   UNL     1      -6.616  11.155  20.139  0.00  0.00    +0.000 A 
ATOM     10  C   UNL     1      -6.553  10.480  18.910  0.00  0.00    +0.000 A 
ATOM     11  C   UNL     1      -5.517  10.734  18.017  0.00  0.00    +0.000 A 
ATOM     12  C   UNL     1      -4.572  11.679  18.385  0.00  0.00    +0.000 A 
ATOM     13  C   UNL     1      -3.201  11.683  17.852  0.00  0.00    +0.000 A 
ATOM     14  O   UNL     1      -2.905  11.556  16.679  0.00  0.00    +0.000 OA
ATOM     15  H   UNL     1      -3.710  14.172  19.173  0.00  0.00    +0.000 HD
ENDBRANCH   2   4
BRANCH   1  16
ATOM     16  C   UNL     1       0.457  12.436  20.096  0.00  0.00    +0.000 C 
ATOM     17  C   UNL     1       1.295  13.196  19.090  0.00  0.00    +0.000 C 
ATOM     18  C   UNL     1       1.822  12.941  20.466  0.00  0.00    +0.000 C 
ENDBRANCH   1  16
BRANCH   1  20
ATOM     19  C   UNL     1      -0.046   9.456  21.696  0.00  0.00    +0.000 C 
ATOM     20  C   UNL     1       0.819  10.011  20.551  0.00  0.00    +0.000 C 
BRANCH  20  21
ATOM     21  C   UNL     1       1.426   8.950  19.636  0.00  0.00    +0.000 A 
ATOM     22  C   UNL     1       1.913   9.249  18.350  0.00  0.00    +0.000 A 
ATOM     23  C   UNL     1       2.603   8.297  17.599  0.00  0.00    +0.000 A 
ATOM     24  C   UNL     1       2.824   7.027  18.121  0.00  0.00    +0.000 A 
ATOM     25  C   UNL     1       2.345   6.694  19.396  0.00  0.00    +0.000 A 
ATOM     26  C   UNL     1       1.617   7.649  20.127  0.00  0.00    +0.000 A 
BRANCH  25  27
ATOM     27  C   UNL     1       2.659   5.356  20.015  0.00  0.00    +0.000 C 
ATOM     28  F   UNL     1       2.085   4.304  19.366  0.00  0.00    +0.000 F 
ATOM     29  F   UNL     1       3.997   5.094  20.030  0.00  0.00    +0.000 F 
ATOM     30  F   UNL     1       2.249   5.267  21.309  0.00  0.00    +0.000 F 
ENDBRANCH  25  27
ENDBRANCH  20  21
ENDBRANCH   1  20
TORSDOF 5
ENDMDL
MODEL 5
REMARK VINA RESULT:      -6.9     10.777     12.544
REMARK  Name = 
REMARK  6 active torsions:
REMARK  status: ('A' for Active; 'I' for Inactive)
REMARK    1  A    between atoms: C_1  and  C_2
REMARK    2  A    between atoms: C_2  and  C_3
REMARK    3  A    between atoms: C_2  and  N_13
REMARK    4  A    between atoms: C_7  and  C_8
REMARK    5  A    between atoms: N_13  and  C_27
REMARK    6  A    between atoms: C_14  and  C_16
REMARK                            x       y       z     vdW  Elec       q    Type
REMARK                         _______ _______ _______ _____ _____    ______ ____
ROOT
ATOM      1  N   UNL     1      -3.051  13.187  21.320  0.00  0.00    +0.000 N 
ATOM      2  C   UNL     1      -2.526  12.974  22.621  0.00  0.00    +0.000 C 
ATOM      3  O   UNL     1      -1.327  12.923  22.892  0.00  0.00    +0.000 OA
ENDROOT
BRANCH   2   4
ATOM      4  C   UNL     1      -3.433  13.003  23.836  0.00  0.00    +0.000 A 
ATOM      5  N   UNL     1      -4.010  11.898  24.246  0.00  0.00    +0.000 NA
ATOM      6  N   UNL     1      -5.219  12.015  24.894  0.00  0.00    +0.000 N 
ATOM      7  C   UNL     1      -6.006  13.055  24.343  0.00  0.00    +0.000 A 
ATOM      8  C   UNL     1      -7.237  12.810  23.748  0.00  0.00    +0.000 A 
ATOM      9  C   UNL     1      -7.916  13.858  23.127  0.00  0.00    +0.000 A 
ATOM     10  C   UNL     1      -7.398  15.162  23.148  0.00  0.00    +0.000 A 
ATOM     11  C   UNL     1      -6.146  15.416  23.700  0.00  0.00    +0.000 A 
ATOM     12  C   UNL     1      -5.452  14.341  24.232  0.00  0.00    +0.000 A 
ATOM     13  C   UNL     1      -3.986  14.322  24.354  0.00  0.00    +0.000 A 
ATOM     14  O   UNL     1      -3.309  15.231  24.796  0.00  0.00    +0.000 OA
ATOM     15  H   UNL     1      -5.092  12.180  25.899  0.00  0.00    +0.000 HD
ENDBRANCH   2   4
BRANCH   1  16
ATOM     16  C   UNL     1      -4.448  13.533  21.131  0.00  0.00    +0.000 C 
ATOM     17  C   UNL     1      -5.406  12.458  20.664  0.00  0.00    +0.000 C 
ATOM     18  C   UNL     1      -5.174  13.672  19.824  0.00  0.00    +0.000 C 
ENDBRANCH   1  16
BRANCH   1  20
ATOM     19  C   UNL     1      -1.048  14.582  20.828  0.00  0.00    +0.000 C 
ATOM     20  C   UNL     1      -2.116  13.634  20.254  0.00  0.00    +0.000 C 
BRANCH  20  21
ATOM     21  C   UNL     1      -1.564  12.473  19.429  0.00  0.00    +0.000 A 
ATOM     22  C   UNL     1      -0.273  11.951  19.626  0.00  0.00    +0.000 A 
ATOM     23  C   UNL     1       0.147  10.794  18.970  0.00  0.00    +0.000 A 
ATOM     24  C   UNL     1      -0.719  10.132  18.106  0.00  0.00    +0.000 A 
ATOM     25  C   UNL     1      -2.009  10.631  17.881  0.00  0.00    +0.000 A 
ATOM     26  C   UNL     1      -2.408  11.819  18.517  0.00  0.00    +0.000 A 
BRANCH  25  27
ATOM     27  C   UNL     1      -2.993   9.873  17.024  0.00  0.00    +0.000 C 
ATOM     28  F   UNL     1      -3.974  10.657  16.494  0.00  0.00    +0.000 F 
ATOM     29  F   UNL     1      -2.392   9.265  15.961  0.00  0.00    +0.000 F 
ATOM     30  F   UNL     1      -3.630   8.884  17.706  0.00  0.00    +0.000 F 
ENDBRANCH  25  27
ENDBRANCH  20  21
ENDBRANCH   1  20
TORSDOF 5
ENDMDL
MODEL 6
REMARK VINA RESULT:      -6.9      3.248      4.676
REMARK  Name = 
REMARK  6 active torsions:
REMARK  status: ('A' for Active; 'I' for Inactive)
REMARK    1  A    between atoms: C_1  and  C_2
REMARK    2  A    between atoms: C_2  and  C_3
REMARK    3  A    between atoms: C_2  and  N_13
REMARK    4  A    between atoms: C_7  and  C_8
REMARK    5  A    between atoms: N_13  and  C_27
REMARK    6  A    between atoms: C_14  and  C_16
REMARK                            x       y       z     vdW  Elec       q    Type
REMARK                         _______ _______ _______ _____ _____    ______ ____
ROOT
ATOM      1  N   UNL     1       4.917   6.215  17.820  0.00  0.00    +0.000 N 
ATOM      2  C   UNL     1       3.537   6.519  17.949  0.00  0.00    +0.000 C 
ATOM      3  O   UNL     1       2.941   7.359  17.277  0.00  0.00    +0.000 OA
ENDROOT
BRANCH   2   4
ATOM      4  C   UNL     1       2.631   5.658  18.807  0.00  0.00    +0.000 A 
ATOM      5  N   UNL     1       2.700   5.739  20.115  0.00  0.00    +0.000 NA
ATOM      6  N   UNL     1       2.372   4.616  20.840  0.00  0.00    +0.000 N 
ATOM      7  C   UNL     1       2.795   3.433  20.187  0.00  0.00    +0.000 A 
ATOM      8  C   UNL     1       3.726   2.572  20.754  0.00  0.00    +0.000 A 
ATOM      9  C   UNL     1       4.185   1.480  20.017  0.00  0.00    +0.000 A 
ATOM     10  C   UNL     1       3.675   1.213  18.737  0.00  0.00    +0.000 A 
ATOM     11  C   UNL     1       2.778   2.090  18.137  0.00  0.00    +0.000 A 
ATOM     12  C   UNL     1       2.405   3.215  18.856  0.00  0.00    +0.000 A 
ATOM     13  C   UNL     1       1.926   4.448  18.212  0.00  0.00    +0.000 A 
ATOM     14  O   UNL     1       1.096   4.498  17.324  0.00  0.00    +0.000 OA
ATOM     15  H   UNL     1       1.362   4.565  21.016  0.00  0.00    +0.000 HD
ENDBRANCH   2   4
BRANCH   1  16
ATOM     16  C   UNL     1       5.473   5.019  18.428  0.00  0.00    +0.000 C 
ATOM     17  C   UNL     1       6.308   5.161  19.682  0.00  0.00    +0.000 C 
ATOM     18  C   UNL     1       6.914   4.599  18.436  0.00  0.00    +0.000 C 
ENDBRANCH   1  16
BRANCH   1  20
ATOM     19  C   UNL     1       6.900   7.517  17.067  0.00  0.00    +0.000 C 
ATOM     20  C   UNL     1       5.642   6.744  16.635  0.00  0.00    +0.000 C 
BRANCH  20  21
ATOM     21  C   UNL     1       5.879   5.680  15.566  0.00  0.00    +0.000 A 
ATOM     22  C   UNL     1       5.043   4.560  15.414  0.00  0.00    +0.000 A 
ATOM     23  C   UNL     1       5.190   3.688  14.335  0.00  0.00    +0.000 A 
ATOM     24  C   UNL     1       6.175   3.924  13.381  0.00  0.00    +0.000 A 
ATOM     25  C   UNL     1       7.030   5.027  13.507  0.00  0.00    +0.000 A 
ATOM     26  C   UNL     1       6.899   5.876  14.619  0.00  0.00    +0.000 A 
BRANCH  25  27
ATOM     27  C   UNL     1       8.038   5.351  12.432  0.00  0.00    +0.000 C 
ATOM     28  F   UNL     1       7.799   6.532  11.796  0.00  0.00    +0.000 F 
ATOM     29  F   UNL     1       9.306   5.446  12.924  0.00  0.00    +0.000 F 
ATOM     30  F   UNL     1       8.087   4.403  11.457  0.00  0.00    +0.000 F 
ENDBRANCH  25  27
ENDBRANCH  20  21
ENDBRANCH   1  20
TORSDOF 5
ENDMDL
MODEL 7
REMARK VINA RESULT:      -6.8      3.680      4.642
REMARK  Name = 
REMARK  6 active torsions:
REMARK  status: ('A' for Active; 'I' for Inactive)
REMARK    1  A    between atoms: C_1  and  C_2
REMARK    2  A    between atoms: C_2  and  C_3
REMARK    3  A    between atoms: C_2  and  N_13
REMARK    4  A    between atoms: C_7  and  C_8
REMARK    5  A    between atoms: N_13  and  C_27
REMARK    6  A    between atoms: C_14  and  C_16
REMARK                            x       y       z     vdW  Elec       q    Type
REMARK                         _______ _______ _______ _____ _____    ______ ____
ROOT
ATOM      1  N   UNL     1       4.465   4.810  16.880  0.00  0.00    +0.000 N 
ATOM      2  C   UNL     1       4.695   3.410  16.886  0.00  0.00    +0.000 C 
ATOM      3  O   UNL     1       5.607   2.848  16.281  0.00  0.00    +0.000 OA
ENDROOT
BRANCH   2   4
ATOM      4  C   UNL     1       3.932   2.504  17.833  0.00  0.00    +0.000 A 
ATOM      5  N   UNL     1       2.832   1.915  17.428  0.00  0.00    +0.000 NA
ATOM      6  N   UNL     1       1.877   1.629  18.378  0.00  0.00    +0.000 N 
ATOM      7  C   UNL     1       1.809   2.639  19.368  0.00  0.00    +0.000 A 
ATOM      8  C   UNL     1       0.661   3.394  19.571  0.00  0.00    +0.000 A 
ATOM      9  C   UNL     1       0.687   4.447  20.485  0.00  0.00    +0.000 A 
ATOM     10  C   UNL     1       1.841   4.713  21.239  0.00  0.00    +0.000 A 
ATOM     11  C   UNL     1       3.012   3.997  21.015  0.00  0.00    +0.000 A 
ATOM     12  C   UNL     1       2.984   3.014  20.039  0.00  0.00    +0.000 A 
ATOM     13  C   UNL     1       4.192   2.561  19.331  0.00  0.00    +0.000 A 
ATOM     14  O   UNL     1       5.250   2.281  19.861  0.00  0.00    +0.000 OA
ATOM     15  H   UNL     1       2.055   0.723  18.828  0.00  0.00    +0.000 HD
ENDBRANCH   2   4
BRANCH   1  16
ATOM     16  C   UNL     1       3.568   5.419  17.845  0.00  0.00    +0.000 C 
ATOM     17  C   UNL     1       2.171   5.796  17.401  0.00  0.00    +0.000 C 
ATOM     18  C   UNL     1       3.117   6.850  17.878  0.00  0.00    +0.000 C 
ENDBRANCH   1  16
BRANCH   1  20
ATOM     19  C   UNL     1       6.650   5.902  17.363  0.00  0.00    +0.000 C 
ATOM     20  C   UNL     1       5.530   5.690  16.330  0.00  0.00    +0.000 C 
BRANCH  20  21
ATOM     21  C   UNL     1       6.009   5.244  14.950  0.00  0.00    +0.000 A 
ATOM     22  C   UNL     1       7.363   5.276  14.572  0.00  0.00    +0.000 A 
ATOM     23  C   UNL     1       7.791   4.718  13.367  0.00  0.00    +0.000 A 
ATOM     24  C   UNL     1       6.872   4.111  12.517  0.00  0.00    +0.000 A 
ATOM     25  C   UNL     1       5.514   4.070  12.860  0.00  0.00    +0.000 A 
ATOM     26  C   UNL     1       5.088   4.670  14.058  0.00  0.00    +0.000 A 
BRANCH  25  27
ATOM     27  C   UNL     1       4.521   3.332  11.997  0.00  0.00    +0.000 C 
ATOM     28  F   UNL     1       4.095   4.048  10.918  0.00  0.00    +0.000 F 
ATOM     29  F   UNL     1       5.033   2.174  11.492  0.00  0.00    +0.000 F 
ATOM     30  F   UNL     1       3.398   2.976  12.678  0.00  0.00    +0.000 F 
ENDBRANCH  25  27
ENDBRANCH  20  21
ENDBRANCH   1  20
TORSDOF 5
ENDMDL
MODEL 8
REMARK VINA RESULT:      -6.6      5.515      7.709
REMARK  Name = 
REMARK  6 active torsions:
REMARK  status: ('A' for Active; 'I' for Inactive)
REMARK    1  A    between atoms: C_1  and  C_2
REMARK    2  A    between atoms: C_2  and  C_3
REMARK    3  A    between atoms: C_2  and  N_13
REMARK    4  A    between atoms: C_7  and  C_8
REMARK    5  A    between atoms: N_13  and  C_27
REMARK    6  A    between atoms: C_14  and  C_16
REMARK                            x       y       z     vdW  Elec       q    Type
REMARK                         _______ _______ _______ _____ _____    ______ ____
ROOT
ATOM      1  N   UNL     1       1.419   8.609  19.324  0.00  0.00    +0.000 N 
ATOM      2  C   UNL     1       2.091   7.769  18.400  0.00  0.00    +0.000 C 
ATOM      3  O   UNL     1       2.403   8.096  17.256  0.00  0.00    +0.000 OA
ENDROOT
BRANCH   2   4
ATOM      4  C   UNL     1       2.673   6.441  18.843  0.00  0.00    +0.000 A 
ATOM      5  N   UNL     1       3.535   6.403  19.832  0.00  0.00    +0.000 NA
ATOM      6  N   UNL     1       4.466   5.389  19.827  0.00  0.00    +0.000 N 
ATOM      7  C   UNL     1       4.893   5.081  18.512  0.00  0.00    +0.000 A 
ATOM      8  C   UNL     1       6.213   5.237  18.112  0.00  0.00    +0.000 A 
ATOM      9  C   UNL     1       6.553   5.021  16.777  0.00  0.00    +0.000 A 
ATOM     10  C   UNL     1       5.588   4.595  15.851  0.00  0.00    +0.000 A 
ATOM     11  C   UNL     1       4.253   4.479  16.225  0.00  0.00    +0.000 A 
ATOM     12  C   UNL     1       3.927   4.784  17.537  0.00  0.00    +0.000 A 
ATOM     13  C   UNL     1       2.581   5.219  17.942  0.00  0.00    +0.000 A 
ATOM     14  O   UNL     1       1.542   4.688  17.600  0.00  0.00    +0.000 OA
ATOM     15  H   UNL     1       4.099   4.541  20.273  0.00  0.00    +0.000 HD
ENDBRANCH   2   4
BRANCH   1  16
ATOM     16  C   UNL     1       1.356   8.264  20.733  0.00  0.00    +0.000 C 
ATOM     17  C   UNL     1       0.013   8.293  21.429  0.00  0.00    +0.000 C 
ATOM     18  C   UNL     1       1.113   9.199  21.881  0.00  0.00    +0.000 C 
ENDBRANCH   1  16
BRANCH   1  20
ATOM     19  C   UNL     1       2.382  10.470  17.979  0.00  0.00    +0.000 C 
ATOM     20  C   UNL     1       1.307  10.056  19.000  0.00  0.00    +0.000 C 
BRANCH  20  21
ATOM     21  C   UNL     1      -0.116  10.470  18.633  0.00  0.00    +0.000 A 
ATOM     22  C   UNL     1      -0.857   9.823  17.628  0.00  0.00    +0.000 A 
ATOM     23  C   UNL     1      -2.205  10.116  17.421  0.00  0.00    +0.000 A 
ATOM     24  C   UNL     1      -2.842  11.061  18.220  0.00  0.00    +0.000 A 
ATOM     25  C   UNL     1      -2.130  11.729  19.225  0.00  0.00    +0.000 A 
ATOM     26  C   UNL     1      -0.762  11.454  19.399  0.00  0.00    +0.000 A 
BRANCH  25  27
ATOM     27  C   UNL     1      -2.827  12.683  20.163  0.00  0.00    +0.000 C 
ATOM     28  F   UNL     1      -2.847  12.261  21.458  0.00  0.00    +0.000 F 
ATOM     29  F   UNL     1      -2.237  13.912  20.184  0.00  0.00    +0.000 F 
ATOM     30  F   UNL     1      -4.126  12.900  19.820  0.00  0.00    +0.000 F 
ENDBRANCH  25  27
ENDBRANCH  20  21
ENDBRANCH   1  20
TORSDOF 5
ENDMDL
MODEL 9
REMARK VINA RESULT:      -6.6     10.315     11.949
REMARK  Name = 
REMARK  6 active torsions:
REMARK  status: ('A' for Active; 'I' for Inactive)
REMARK    1  A    between atoms: C_1  and  C_2
REMARK    2  A    between atoms: C_2  and  C_3
REMARK    3  A    between atoms: C_2  and  N_13
REMARK    4  A    between atoms: C_7  and  C_8
REMARK    5  A    between atoms: N_13  and  C_27
REMARK    6  A    between atoms: C_14  and  C_16
REMARK                            x       y       z     vdW  Elec       q    Type
REMARK                         _______ _______ _______ _____ _____    ______ ____
ROOT
ATOM      1  N   UNL     1      -2.843  12.720  21.372  0.00  0.00    +0.000 N 
ATOM      2  C   UNL     1      -2.452  12.955  22.715  0.00  0.00    +0.000 C 
ATOM      3  O   UNL     1      -1.313  13.258  23.069  0.00  0.00    +0.000 OA
ENDROOT
BRANCH   2   4
ATOM      4  C   UNL     1      -3.488  13.053  23.817  0.00  0.00    +0.000 A 
ATOM      5  N   UNL     1      -4.024  11.960  24.308  0.00  0.00    +0.000 NA
ATOM      6  N   UNL     1      -5.304  12.049  24.808  0.00  0.00    +0.000 N 
ATOM      7  C   UNL     1      -6.099  12.941  24.049  0.00  0.00    +0.000 A 
ATOM      8  C   UNL     1      -7.234  12.519  23.369  0.00  0.00    +0.000 A 
ATOM      9  C   UNL     1      -7.915  13.419  22.550  0.00  0.00    +0.000 A 
ATOM     10  C   UNL     1      -7.500  14.756  22.453  0.00  0.00    +0.000 A 
ATOM     11  C   UNL     1      -6.340  15.184  23.091  0.00  0.00    +0.000 A 
ATOM     12  C   UNL     1      -5.633  14.247  23.828  0.00  0.00    +0.000 A 
ATOM     13  C   UNL     1      -4.192  14.372  24.099  0.00  0.00    +0.000 A 
ATOM     14  O   UNL     1      -3.637  15.384  24.484  0.00  0.00    +0.000 OA
ATOM     15  H   UNL     1      -5.302  12.346  25.791  0.00  0.00    +0.000 HD
ENDBRANCH   2   4
BRANCH   1  16
ATOM     16  C   UNL     1      -4.246  12.665  21.006  0.00  0.00    +0.000 C 
ATOM     17  C   UNL     1      -4.617  12.208  19.611  0.00  0.00    +0.000 C 
ATOM     18  C   UNL     1      -4.971  13.586  20.069  0.00  0.00    +0.000 C 
ENDBRANCH   1  16
BRANCH   1  20
ATOM     19  C   UNL     1      -1.259  14.478  20.596  0.00  0.00    +0.000 C 
ATOM     20  C   UNL     1      -1.900  13.112  20.291  0.00  0.00    +0.000 C 
BRANCH  20  21
ATOM     21  C   UNL     1      -0.909  12.004  19.943  0.00  0.00    +0.000 A 
ATOM     22  C   UNL     1       0.059  12.144  18.932  0.00  0.00    +0.000 A 
ATOM     23  C   UNL     1       1.050  11.181  18.740  0.00  0.00    +0.000 A 
ATOM     24  C   UNL     1       1.096  10.059  19.561  0.00  0.00    +0.000 A 
ATOM     25  C   UNL     1       0.141   9.884  20.572  0.00  0.00    +0.000 A 
ATOM     26  C   UNL     1      -0.876  10.842  20.730  0.00  0.00    +0.000 A 
BRANCH  25  27
ATOM     27  C   UNL     1       0.234   8.724  21.531  0.00  0.00    +0.000 C 
ATOM     28  F   UNL     1       1.153   7.785  21.168  0.00  0.00    +0.000 F 
ATOM     29  F   UNL     1       0.587   9.118  22.788  0.00  0.00    +0.000 F 
ATOM     30  F   UNL     1      -0.946   8.061  21.667  0.00  0.00    +0.000 F 
ENDBRANCH  25  27
ENDBRANCH  20  21
ENDBRANCH   1  20
TORSDOF 5
ENDMDL
