MODEL 1
REMARK VINA RESULT:      -9.0      0.000      0.000
REMARK  Name = 
REMARK  6 active torsions:
REMARK  status: ('A' for Active; 'I' for Inactive)
REMARK    1  A    between atoms: C_1  and  O_2
REMARK    2  A    between atoms: O_2  and  C_3
REMARK    3  A    between atoms: C_7  and  C_8
REMARK    4  A    between atoms: C_8  and  C_9
REMARK    5  A    between atoms: N_13  and  C_14
REMARK    6  A    between atoms: C_14  and  C_15
REMARK                            x       y       z     vdW  Elec       q    Type
REMARK                         _______ _______ _______ _____ _____    ______ ____
ROOT
ATOM      1  C   UNL     1       0.361  10.419  18.906  0.00  0.00    +0.000 C 
ATOM      2  C   UNL     1       1.028  11.653  19.532  0.00  0.00    +0.000 C 
ATOM      3  N   UNL     1       1.146   9.968  17.755  0.00  0.00    +0.000 N 
ATOM      4  C   UNL     1       1.936   8.886  18.040  0.00  0.00    +0.000 C 
ATOM      5  O   UNL     1       2.761   8.469  17.248  0.00  0.00    +0.000 OA
ATOM      6  N   UNL     1       1.664   8.453  19.306  0.00  0.00    +0.000 N 
ATOM      7  C   UNL     1       0.674   9.236  19.866  0.00  0.00    +0.000 C 
ATOM      8  O   UNL     1       0.227   9.110  21.002  0.00  0.00    +0.000 OA
ATOM      9  H   UNL     1       1.203  10.439  16.863  0.00  0.00    +0.000 HD
ENDROOT
BRANCH   1  14
ATOM     10  C   UNL     1      -2.870  10.166  16.841  0.00  0.00    +0.000 A 
ATOM     11  C   UNL     1      -3.744  10.972  17.562  0.00  0.00    +0.000 A 
ATOM     12  C   UNL     1      -3.287  11.638  18.703  0.00  0.00    +0.000 A 
ATOM     13  C   UNL     1      -1.964  11.489  19.147  0.00  0.00    +0.000 A 
ATOM     14  C   UNL     1      -1.063  10.682  18.447  0.00  0.00    +0.000 A 
ATOM     15  C   UNL     1      -1.541  10.050  17.273  0.00  0.00    +0.000 A 
BRANCH  10  17
ATOM     16  C   UNL     1      -3.127  10.132  14.474  0.00  0.00    +0.000 C 
ATOM     17  O   UNL     1      -3.172   9.445  15.719  0.00  0.00    +0.000 OA
ENDBRANCH  10  17
ENDBRANCH   1  14
BRANCH   6  18
ATOM     18  C   UNL     1       2.533   7.522  20.001  0.00  0.00    +0.000 C 
BRANCH  18  19
ATOM     19  C   UNL     1       2.228   6.064  19.726  0.00  0.00    +0.000 A 
ATOM     20  C   UNL     1       1.255   5.447  20.536  0.00  0.00    +0.000 A 
ATOM     21  C   UNL     1       0.854   4.138  20.307  0.00  0.00    +0.000 A 
ATOM     22  C   UNL     1       1.297   3.488  19.164  0.00  0.00    +0.000 A 
ATOM     23  C   UNL     1       2.268   4.079  18.344  0.00  0.00    +0.000 A 
ATOM     24  C   UNL     1       2.689   3.426  17.185  0.00  0.00    +0.000 A 
ATOM     25  C   UNL     1       3.983   3.588  16.725  0.00  0.00    +0.000 A 
ATOM     26  C   UNL     1       4.701   4.683  17.172  0.00  0.00    +0.000 A 
ATOM     27  C   UNL     1       4.091   5.604  18.041  0.00  0.00    +0.000 A 
ATOM     28  C   UNL     1       2.873   5.297  18.706  0.00  0.00    +0.000 A 
ENDBRANCH  18  19
ENDBRANCH   6  18
TORSDOF 4
ENDMDL
MODEL 2
REMARK VINA RESULT:      -8.6      1.122      1.847
REMARK  Name = 
REMARK  6 active torsions:
REMARK  status: ('A' for Active; 'I' for Inactive)
REMARK    1  A    between atoms: C_1  and  O_2
REMARK    2  A    between atoms: O_2  and  C_3
REMARK    3  A    between atoms: C_7  and  C_8
REMARK    4  A    between atoms: C_8  and  C_9
REMARK    5  A    between atoms: N_13  and  C_14
REMARK    6  A    between atoms: C_14  and  C_15
REMARK                            x       y       z     vdW  Elec       q    Type
REMARK                         _______ _______ _______ _____ _____    ______ ____
ROOT
ATOM      1  C   UNL     1       0.279  10.373  18.951  0.00  0.00    +0.000 C 
ATOM      2  C   UNL     1       0.916  11.619  19.582  0.00  0.00    +0.000 C 
ATOM      3  N   UNL     1       1.054   9.967  17.776  0.00  0.00    +0.000 N 
ATOM      4  C   UNL     1       1.887   8.907  18.028  0.00  0.00    +0.000 C 
ATOM      5  O   UNL     1       2.708   8.531  17.212  0.00  0.00    +0.000 OA
ATOM      6  N   UNL     1       1.656   8.447  19.292  0.00  0.00    +0.000 N 
ATOM      7  C   UNL     1       0.653   9.186  19.885  0.00  0.00    +0.000 C 
ATOM      8  O   UNL     1       0.234   9.027  21.027  0.00  0.00    +0.000 OA
ATOM      9  H   UNL     1       1.076  10.453  16.891  0.00  0.00    +0.000 HD
ENDROOT
BRANCH   1  14
ATOM     10  C   UNL     1      -3.286  11.807  18.884  0.00  0.00    +0.000 A 
ATOM     11  C   UNL     1      -3.825  11.205  17.753  0.00  0.00    +0.000 A 
ATOM     12  C   UNL     1      -3.053  10.297  17.020  0.00  0.00    +0.000 A 
ATOM     13  C   UNL     1      -1.734  10.001  17.396  0.00  0.00    +0.000 A 
ATOM     14  C   UNL     1      -1.163  10.593  18.525  0.00  0.00    +0.000 A 
ATOM     15  C   UNL     1      -1.979  11.478  19.271  0.00  0.00    +0.000 A 
BRANCH  10  17
ATOM     16  C   UNL     1      -5.227  12.407  20.128  0.00  0.00    +0.000 C 
ATOM     17  O   UNL     1      -3.909  12.720  19.691  0.00  0.00    +0.000 OA
ENDBRANCH  10  17
ENDBRANCH   1  14
BRANCH   6  18
ATOM     18  C   UNL     1       2.571   7.535  19.954  0.00  0.00    +0.000 C 
BRANCH  18  19
ATOM     19  C   UNL     1       2.268   6.070  19.715  0.00  0.00    +0.000 A 
ATOM     20  C   UNL     1       1.323   5.462  20.564  0.00  0.00    +0.000 A 
ATOM     21  C   UNL     1       0.925   4.147  20.371  0.00  0.00    +0.000 A 
ATOM     22  C   UNL     1       1.341   3.478  19.230  0.00  0.00    +0.000 A 
ATOM     23  C   UNL     1       2.286   4.059  18.372  0.00  0.00    +0.000 A 
ATOM     24  C   UNL     1       2.679   3.386  17.215  0.00  0.00    +0.000 A 
ATOM     25  C   UNL     1       3.959   3.547  16.716  0.00  0.00    +0.000 A 
ATOM     26  C   UNL     1       4.680   4.656  17.122  0.00  0.00    +0.000 A 
ATOM     27  C   UNL     1       4.089   5.590  17.990  0.00  0.00    +0.000 A 
ATOM     28  C   UNL     1       2.891   5.287  18.693  0.00  0.00    +0.000 A 
ENDBRANCH  18  19
ENDBRANCH   6  18
TORSDOF 4
ENDMDL
MODEL 3
REMARK VINA RESULT:      -8.6      5.145      8.226
REMARK  Name = 
REMARK  6 active torsions:
REMARK  status: ('A' for Active; 'I' for Inactive)
REMARK    1  A    between atoms: C_1  and  O_2
REMARK    2  A    between atoms: O_2  and  C_3
REMARK    3  A    between atoms: C_7  and  C_8
REMARK    4  A    between atoms: C_8  and  C_9
REMARK    5  A    between atoms: N_13  and  C_14
REMARK    6  A    between atoms: C_14  and  C_15
REMARK                            x       y       z     vdW  Elec       q    Type
REMARK                         _______ _______ _______ _____ _____    ______ ____
ROOT
ATOM      1  C   UNL     1       6.054   5.413  15.578  0.00  0.00    +0.000 C 
ATOM      2  C   UNL     1       5.066   6.583  15.465  0.00  0.00    +0.000 C 
ATOM      3  N   UNL     1       7.218   5.829  16.365  0.00  0.00    +0.000 N 
ATOM      4  C   UNL     1       7.175   5.379  17.658  0.00  0.00    +0.000 C 
ATOM      5  O   UNL     1       7.981   5.748  18.492  0.00  0.00    +0.000 OA
ATOM      6  N   UNL     1       6.100   4.550  17.810  0.00  0.00    +0.000 N 
ATOM      7  C   UNL     1       5.430   4.429  16.609  0.00  0.00    +0.000 C 
ATOM      8  O   UNL     1       4.411   3.770  16.428  0.00  0.00    +0.000 OA
ATOM      9  H   UNL     1       7.941   6.462  16.053  0.00  0.00    +0.000 HD
ENDROOT
BRANCH   1  14
ATOM     10  C   UNL     1       6.180   3.389  12.314  0.00  0.00    +0.000 A 
ATOM     11  C   UNL     1       7.248   3.976  11.645  0.00  0.00    +0.000 A 
ATOM     12  C   UNL     1       7.965   5.007  12.259  0.00  0.00    +0.000 A 
ATOM     13  C   UNL     1       7.610   5.476  13.533  0.00  0.00    +0.000 A 
ATOM     14  C   UNL     1       6.538   4.911  14.229  0.00  0.00    +0.000 A 
ATOM     15  C   UNL     1       5.854   3.842  13.600  0.00  0.00    +0.000 A 
BRANCH  10  17
ATOM     16  C   UNL     1       6.025   1.277  11.223  0.00  0.00    +0.000 C 
ATOM     17  O   UNL     1       5.380   2.386  11.841  0.00  0.00    +0.000 OA
ENDBRANCH  10  17
ENDBRANCH   1  14
BRANCH   6  18
ATOM     18  C   UNL     1       5.617   4.153  19.119  0.00  0.00    +0.000 C 
BRANCH  18  19
ATOM     19  C   UNL     1       4.271   4.741  19.488  0.00  0.00    +0.000 A 
ATOM     20  C   UNL     1       4.046   6.092  19.157  0.00  0.00    +0.000 A 
ATOM     21  C   UNL     1       2.816   6.692  19.386  0.00  0.00    +0.000 A 
ATOM     22  C   UNL     1       1.748   5.906  19.792  0.00  0.00    +0.000 A 
ATOM     23  C   UNL     1       1.946   4.561  20.132  0.00  0.00    +0.000 A 
ATOM     24  C   UNL     1       0.860   3.775  20.517  0.00  0.00    +0.000 A 
ATOM     25  C   UNL     1       1.032   2.743  21.421  0.00  0.00    +0.000 A 
ATOM     26  C   UNL     1       2.312   2.254  21.614  0.00  0.00    +0.000 A 
ATOM     27  C   UNL     1       3.379   2.789  20.872  0.00  0.00    +0.000 A 
ATOM     28  C   UNL     1       3.238   4.006  20.151  0.00  0.00    +0.000 A 
ENDBRANCH  18  19
ENDBRANCH   6  18
TORSDOF 4
ENDMDL
MODEL 4
REMARK VINA RESULT:      -8.4      0.700      1.100
REMARK  Name = 
REMARK  6 active torsions:
REMARK  status: ('A' for Active; 'I' for Inactive)
REMARK    1  A    between atoms: C_1  and  O_2
REMARK    2  A    between atoms: O_2  and  C_3
REMARK    3  A    between atoms: C_7  and  C_8
REMARK    4  A    between atoms: C_8  and  C_9
REMARK    5  A    between atoms: N_13  and  C_14
REMARK    6  A    between atoms: C_14  and  C_15
REMARK                            x       y       z     vdW  Elec       q    Type
REMARK                         _______ _______ _______ _____ _____    ______ ____
ROOT
ATOM      1  C   UNL     1       0.590  10.234  18.904  0.00  0.00    +0.000 C 
ATOM      2  C   UNL     1       1.282  11.381  19.654  0.00  0.00    +0.000 C 
ATOM      3  N   UNL     1       1.378   9.875  17.722  0.00  0.00    +0.000 N 
ATOM      4  C   UNL     1       2.134   8.747  17.908  0.00  0.00    +0.000 C 
ATOM      5  O   UNL     1       2.958   8.386  17.089  0.00  0.00    +0.000 OA
ATOM      6  N   UNL     1       1.833   8.201  19.123  0.00  0.00    +0.000 N 
ATOM      7  C   UNL     1       0.857   8.954  19.746  0.00  0.00    +0.000 C 
ATOM      8  O   UNL     1       0.391   8.730  20.859  0.00  0.00    +0.000 OA
ATOM      9  H   UNL     1       1.460  10.429  16.881  0.00  0.00    +0.000 HD
ENDROOT
BRANCH   1  14
ATOM     10  C   UNL     1      -2.667  10.177  16.865  0.00  0.00    +0.000 A 
ATOM     11  C   UNL     1      -3.486  11.032  17.594  0.00  0.00    +0.000 A 
ATOM     12  C   UNL     1      -2.981  11.668  18.733  0.00  0.00    +0.000 A 
ATOM     13  C   UNL     1      -1.665  11.439  19.165  0.00  0.00    +0.000 A 
ATOM     14  C   UNL     1      -0.820  10.582  18.456  0.00  0.00    +0.000 A 
ATOM     15  C   UNL     1      -1.344   9.982  17.285  0.00  0.00    +0.000 A 
BRANCH  10  17
ATOM     16  C   UNL     1      -3.512  10.227  14.639  0.00  0.00    +0.000 C 
ATOM     17  O   UNL     1      -3.020   9.477  15.744  0.00  0.00    +0.000 OA
ENDBRANCH  10  17
ENDBRANCH   1  14
BRANCH   6  18
ATOM     18  C   UNL     1       2.665   7.182  19.732  0.00  0.00    +0.000 C 
BRANCH  18  19
ATOM     19  C   UNL     1       2.709   5.876  18.966  0.00  0.00    +0.000 A 
ATOM     20  C   UNL     1       1.548   5.078  18.987  0.00  0.00    +0.000 A 
ATOM     21  C   UNL     1       1.469   3.905  18.251  0.00  0.00    +0.000 A 
ATOM     22  C   UNL     1       2.485   3.602  17.355  0.00  0.00    +0.000 A 
ATOM     23  C   UNL     1       3.652   4.377  17.319  0.00  0.00    +0.000 A 
ATOM     24  C   UNL     1       4.656   4.076  16.397  0.00  0.00    +0.000 A 
ATOM     25  C   UNL     1       5.981   4.327  16.704  0.00  0.00    +0.000 A 
ATOM     26  C   UNL     1       6.255   5.224  17.721  0.00  0.00    +0.000 A 
ATOM     27  C   UNL     1       5.195   5.871  18.381  0.00  0.00    +0.000 A 
ATOM     28  C   UNL     1       3.854   5.419  18.241  0.00  0.00    +0.000 A 
ENDBRANCH  18  19
ENDBRANCH   6  18
TORSDOF 4
ENDMDL
MODEL 5
REMARK VINA RESULT:      -8.2      3.104      7.994
REMARK  Name = 
REMARK  6 active torsions:
REMARK  status: ('A' for Active; 'I' for Inactive)
REMARK    1  A    between atoms: C_1  and  O_2
REMARK    2  A    between atoms: O_2  and  C_3
REMARK    3  A    between atoms: C_7  and  C_8
REMARK    4  A    between atoms: C_8  and  C_9
REMARK    5  A    between atoms: N_13  and  C_14
REMARK    6  A    between atoms: C_14  and  C_15
REMARK                            x       y       z     vdW  Elec       q    Type
REMARK                         _______ _______ _______ _____ _____    ______ ____
ROOT
ATOM      1  C   UNL     1       4.493   4.130  18.015  0.00  0.00    +0.000 C 
ATOM      2  C   UNL     1       4.810   2.950  18.945  0.00  0.00    +0.000 C 
ATOM      3  N   UNL     1       3.144   3.974  17.467  0.00  0.00    +0.000 N 
ATOM      4  C   UNL     1       2.217   4.760  18.101  0.00  0.00    +0.000 C 
ATOM      5  O   UNL     1       1.026   4.653  17.877  0.00  0.00    +0.000 OA
ATOM      6  N   UNL     1       2.854   5.571  18.996  0.00  0.00    +0.000 N 
ATOM      7  C   UNL     1       4.215   5.343  18.948  0.00  0.00    +0.000 C 
ATOM      8  O   UNL     1       5.053   5.903  19.648  0.00  0.00    +0.000 OA
ATOM      9  H   UNL     1       2.868   3.298  16.769  0.00  0.00    +0.000 HD
ENDROOT
BRANCH   1  14
ATOM     10  C   UNL     1       5.845   4.167  14.417  0.00  0.00    +0.000 A 
ATOM     11  C   UNL     1       7.156   4.592  14.600  0.00  0.00    +0.000 A 
ATOM     12  C   UNL     1       7.630   4.835  15.893  0.00  0.00    +0.000 A 
ATOM     13  C   UNL     1       6.795   4.677  17.010  0.00  0.00    +0.000 A 
ATOM     14  C   UNL     1       5.472   4.256  16.859  0.00  0.00    +0.000 A 
ATOM     15  C   UNL     1       5.030   3.979  15.542  0.00  0.00    +0.000 A 
BRANCH  10  17
ATOM     16  C   UNL     1       6.022   3.259  12.223  0.00  0.00    +0.000 C 
ATOM     17  O   UNL     1       5.238   3.904  13.220  0.00  0.00    +0.000 OA
ENDBRANCH  10  17
ENDBRANCH   1  14
BRANCH   6  18
ATOM     18  C   UNL     1       2.131   6.299  20.021  0.00  0.00    +0.000 C 
BRANCH  18  19
ATOM     19  C   UNL     1       1.814   7.735  19.656  0.00  0.00    +0.000 A 
ATOM     20  C   UNL     1       2.241   8.187  18.392  0.00  0.00    +0.000 A 
ATOM     21  C   UNL     1       1.928   9.461  17.940  0.00  0.00    +0.000 A 
ATOM     22  C   UNL     1       1.044  10.238  18.676  0.00  0.00    +0.000 A 
ATOM     23  C   UNL     1       0.609   9.813  19.939  0.00  0.00    +0.000 A 
ATOM     24  C   UNL     1      -0.298  10.592  20.658  0.00  0.00    +0.000 A 
ATOM     25  C   UNL     1      -0.267  10.599  22.041  0.00  0.00    +0.000 A 
ATOM     26  C   UNL     1       0.370   9.551  22.683  0.00  0.00    +0.000 A 
ATOM     27  C   UNL     1       0.930   8.510  21.923  0.00  0.00    +0.000 A 
ATOM     28  C   UNL     1       1.122   8.640  20.521  0.00  0.00    +0.000 A 
ENDBRANCH  18  19
ENDBRANCH   6  18
TORSDOF 4
ENDMDL
MODEL 6
REMARK VINA RESULT:      -8.2      4.765      7.886
REMARK  Name = 
REMARK  6 active torsions:
REMARK  status: ('A' for Active; 'I' for Inactive)
REMARK    1  A    between atoms: C_1  and  O_2
REMARK    2  A    between atoms: O_2  and  C_3
REMARK    3  A    between atoms: C_7  and  C_8
REMARK    4  A    between atoms: C_8  and  C_9
REMARK    5  A    between atoms: N_13  and  C_14
REMARK    6  A    between atoms: C_14  and  C_15
REMARK                            x       y       z     vdW  Elec       q    Type
REMARK                         _______ _______ _______ _____ _____    ______ ____
ROOT
ATOM      1  C   UNL     1       5.800   5.103  16.015  0.00  0.00    +0.000 C 
ATOM      2  C   UNL     1       4.859   6.317  16.029  0.00  0.00    +0.000 C 
ATOM      3  N   UNL     1       6.947   5.363  16.888  0.00  0.00    +0.000 N 
ATOM      4  C   UNL     1       6.840   4.745  18.107  0.00  0.00    +0.000 C 
ATOM      5  O   UNL     1       7.627   4.967  19.008  0.00  0.00    +0.000 OA
ATOM      6  N   UNL     1       5.731   3.949  18.110  0.00  0.00    +0.000 N 
ATOM      7  C   UNL     1       5.103   4.016  16.882  0.00  0.00    +0.000 C 
ATOM      8  O   UNL     1       4.068   3.429  16.582  0.00  0.00    +0.000 OA
ATOM      9  H   UNL     1       7.704   6.002  16.688  0.00  0.00    +0.000 HD
ENDROOT
BRANCH   1  14
ATOM     10  C   UNL     1       5.969   3.539  12.509  0.00  0.00    +0.000 A 
ATOM     11  C   UNL     1       7.087   4.160  11.964  0.00  0.00    +0.000 A 
ATOM     12  C   UNL     1       7.823   5.063  12.738  0.00  0.00    +0.000 A 
ATOM     13  C   UNL     1       7.436   5.370  14.052  0.00  0.00    +0.000 A 
ATOM     14  C   UNL     1       6.315   4.767  14.626  0.00  0.00    +0.000 A 
ATOM     15  C   UNL     1       5.612   3.827  13.834  0.00  0.00    +0.000 A 
BRANCH  10  17
ATOM     16  C   UNL     1       4.035   3.183  11.166  0.00  0.00    +0.000 C 
ATOM     17  O   UNL     1       5.147   2.649  11.875  0.00  0.00    +0.000 OA
ENDBRANCH  10  17
ENDBRANCH   1  14
BRANCH   6  18
ATOM     18  C   UNL     1       5.185   3.400  19.337  0.00  0.00    +0.000 C 
BRANCH  18  19
ATOM     19  C   UNL     1       3.691   3.594  19.493  0.00  0.00    +0.000 A 
ATOM     20  C   UNL     1       2.884   2.441  19.443  0.00  0.00    +0.000 A 
ATOM     21  C   UNL     1       1.515   2.512  19.654  0.00  0.00    +0.000 A 
ATOM     22  C   UNL     1       0.961   3.709  20.084  0.00  0.00    +0.000 A 
ATOM     23  C   UNL     1       1.742   4.872  20.138  0.00  0.00    +0.000 A 
ATOM     24  C   UNL     1       1.180   6.065  20.593  0.00  0.00    +0.000 A 
ATOM     25  C   UNL     1       1.623   7.279  20.098  0.00  0.00    +0.000 A 
ATOM     26  C   UNL     1       2.861   7.316  19.482  0.00  0.00    +0.000 A 
ATOM     27  C   UNL     1       3.636   6.146  19.408  0.00  0.00    +0.000 A 
ATOM     28  C   UNL     1       3.072   4.869  19.679  0.00  0.00    +0.000 A 
ENDBRANCH  18  19
ENDBRANCH   6  18
TORSDOF 4
ENDMDL
MODEL 7
REMARK VINA RESULT:      -8.0      1.357      2.219
REMARK  Name = 
REMARK  6 active torsions:
REMARK  status: ('A' for Active; 'I' for Inactive)
REMARK    1  A    between atoms: C_1  and  O_2
REMARK    2  A    between atoms: O_2  and  C_3
REMARK    3  A    between atoms: C_7  and  C_8
REMARK    4  A    between atoms: C_8  and  C_9
REMARK    5  A    between atoms: N_13  and  C_14
REMARK    6  A    between atoms: C_14  and  C_15
REMARK                            x       y       z     vdW  Elec       q    Type
REMARK                         _______ _______ _______ _____ _____    ______ ____
ROOT
ATOM      1  C   UNL     1       0.538  10.184  18.995  0.00  0.00    +0.000 C 
ATOM      2  C   UNL     1       1.239  11.340  19.724  0.00  0.00    +0.000 C 
ATOM      3  N   UNL     1       1.279   9.853  17.776  0.00  0.00    +0.000 N 
ATOM      4  C   UNL     1       2.067   8.740  17.917  0.00  0.00    +0.000 C 
ATOM      5  O   UNL     1       2.860   8.404  17.057  0.00  0.00    +0.000 OA
ATOM      6  N   UNL     1       1.833   8.177  19.139  0.00  0.00    +0.000 N 
ATOM      7  C   UNL     1       0.871   8.904  19.812  0.00  0.00    +0.000 C 
ATOM      8  O   UNL     1       0.462   8.660  20.943  0.00  0.00    +0.000 OA
ATOM      9  H   UNL     1       1.311  10.415  16.937  0.00  0.00    +0.000 HD
ENDROOT
BRANCH   1  14
ATOM     10  C   UNL     1      -2.900  11.900  19.005  0.00  0.00    +0.000 A 
ATOM     11  C   UNL     1      -3.532  11.300  17.921  0.00  0.00    +0.000 A 
ATOM     12  C   UNL     1      -2.866  10.305  17.198  0.00  0.00    +0.000 A 
ATOM     13  C   UNL     1      -1.560   9.917  17.536  0.00  0.00    +0.000 A 
ATOM     14  C   UNL     1      -0.897  10.505  18.616  0.00  0.00    +0.000 A 
ATOM     15  C   UNL     1      -1.609  11.482  19.355  0.00  0.00    +0.000 A 
BRANCH  10  17
ATOM     16  C   UNL     1      -4.359  12.505  20.788  0.00  0.00    +0.000 C 
ATOM     17  O   UNL     1      -3.414  12.891  19.795  0.00  0.00    +0.000 OA
ENDBRANCH  10  17
ENDBRANCH   1  14
BRANCH   6  18
ATOM     18  C   UNL     1       2.714   7.171  19.700  0.00  0.00    +0.000 C 
BRANCH  18  19
ATOM     19  C   UNL     1       2.745   5.870  18.925  0.00  0.00    +0.000 A 
ATOM     20  C   UNL     1       1.576   5.085  18.939  0.00  0.00    +0.000 A 
ATOM     21  C   UNL     1       1.485   3.918  18.195  0.00  0.00    +0.000 A 
ATOM     22  C   UNL     1       2.498   3.610  17.298  0.00  0.00    +0.000 A 
ATOM     23  C   UNL     1       3.674   4.372  17.268  0.00  0.00    +0.000 A 
ATOM     24  C   UNL     1       4.675   4.067  16.346  0.00  0.00    +0.000 A 
ATOM     25  C   UNL     1       6.003   4.302  16.657  0.00  0.00    +0.000 A 
ATOM     26  C   UNL     1       6.285   5.189  17.680  0.00  0.00    +0.000 A 
ATOM     27  C   UNL     1       5.232   5.842  18.343  0.00  0.00    +0.000 A 
ATOM     28  C   UNL     1       3.886   5.406  18.198  0.00  0.00    +0.000 A 
ENDBRANCH  18  19
ENDBRANCH   6  18
TORSDOF 4
ENDMDL
MODEL 8
REMARK VINA RESULT:      -7.9      5.151      7.969
REMARK  Name = 
REMARK  6 active torsions:
REMARK  status: ('A' for Active; 'I' for Inactive)
REMARK    1  A    between atoms: C_1  and  O_2
REMARK    2  A    between atoms: O_2  and  C_3
REMARK    3  A    between atoms: C_7  and  C_8
REMARK    4  A    between atoms: C_8  and  C_9
REMARK    5  A    between atoms: N_13  and  C_14
REMARK    6  A    between atoms: C_14  and  C_15
REMARK                            x       y       z     vdW  Elec       q    Type
REMARK                         _______ _______ _______ _____ _____    ______ ____
ROOT
ATOM      1  C   UNL     1       6.048   5.433  15.568  0.00  0.00    +0.000 C 
ATOM      2  C   UNL     1       5.088   6.627  15.449  0.00  0.00    +0.000 C 
ATOM      3  N   UNL     1       7.218   5.822  16.358  0.00  0.00    +0.000 N 
ATOM      4  C   UNL     1       7.160   5.376  17.653  0.00  0.00    +0.000 C 
ATOM      5  O   UNL     1       7.971   5.727  18.489  0.00  0.00    +0.000 OA
ATOM      6  N   UNL     1       6.064   4.574  17.802  0.00  0.00    +0.000 N 
ATOM      7  C   UNL     1       5.396   4.467  16.598  0.00  0.00    +0.000 C 
ATOM      8  O   UNL     1       4.362   3.832  16.415  0.00  0.00    +0.000 OA
ATOM      9  H   UNL     1       7.957   6.437  16.049  0.00  0.00    +0.000 HD
ENDROOT
BRANCH   1  14
ATOM     10  C   UNL     1       6.088   3.471  12.264  0.00  0.00    +0.000 A 
ATOM     11  C   UNL     1       7.223   3.973  11.638  0.00  0.00    +0.000 A 
ATOM     12  C   UNL     1       8.011   4.924  12.295  0.00  0.00    +0.000 A 
ATOM     13  C   UNL     1       7.661   5.397  13.568  0.00  0.00    +0.000 A 
ATOM     14  C   UNL     1       6.524   4.916  14.222  0.00  0.00    +0.000 A 
ATOM     15  C   UNL     1       5.766   3.926  13.551  0.00  0.00    +0.000 A 
BRANCH  10  17
ATOM     16  C   UNL     1       4.013   3.052  11.171  0.00  0.00    +0.000 C 
ATOM     17  O   UNL     1       5.216   2.553  11.747  0.00  0.00    +0.000 OA
ENDBRANCH  10  17
ENDBRANCH   1  14
BRANCH   6  18
ATOM     18  C   UNL     1       5.566   4.192  19.110  0.00  0.00    +0.000 C 
BRANCH  18  19
ATOM     19  C   UNL     1       4.125   4.582  19.364  0.00  0.00    +0.000 A 
ATOM     20  C   UNL     1       3.876   5.921  19.727  0.00  0.00    +0.000 A 
ATOM     21  C   UNL     1       2.582   6.388  19.903  0.00  0.00    +0.000 A 
ATOM     22  C   UNL     1       1.517   5.570  19.556  0.00  0.00    +0.000 A 
ATOM     23  C   UNL     1       1.738   4.233  19.198  0.00  0.00    +0.000 A 
ATOM     24  C   UNL     1       0.661   3.426  18.828  0.00  0.00    +0.000 A 
ATOM     25  C   UNL     1       0.688   2.067  19.085  0.00  0.00    +0.000 A 
ATOM     26  C   UNL     1       1.915   1.475  19.325  0.00  0.00    +0.000 A 
ATOM     27  C   UNL     1       3.084   2.252  19.267  0.00  0.00    +0.000 A 
ATOM     28  C   UNL     1       3.026   3.673  19.263  0.00  0.00    +0.000 A 
ENDBRANCH  18  19
ENDBRANCH   6  18
TORSDOF 4
ENDMDL
MODEL 9
REMARK VINA RESULT:      -7.5      0.611      2.038
REMARK  Name = 
REMARK  6 active torsions:
REMARK  status: ('A' for Active; 'I' for Inactive)
REMARK    1  A    between atoms: C_1  and  O_2
REMARK    2  A    between atoms: O_2  and  C_3
REMARK    3  A    between atoms: C_7  and  C_8
REMARK    4  A    between atoms: C_8  and  C_9
REMARK    5  A    between atoms: N_13  and  C_14
REMARK    6  A    between atoms: C_14  and  C_15
REMARK                            x       y       z     vdW  Elec       q    Type
REMARK                         _______ _______ _______ _____ _____    ______ ____
ROOT
ATOM      1  C   UNL     1       0.491  10.302  18.916  0.00  0.00    +0.000 C 
ATOM      2  C   UNL     1       1.092  11.475  19.704  0.00  0.00    +0.000 C 
ATOM      3  N   UNL     1       1.321  10.025  17.741  0.00  0.00    +0.000 N 
ATOM      4  C   UNL     1       2.149   8.947  17.914  0.00  0.00    +0.000 C 
ATOM      5  O   UNL     1       3.008   8.661  17.101  0.00  0.00    +0.000 OA
ATOM      6  N   UNL     1       1.865   8.352  19.111  0.00  0.00    +0.000 N 
ATOM      7  C   UNL     1       0.831   9.023  19.733  0.00  0.00    +0.000 C 
ATOM      8  O   UNL     1       0.363   8.741  20.832  0.00  0.00    +0.000 OA
ATOM      9  H   UNL     1       1.379  10.603  16.914  0.00  0.00    +0.000 HD
ENDROOT
BRANCH   1  14
ATOM     10  C   UNL     1      -2.722  10.072  16.820  0.00  0.00    +0.000 A 
ATOM     11  C   UNL     1      -3.607  10.854  17.552  0.00  0.00    +0.000 A 
ATOM     12  C   UNL     1      -3.164  11.496  18.713  0.00  0.00    +0.000 A 
ATOM     13  C   UNL     1      -1.844  11.347  19.163  0.00  0.00    +0.000 A 
ATOM     14  C   UNL     1      -0.931  10.564  18.451  0.00  0.00    +0.000 A 
ATOM     15  C   UNL     1      -1.395   9.956  17.259  0.00  0.00    +0.000 A 
BRANCH  10  17
ATOM     16  C   UNL     1      -3.329  10.134  14.517  0.00  0.00    +0.000 C 
ATOM     17  O   UNL     1      -3.009   9.375  15.678  0.00  0.00    +0.000 OA
ENDBRANCH  10  17
ENDBRANCH   1  14
BRANCH   6  18
ATOM     18  C   UNL     1       2.755   7.377  19.711  0.00  0.00    +0.000 C 
BRANCH  18  19
ATOM     19  C   UNL     1       2.936   6.114  18.894  0.00  0.00    +0.000 A 
ATOM     20  C   UNL     1       3.762   6.197  17.757  0.00  0.00    +0.000 A 
ATOM     21  C   UNL     1       4.048   5.074  16.993  0.00  0.00    +0.000 A 
ATOM     22  C   UNL     1       3.648   3.828  17.453  0.00  0.00    +0.000 A 
ATOM     23  C   UNL     1       2.821   3.719  18.579  0.00  0.00    +0.000 A 
ATOM     24  C   UNL     1       2.445   2.459  19.045  0.00  0.00    +0.000 A 
ATOM     25  C   UNL     1       1.222   2.282  19.666  0.00  0.00    +0.000 A 
ATOM     26  C   UNL     1       0.581   3.400  20.171  0.00  0.00    +0.000 A 
ATOM     27  C   UNL     1       1.198   4.659  20.070  0.00  0.00    +0.000 A 
ATOM     28  C   UNL     1       2.313   4.867  19.213  0.00  0.00    +0.000 A 
ENDBRANCH  18  19
ENDBRANCH   6  18
TORSDOF 4
ENDMDL
