MODEL 1
REMARK VINA RESULT:      -8.6      0.000      0.000
REMARK  Name = 
REMARK  8 active torsions:
REMARK  status: ('A' for Active; 'I' for Inactive)
REMARK    1  A    between atoms: C_1  and  C_2
REMARK    2  A    between atoms: N_4  and  C_5
REMARK    3  A    between atoms: C_6  and  C_7
REMARK    4  A    between atoms: C_8  and  C_9
REMARK    5  A    between atoms: C_11  and  C_12
REMARK    6  A    between atoms: N_14  and  C_15
REMARK    7  A    between atoms: C_17  and  C_18
REMARK    8  A    between atoms: C_21  and  C_22
REMARK                            x       y       z     vdW  Elec       q    Type
REMARK                         _______ _______ _______ _____ _____    ______ ____
ROOT
ATOM      1  C   UNL     1       8.398   8.765  18.221  0.00  0.00    +0.000 C 
ATOM      2  O   UNL     1       8.812   8.054  19.129  0.00  0.00    +0.000 OA
ATOM      3  N   UNL     1       7.553   8.300  17.225  0.00  0.00    +0.000 N 
ATOM      4  H   UNL     1       7.324   8.935  16.475  0.00  0.00    +0.000 HD
ENDROOT
BRANCH   1   7
ATOM      5  C   UNL     1       9.631  12.190  18.269  0.00  0.00    +0.000 A 
ATOM      6  C   UNL     1       9.949  10.827  18.457  0.00  0.00    +0.000 A 
ATOM      7  C   UNL     1       8.820  10.133  18.079  0.00  0.00    +0.000 A 
ATOM      8  N   UNL     1       7.999  11.078  17.523  0.00  0.00    +0.000 N 
ATOM      9  N   UNL     1       8.447  12.336  17.663  0.00  0.00    +0.000 NA
ATOM     10  H   UNL     1       7.084  10.924  17.104  0.00  0.00    +0.000 HD
BRANCH   5  18
ATOM     11  C   UNL     1      12.140  13.532  16.815  0.00  0.00    +0.000 C 
ATOM     12  C   UNL     1      11.526  13.897  18.119  0.00  0.00    +0.000 A 
ATOM     13  N   UNL     1      11.995  14.957  18.790  0.00  0.00    +0.000 NA
ATOM     14  N   UNL     1      11.212  15.034  19.877  0.00  0.00    +0.000 N 
ATOM     15  C   UNL     1      11.424  16.123  20.804  0.00  0.00    +0.000 C 
ATOM     16  C   UNL     1      10.255  14.050  19.944  0.00  0.00    +0.000 A 
ATOM     17  C   UNL     1       9.303  13.917  21.077  0.00  0.00    +0.000 C 
ATOM     18  C   UNL     1      10.423  13.303  18.790  0.00  0.00    +0.000 A 
ENDBRANCH   5  18
ENDBRANCH   1   7
BRANCH   3  19
ATOM     19  C   UNL     1       7.257   6.856  17.068  0.00  0.00    +0.000 C 
ATOM     20  C   UNL     1       6.668   6.176  18.319  0.00  0.00    +0.000 C 
ATOM     21  C   UNL     1       5.249   6.488  17.762  0.00  0.00    +0.000 C 
ATOM     22  C   UNL     1       5.912   6.535  16.361  0.00  0.00    +0.000 C 
BRANCH  21  23
ATOM     23  C   UNL     1       4.124   5.449  18.162  0.00  0.00    +0.000 A 
ATOM     24  C   UNL     1       4.491   4.294  18.882  0.00  0.00    +0.000 A 
ATOM     25  C   UNL     1       3.568   3.327  19.278  0.00  0.00    +0.000 A 
ATOM     26  C   UNL     1       2.216   3.481  18.969  0.00  0.00    +0.000 A 
ATOM     27  C   UNL     1       1.820   4.614  18.244  0.00  0.00    +0.000 A 
ATOM     28  C   UNL     1       2.760   5.580  17.851  0.00  0.00    +0.000 A 
BRANCH  26  29
ATOM     29  C   UNL     1       1.200   2.459  19.415  0.00  0.00    +0.000 C 
ATOM     30  F   UNL     1       1.709   1.200  19.530  0.00  0.00    +0.000 F 
ATOM     31  F   UNL     1       0.667   2.754  20.633  0.00  0.00    +0.000 F 
ATOM     32  F   UNL     1       0.146   2.357  18.560  0.00  0.00    +0.000 F 
ENDBRANCH  26  29
ENDBRANCH  21  23
ENDBRANCH   3  19
TORSDOF 5
ENDMDL
MODEL 2
REMARK VINA RESULT:      -8.5      0.817      1.272
REMARK  Name = 
REMARK  8 active torsions:
REMARK  status: ('A' for Active; 'I' for Inactive)
REMARK    1  A    between atoms: C_1  and  C_2
REMARK    2  A    between atoms: N_4  and  C_5
REMARK    3  A    between atoms: C_6  and  C_7
REMARK    4  A    between atoms: C_8  and  C_9
REMARK    5  A    between atoms: C_11  and  C_12
REMARK    6  A    between atoms: N_14  and  C_15
REMARK    7  A    between atoms: C_17  and  C_18
REMARK    8  A    between atoms: C_21  and  C_22
REMARK                            x       y       z     vdW  Elec       q    Type
REMARK                         _______ _______ _______ _____ _____    ______ ____
ROOT
ATOM      1  C   UNL     1       8.381   8.644  18.334  0.00  0.00    +0.000 C 
ATOM      2  O   UNL     1       8.789   7.793  19.115  0.00  0.00    +0.000 OA
ATOM      3  N   UNL     1       7.504   8.360  17.299  0.00  0.00    +0.000 N 
ATOM      4  H   UNL     1       7.282   9.108  16.659  0.00  0.00    +0.000 HD
ENDROOT
BRANCH   1   7
ATOM      5  C   UNL     1       9.534  12.048  18.919  0.00  0.00    +0.000 A 
ATOM      6  C   UNL     1       9.731  10.678  19.203  0.00  0.00    +0.000 A 
ATOM      7  C   UNL     1       8.842  10.006  18.392  0.00  0.00    +0.000 A 
ATOM      8  N   UNL     1       8.330  10.968  17.562  0.00  0.00    +0.000 N 
ATOM      9  N   UNL     1       8.700  12.217  17.887  0.00  0.00    +0.000 NA
ATOM     10  H   UNL     1       7.662  10.831  16.806  0.00  0.00    +0.000 HD
BRANCH   5  18
ATOM     11  C   UNL     1      11.768  14.138  17.997  0.00  0.00    +0.000 C 
ATOM     12  C   UNL     1      11.045  14.074  19.294  0.00  0.00    +0.000 A 
ATOM     13  N   UNL     1      11.262  15.024  20.213  0.00  0.00    +0.000 NA
ATOM     14  N   UNL     1      10.440  14.701  21.224  0.00  0.00    +0.000 N 
ATOM     15  C   UNL     1      10.390  15.572  22.376  0.00  0.00    +0.000 C 
ATOM     16  C   UNL     1       9.702  13.564  20.999  0.00  0.00    +0.000 A 
ATOM     17  C   UNL     1       8.757  12.998  21.995  0.00  0.00    +0.000 C 
ATOM     18  C   UNL     1      10.063  13.144  19.729  0.00  0.00    +0.000 A 
ENDBRANCH   5  18
ENDBRANCH   1   7
BRANCH   3  19
ATOM     19  C   UNL     1       7.161   6.965  16.932  0.00  0.00    +0.000 C 
ATOM     20  C   UNL     1       6.744   6.069  18.113  0.00  0.00    +0.000 C 
ATOM     21  C   UNL     1       5.267   6.466  17.832  0.00  0.00    +0.000 C 
ATOM     22  C   UNL     1       5.723   6.767  16.381  0.00  0.00    +0.000 C 
BRANCH  21  23
ATOM     23  C   UNL     1       4.191   5.365  18.199  0.00  0.00    +0.000 A 
ATOM     24  C   UNL     1       3.205   5.671  19.160  0.00  0.00    +0.000 A 
ATOM     25  C   UNL     1       2.218   4.765  19.542  0.00  0.00    +0.000 A 
ATOM     26  C   UNL     1       2.170   3.496  18.966  0.00  0.00    +0.000 A 
ATOM     27  C   UNL     1       3.143   3.156  18.014  0.00  0.00    +0.000 A 
ATOM     28  C   UNL     1       4.132   4.078  17.639  0.00  0.00    +0.000 A 
BRANCH  26  29
ATOM     29  C   UNL     1       1.090   2.514  19.346  0.00  0.00    +0.000 C 
ATOM     30  F   UNL     1       0.088   2.423  18.426  0.00  0.00    +0.000 F 
ATOM     31  F   UNL     1       1.568   1.247  19.497  0.00  0.00    +0.000 F 
ATOM     32  F   UNL     1       0.485   2.828  20.525  0.00  0.00    +0.000 F 
ENDBRANCH  26  29
ENDBRANCH  21  23
ENDBRANCH   3  19
TORSDOF 5
ENDMDL
MODEL 3
REMARK VINA RESULT:      -8.4      1.626      1.833
REMARK  Name = 
REMARK  8 active torsions:
REMARK  status: ('A' for Active; 'I' for Inactive)
REMARK    1  A    between atoms: C_1  and  C_2
REMARK    2  A    between atoms: N_4  and  C_5
REMARK    3  A    between atoms: C_6  and  C_7
REMARK    4  A    between atoms: C_8  and  C_9
REMARK    5  A    between atoms: C_11  and  C_12
REMARK    6  A    between atoms: N_14  and  C_15
REMARK    7  A    between atoms: C_17  and  C_18
REMARK    8  A    between atoms: C_21  and  C_22
REMARK                            x       y       z     vdW  Elec       q    Type
REMARK                         _______ _______ _______ _____ _____    ______ ____
ROOT
ATOM      1  C   UNL     1       8.312   8.399  17.951  0.00  0.00    +0.000 C 
ATOM      2  O   UNL     1       7.845   8.209  16.835  0.00  0.00    +0.000 OA
ATOM      3  N   UNL     1       8.546   7.375  18.855  0.00  0.00    +0.000 N 
ATOM      4  H   UNL     1       8.860   7.632  19.779  0.00  0.00    +0.000 HD
ENDROOT
BRANCH   1   7
ATOM      5  C   UNL     1       9.154  11.843  18.778  0.00  0.00    +0.000 A 
ATOM      6  C   UNL     1       8.452  10.986  17.902  0.00  0.00    +0.000 A 
ATOM      7  C   UNL     1       8.589   9.724  18.439  0.00  0.00    +0.000 A 
ATOM      8  N   UNL     1       9.175   9.925  19.660  0.00  0.00    +0.000 N 
ATOM      9  N   UNL     1       9.565  11.193  19.873  0.00  0.00    +0.000 NA
ATOM     10  H   UNL     1       9.401   9.216  20.355  0.00  0.00    +0.000 HD
BRANCH   5  18
ATOM     11  C   UNL     1      11.799  12.798  17.260  0.00  0.00    +0.000 C 
ATOM     12  C   UNL     1      10.683  13.631  17.779  0.00  0.00    +0.000 A 
ATOM     13  N   UNL     1      10.692  14.951  17.557  0.00  0.00    +0.000 NA
ATOM     14  N   UNL     1       9.548  15.388  18.107  0.00  0.00    +0.000 N 
ATOM     15  C   UNL     1       9.221  16.791  17.994  0.00  0.00    +0.000 C 
ATOM     16  C   UNL     1       8.798  14.396  18.692  0.00  0.00    +0.000 A 
ATOM     17  C   UNL     1       7.515  14.654  19.394  0.00  0.00    +0.000 C 
ATOM     18  C   UNL     1       9.509  13.228  18.471  0.00  0.00    +0.000 A 
ENDBRANCH   5  18
ENDBRANCH   1   7
BRANCH   3  19
ATOM     19  C   UNL     1       8.052   5.997  18.615  0.00  0.00    +0.000 C 
ATOM     20  C   UNL     1       7.132   5.438  19.716  0.00  0.00    +0.000 C 
ATOM     21  C   UNL     1       5.917   5.975  18.908  0.00  0.00    +0.000 C 
ATOM     22  C   UNL     1       6.833   5.895  17.659  0.00  0.00    +0.000 C 
BRANCH  21  23
ATOM     23  C   UNL     1       4.581   5.141  19.065  0.00  0.00    +0.000 A 
ATOM     24  C   UNL     1       4.482   3.888  18.424  0.00  0.00    +0.000 A 
ATOM     25  C   UNL     1       3.346   3.085  18.510  0.00  0.00    +0.000 A 
ATOM     26  C   UNL     1       2.245   3.505  19.256  0.00  0.00    +0.000 A 
ATOM     27  C   UNL     1       2.307   4.751  19.897  0.00  0.00    +0.000 A 
ATOM     28  C   UNL     1       3.457   5.551  19.802  0.00  0.00    +0.000 A 
BRANCH  26  29
ATOM     29  C   UNL     1       1.020   2.635  19.383  0.00  0.00    +0.000 C 
ATOM     30  F   UNL     1       0.246   2.939  20.464  0.00  0.00    +0.000 F 
ATOM     31  F   UNL     1       0.197   2.734  18.302  0.00  0.00    +0.000 F 
ATOM     32  F   UNL     1       1.323   1.313  19.503  0.00  0.00    +0.000 F 
ENDBRANCH  26  29
ENDBRANCH  21  23
ENDBRANCH   3  19
TORSDOF 5
ENDMDL
MODEL 4
REMARK VINA RESULT:      -8.3      1.460      1.697
REMARK  Name = 
REMARK  8 active torsions:
REMARK  status: ('A' for Active; 'I' for Inactive)
REMARK    1  A    between atoms: C_1  and  C_2
REMARK    2  A    between atoms: N_4  and  C_5
REMARK    3  A    between atoms: C_6  and  C_7
REMARK    4  A    between atoms: C_8  and  C_9
REMARK    5  A    between atoms: C_11  and  C_12
REMARK    6  A    between atoms: N_14  and  C_15
REMARK    7  A    between atoms: C_17  and  C_18
REMARK    8  A    between atoms: C_21  and  C_22
REMARK                            x       y       z     vdW  Elec       q    Type
REMARK                         _______ _______ _______ _____ _____    ______ ____
ROOT
ATOM      1  C   UNL     1       8.349   8.659  18.468  0.00  0.00    +0.000 C 
ATOM      2  O   UNL     1       8.742   7.687  19.101  0.00  0.00    +0.000 OA
ATOM      3  N   UNL     1       7.435   8.565  17.430  0.00  0.00    +0.000 N 
ATOM      4  H   UNL     1       7.227   9.406  16.915  0.00  0.00    +0.000 HD
ENDROOT
BRANCH   1   7
ATOM      5  C   UNL     1       9.694  12.038  18.646  0.00  0.00    +0.000 A 
ATOM      6  C   UNL     1       8.712  11.195  18.080  0.00  0.00    +0.000 A 
ATOM      7  C   UNL     1       8.865   9.980  18.712  0.00  0.00    +0.000 A 
ATOM      8  N   UNL     1       9.763  10.220  19.717  0.00  0.00    +0.000 N 
ATOM      9  N   UNL     1      10.311  11.446  19.674  0.00  0.00    +0.000 NA
ATOM     10  H   UNL     1      10.095   9.556  20.414  0.00  0.00    +0.000 HD
BRANCH   5  18
ATOM     11  C   UNL     1      12.159  12.570  16.684  0.00  0.00    +0.000 C 
ATOM     12  C   UNL     1      11.174  13.549  17.213  0.00  0.00    +0.000 A 
ATOM     13  N   UNL     1      11.231  14.823  16.802  0.00  0.00    +0.000 NA
ATOM     14  N   UNL     1      10.200  15.417  17.422  0.00  0.00    +0.000 N 
ATOM     15  C   UNL     1       9.943  16.813  17.148  0.00  0.00    +0.000 C 
ATOM     16  C   UNL     1       9.479  14.576  18.235  0.00  0.00    +0.000 A 
ATOM     17  C   UNL     1       8.320  15.026  19.048  0.00  0.00    +0.000 C 
ATOM     18  C   UNL     1      10.083  13.337  18.099  0.00  0.00    +0.000 A 
ENDBRANCH   5  18
ENDBRANCH   1   7
BRANCH   3  19
ATOM     19  C   UNL     1       7.027   7.253  16.871  0.00  0.00    +0.000 C 
ATOM     20  C   UNL     1       6.749   6.161  17.921  0.00  0.00    +0.000 C 
ATOM     21  C   UNL     1       5.254   6.590  17.904  0.00  0.00    +0.000 C 
ATOM     22  C   UNL     1       5.528   7.144  16.482  0.00  0.00    +0.000 C 
BRANCH  21  23
ATOM     23  C   UNL     1       4.216   5.434  18.206  0.00  0.00    +0.000 A 
ATOM     24  C   UNL     1       3.660   5.341  19.498  0.00  0.00    +0.000 A 
ATOM     25  C   UNL     1       2.738   4.358  19.853  0.00  0.00    +0.000 A 
ATOM     26  C   UNL     1       2.322   3.415  18.913  0.00  0.00    +0.000 A 
ATOM     27  C   UNL     1       2.864   3.474  17.621  0.00  0.00    +0.000 A 
ATOM     28  C   UNL     1       3.793   4.469  17.277  0.00  0.00    +0.000 A 
BRANCH  26  29
ATOM     29  C   UNL     1       1.302   2.363  19.272  0.00  0.00    +0.000 C 
ATOM     30  F   UNL     1       0.190   2.392  18.483  0.00  0.00    +0.000 F 
ATOM     31  F   UNL     1       1.798   1.100  19.165  0.00  0.00    +0.000 F 
ATOM     32  F   UNL     1       0.852   2.482  20.551  0.00  0.00    +0.000 F 
ENDBRANCH  26  29
ENDBRANCH  21  23
ENDBRANCH   3  19
TORSDOF 5
ENDMDL
MODEL 5
REMARK VINA RESULT:      -8.3      1.660      1.834
REMARK  Name = 
REMARK  8 active torsions:
REMARK  status: ('A' for Active; 'I' for Inactive)
REMARK    1  A    between atoms: C_1  and  C_2
REMARK    2  A    between atoms: N_4  and  C_5
REMARK    3  A    between atoms: C_6  and  C_7
REMARK    4  A    between atoms: C_8  and  C_9
REMARK    5  A    between atoms: C_11  and  C_12
REMARK    6  A    between atoms: N_14  and  C_15
REMARK    7  A    between atoms: C_17  and  C_18
REMARK    8  A    between atoms: C_21  and  C_22
REMARK                            x       y       z     vdW  Elec       q    Type
REMARK                         _______ _______ _______ _____ _____    ______ ____
ROOT
ATOM      1  C   UNL     1       8.402   8.461  17.994  0.00  0.00    +0.000 C 
ATOM      2  O   UNL     1       8.050   8.253  16.839  0.00  0.00    +0.000 OA
ATOM      3  N   UNL     1       8.578   7.447  18.923  0.00  0.00    +0.000 N 
ATOM      4  H   UNL     1       8.795   7.717  19.871  0.00  0.00    +0.000 HD
ENDROOT
BRANCH   1   7
ATOM      5  C   UNL     1       9.025  11.941  18.864  0.00  0.00    +0.000 A 
ATOM      6  C   UNL     1       8.384  11.052  17.973  0.00  0.00    +0.000 A 
ATOM      7  C   UNL     1       8.593   9.795  18.498  0.00  0.00    +0.000 A 
ATOM      8  N   UNL     1       9.155  10.019  19.727  0.00  0.00    +0.000 N 
ATOM      9  N   UNL     1       9.465  11.305  19.956  0.00  0.00    +0.000 NA
ATOM     10  H   UNL     1       9.418   9.318  20.417  0.00  0.00    +0.000 HD
BRANCH   5  18
ATOM     11  C   UNL     1      11.346  13.038  16.961  0.00  0.00    +0.000 C 
ATOM     12  C   UNL     1      10.323  13.815  17.711  0.00  0.00    +0.000 A 
ATOM     13  N   UNL     1      10.271  15.145  17.561  0.00  0.00    +0.000 NA
ATOM     14  N   UNL     1       9.235  15.524  18.324  0.00  0.00    +0.000 N 
ATOM     15  C   UNL     1       8.869  16.922  18.345  0.00  0.00    +0.000 C 
ATOM     16  C   UNL     1       8.615  14.485  18.977  0.00  0.00    +0.000 A 
ATOM     17  C   UNL     1       7.471  14.675  19.905  0.00  0.00    +0.000 C 
ATOM     18  C   UNL     1       9.296  13.348  18.574  0.00  0.00    +0.000 A 
ENDBRANCH   5  18
ENDBRANCH   1   7
BRANCH   3  19
ATOM     19  C   UNL     1       8.149   6.055  18.645  0.00  0.00    +0.000 C 
ATOM     20  C   UNL     1       7.246   5.429  19.724  0.00  0.00    +0.000 C 
ATOM     21  C   UNL     1       6.014   5.929  18.917  0.00  0.00    +0.000 C 
ATOM     22  C   UNL     1       6.944   5.921  17.676  0.00  0.00    +0.000 C 
BRANCH  21  23
ATOM     23  C   UNL     1       4.717   5.032  19.041  0.00  0.00    +0.000 A 
ATOM     24  C   UNL     1       3.590   5.556  19.707  0.00  0.00    +0.000 A 
ATOM     25  C   UNL     1       2.404   4.839  19.862  0.00  0.00    +0.000 A 
ATOM     26  C   UNL     1       2.292   3.549  19.342  0.00  0.00    +0.000 A 
ATOM     27  C   UNL     1       3.399   2.995  18.682  0.00  0.00    +0.000 A 
ATOM     28  C   UNL     1       4.587   3.728  18.535  0.00  0.00    +0.000 A 
BRANCH  26  29
ATOM     29  C   UNL     1       1.007   2.772  19.474  0.00  0.00    +0.000 C 
ATOM     30  F   UNL     1       1.197   1.442  19.707  0.00  0.00    +0.000 F 
ATOM     31  F   UNL     1       0.231   3.218  20.501  0.00  0.00    +0.000 F 
ATOM     32  F   UNL     1       0.230   2.846  18.359  0.00  0.00    +0.000 F 
ENDBRANCH  26  29
ENDBRANCH  21  23
ENDBRANCH   3  19
TORSDOF 5
ENDMDL
MODEL 6
REMARK VINA RESULT:      -8.1      8.334     11.273
REMARK  Name = 
REMARK  8 active torsions:
REMARK  status: ('A' for Active; 'I' for Inactive)
REMARK    1  A    between atoms: C_1  and  C_2
REMARK    2  A    between atoms: N_4  and  C_5
REMARK    3  A    between atoms: C_6  and  C_7
REMARK    4  A    between atoms: C_8  and  C_9
REMARK    5  A    between atoms: C_11  and  C_12
REMARK    6  A    between atoms: N_14  and  C_15
REMARK    7  A    between atoms: C_17  and  C_18
REMARK    8  A    between atoms: C_21  and  C_22
REMARK                            x       y       z     vdW  Elec       q    Type
REMARK                         _______ _______ _______ _____ _____    ______ ____
ROOT
ATOM      1  C   UNL     1       0.835   9.637  18.807  0.00  0.00    +0.000 C 
ATOM      2  O   UNL     1       0.126   9.850  17.831  0.00  0.00    +0.000 OA
ATOM      3  N   UNL     1       0.855  10.463  19.920  0.00  0.00    +0.000 N 
ATOM      4  H   UNL     1       1.526  10.253  20.643  0.00  0.00    +0.000 HD
ENDROOT
BRANCH   1   7
ATOM      5  C   UNL     1       3.045   6.761  18.488  0.00  0.00    +0.000 A 
ATOM      6  C   UNL     1       2.609   7.974  17.911  0.00  0.00    +0.000 A 
ATOM      7  C   UNL     1       1.763   8.538  18.842  0.00  0.00    +0.000 A 
ATOM      8  N   UNL     1       1.896   7.752  19.956  0.00  0.00    +0.000 N 
ATOM      9  N   UNL     1       2.633   6.647  19.755  0.00  0.00    +0.000 NA
ATOM     10  H   UNL     1       1.442   7.886  20.857  0.00  0.00    +0.000 HD
BRANCH   5  18
ATOM     11  C   UNL     1       1.864   3.864  17.837  0.00  0.00    +0.000 C 
ATOM     12  C   UNL     1       3.189   4.425  17.463  0.00  0.00    +0.000 A 
ATOM     13  N   UNL     1       4.017   3.699  16.700  0.00  0.00    +0.000 NA
ATOM     14  N   UNL     1       5.082   4.494  16.517  0.00  0.00    +0.000 N 
ATOM     15  C   UNL     1       6.159   4.021  15.678  0.00  0.00    +0.000 C 
ATOM     16  C   UNL     1       4.983   5.711  17.148  0.00  0.00    +0.000 A 
ATOM     17  C   UNL     1       6.059   6.734  17.115  0.00  0.00    +0.000 C 
ATOM     18  C   UNL     1       3.739   5.701  17.758  0.00  0.00    +0.000 A 
ENDBRANCH   5  18
ENDBRANCH   1   7
BRANCH   3  19
ATOM     19  C   UNL     1       0.175  11.781  19.921  0.00  0.00    +0.000 C 
ATOM     20  C   UNL     1      -1.351  11.722  19.724  0.00  0.00    +0.000 C 
ATOM     21  C   UNL     1      -1.503  11.685  21.271  0.00  0.00    +0.000 C 
ATOM     22  C   UNL     1      -0.112  12.369  21.329  0.00  0.00    +0.000 C 
BRANCH  21  23
ATOM     23  C   UNL     1      -2.825  12.345  21.836  0.00  0.00    +0.000 A 
ATOM     24  C   UNL     1      -3.051  12.332  23.228  0.00  0.00    +0.000 A 
ATOM     25  C   UNL     1      -4.186  12.892  23.813  0.00  0.00    +0.000 A 
ATOM     26  C   UNL     1      -5.155  13.504  23.019  0.00  0.00    +0.000 A 
ATOM     27  C   UNL     1      -4.965  13.525  21.629  0.00  0.00    +0.000 A 
ATOM     28  C   UNL     1      -3.818  12.956  21.052  0.00  0.00    +0.000 A 
BRANCH  26  29
ATOM     29  C   UNL     1      -6.373  14.141  23.638  0.00  0.00    +0.000 C 
ATOM     30  F   UNL     1      -7.296  14.555  22.724  0.00  0.00    +0.000 F 
ATOM     31  F   UNL     1      -7.036  13.293  24.473  0.00  0.00    +0.000 F 
ATOM     32  F   UNL     1      -6.072  15.239  24.384  0.00  0.00    +0.000 F 
ENDBRANCH  26  29
ENDBRANCH  21  23
ENDBRANCH   3  19
TORSDOF 5
ENDMDL
MODEL 7
REMARK VINA RESULT:      -8.0      8.400     11.335
REMARK  Name = 
REMARK  8 active torsions:
REMARK  status: ('A' for Active; 'I' for Inactive)
REMARK    1  A    between atoms: C_1  and  C_2
REMARK    2  A    between atoms: N_4  and  C_5
REMARK    3  A    between atoms: C_6  and  C_7
REMARK    4  A    between atoms: C_8  and  C_9
REMARK    5  A    between atoms: C_11  and  C_12
REMARK    6  A    between atoms: N_14  and  C_15
REMARK    7  A    between atoms: C_17  and  C_18
REMARK    8  A    between atoms: C_21  and  C_22
REMARK                            x       y       z     vdW  Elec       q    Type
REMARK                         _______ _______ _______ _____ _____    ______ ____
ROOT
ATOM      1  C   UNL     1       0.883   9.742  18.844  0.00  0.00    +0.000 C 
ATOM      2  O   UNL     1       0.258  10.033  17.831  0.00  0.00    +0.000 OA
ATOM      3  N   UNL     1       0.820  10.489  20.010  0.00  0.00    +0.000 N 
ATOM      4  H   UNL     1       1.428  10.219  20.769  0.00  0.00    +0.000 HD
ENDROOT
BRANCH   1   7
ATOM      5  C   UNL     1       3.047   6.832  18.520  0.00  0.00    +0.000 A 
ATOM      6  C   UNL     1       2.630   8.053  17.945  0.00  0.00    +0.000 A 
ATOM      7  C   UNL     1       1.794   8.629  18.877  0.00  0.00    +0.000 A 
ATOM      8  N   UNL     1       1.915   7.840  19.990  0.00  0.00    +0.000 N 
ATOM      9  N   UNL     1       2.634   6.724  19.788  0.00  0.00    +0.000 NA
ATOM     10  H   UNL     1       1.464   7.980  20.892  0.00  0.00    +0.000 HD
BRANCH   5  18
ATOM     11  C   UNL     1       1.842   3.935  17.916  0.00  0.00    +0.000 C 
ATOM     12  C   UNL     1       3.163   4.485  17.515  0.00  0.00    +0.000 A 
ATOM     13  N   UNL     1       3.974   3.749  16.745  0.00  0.00    +0.000 NA
ATOM     14  N   UNL     1       5.039   4.536  16.537  0.00  0.00    +0.000 N 
ATOM     15  C   UNL     1       6.100   4.050  15.683  0.00  0.00    +0.000 C 
ATOM     16  C   UNL     1       4.957   5.760  17.157  0.00  0.00    +0.000 A 
ATOM     17  C   UNL     1       6.037   6.777  17.096  0.00  0.00    +0.000 C 
ATOM     18  C   UNL     1       3.724   5.762  17.788  0.00  0.00    +0.000 A 
ENDBRANCH   5  18
ENDBRANCH   1   7
BRANCH   3  19
ATOM     19  C   UNL     1       0.157  11.815  20.049  0.00  0.00    +0.000 C 
ATOM     20  C   UNL     1      -1.378  11.773  19.924  0.00  0.00    +0.000 C 
ATOM     21  C   UNL     1      -1.456  11.731  21.477  0.00  0.00    +0.000 C 
ATOM     22  C   UNL     1      -0.057  12.400  21.471  0.00  0.00    +0.000 C 
BRANCH  21  23
ATOM     23  C   UNL     1      -2.742  12.404  22.107  0.00  0.00    +0.000 A 
ATOM     24  C   UNL     1      -3.697  12.983  21.246  0.00  0.00    +0.000 A 
ATOM     25  C   UNL     1      -4.860  13.595  21.711  0.00  0.00    +0.000 A 
ATOM     26  C   UNL     1      -5.124  13.649  23.080  0.00  0.00    +0.000 A 
ATOM     27  C   UNL     1      -4.188  13.092  23.964  0.00  0.00    +0.000 A 
ATOM     28  C   UNL     1      -3.021  12.480  23.482  0.00  0.00    +0.000 A 
BRANCH  26  29
ATOM     29  C   UNL     1      -6.391  14.281  23.599  0.00  0.00    +0.000 C 
ATOM     30  F   UNL     1      -6.182  15.451  24.267  0.00  0.00    +0.000 F 
ATOM     31  F   UNL     1      -7.270  14.578  22.602  0.00  0.00    +0.000 F 
ATOM     32  F   UNL     1      -7.065  13.475  24.464  0.00  0.00    +0.000 F 
ENDBRANCH  26  29
ENDBRANCH  21  23
ENDBRANCH   3  19
TORSDOF 5
ENDMDL
MODEL 8
REMARK VINA RESULT:      -8.0      4.429      5.022
REMARK  Name = 
REMARK  8 active torsions:
REMARK  status: ('A' for Active; 'I' for Inactive)
REMARK    1  A    between atoms: C_1  and  C_2
REMARK    2  A    between atoms: N_4  and  C_5
REMARK    3  A    between atoms: C_6  and  C_7
REMARK    4  A    between atoms: C_8  and  C_9
REMARK    5  A    between atoms: C_11  and  C_12
REMARK    6  A    between atoms: N_14  and  C_15
REMARK    7  A    between atoms: C_17  and  C_18
REMARK    8  A    between atoms: C_21  and  C_22
REMARK                            x       y       z     vdW  Elec       q    Type
REMARK                         _______ _______ _______ _____ _____    ______ ____
ROOT
ATOM      1  C   UNL     1       1.784  12.696  18.502  0.00  0.00    +0.000 C 
ATOM      2  O   UNL     1       0.604  13.024  18.481  0.00  0.00    +0.000 OA
ATOM      3  N   UNL     1       2.214  11.407  18.228  0.00  0.00    +0.000 N 
ATOM      4  H   UNL     1       3.197  11.210  18.345  0.00  0.00    +0.000 HD
ENDROOT
BRANCH   1   7
ATOM      5  C   UNL     1       4.647  14.850  19.153  0.00  0.00    +0.000 A 
ATOM      6  C   UNL     1       3.747  14.357  18.182  0.00  0.00    +0.000 A 
ATOM      7  C   UNL     1       2.818  13.620  18.885  0.00  0.00    +0.000 A 
ATOM      8  N   UNL     1       3.097  13.872  20.202  0.00  0.00    +0.000 N 
ATOM      9  N   UNL     1       4.223  14.579  20.393  0.00  0.00    +0.000 NA
ATOM     10  H   UNL     1       2.593  13.520  21.013  0.00  0.00    +0.000 HD
BRANCH   5  18
ATOM     11  C   UNL     1       6.982  13.498  17.442  0.00  0.00    +0.000 C 
ATOM     12  C   UNL     1       6.961  14.845  18.070  0.00  0.00    +0.000 A 
ATOM     13  N   UNL     1       7.994  15.675  17.876  0.00  0.00    +0.000 NA
ATOM     14  N   UNL     1       7.646  16.795  18.528  0.00  0.00    +0.000 N 
ATOM     15  C   UNL     1       8.539  17.930  18.472  0.00  0.00    +0.000 C 
ATOM     16  C   UNL     1       6.424  16.719  19.151  0.00  0.00    +0.000 A 
ATOM     17  C   UNL     1       5.855  17.826  19.962  0.00  0.00    +0.000 C 
ATOM     18  C   UNL     1       5.941  15.457  18.847  0.00  0.00    +0.000 A 
ENDBRANCH   5  18
ENDBRANCH   1   7
BRANCH   3  19
ATOM     19  C   UNL     1       1.259  10.281  18.097  0.00  0.00    +0.000 C 
ATOM     20  C   UNL     1       1.857   8.991  17.503  0.00  0.00    +0.000 C 
ATOM     21  C   UNL     1       2.158   8.518  18.954  0.00  0.00    +0.000 C 
ATOM     22  C   UNL     1       1.018   9.470  19.399  0.00  0.00    +0.000 C 
BRANCH  21  23
ATOM     23  C   UNL     1       2.122   6.951  19.173  0.00  0.00    +0.000 A 
ATOM     24  C   UNL     1       1.833   6.452  20.460  0.00  0.00    +0.000 A 
ATOM     25  C   UNL     1       1.779   5.088  20.745  0.00  0.00    +0.000 A 
ATOM     26  C   UNL     1       2.008   4.152  19.737  0.00  0.00    +0.000 A 
ATOM     27  C   UNL     1       2.308   4.616  18.448  0.00  0.00    +0.000 A 
ATOM     28  C   UNL     1       2.362   5.992  18.175  0.00  0.00    +0.000 A 
BRANCH  26  29
ATOM     29  C   UNL     1       1.923   2.673  20.021  0.00  0.00    +0.000 C 
ATOM     30  F   UNL     1       1.080   2.005  19.183  0.00  0.00    +0.000 F 
ATOM     31  F   UNL     1       3.128   2.051  19.905  0.00  0.00    +0.000 F 
ATOM     32  F   UNL     1       1.483   2.404  21.281  0.00  0.00    +0.000 F 
ENDBRANCH  26  29
ENDBRANCH  21  23
ENDBRANCH   3  19
TORSDOF 5
ENDMDL
MODEL 9
REMARK VINA RESULT:      -7.9      8.375     11.586
REMARK  Name = 
REMARK  8 active torsions:
REMARK  status: ('A' for Active; 'I' for Inactive)
REMARK    1  A    between atoms: C_1  and  C_2
REMARK    2  A    between atoms: N_4  and  C_5
REMARK    3  A    between atoms: C_6  and  C_7
REMARK    4  A    between atoms: C_8  and  C_9
REMARK    5  A    between atoms: C_11  and  C_12
REMARK    6  A    between atoms: N_14  and  C_15
REMARK    7  A    between atoms: C_17  and  C_18
REMARK    8  A    between atoms: C_21  and  C_22
REMARK                            x       y       z     vdW  Elec       q    Type
REMARK                         _______ _______ _______ _____ _____    ______ ____
ROOT
ATOM      1  C   UNL     1       1.436   9.325  18.614  0.00  0.00    +0.000 C 
ATOM      2  O   UNL     1       1.705   9.835  17.534  0.00  0.00    +0.000 OA
ATOM      3  N   UNL     1       0.549   9.891  19.517  0.00  0.00    +0.000 N 
ATOM      4  H   UNL     1       0.446   9.441  20.414  0.00  0.00    +0.000 HD
ENDROOT
BRANCH   1   7
ATOM      5  C   UNL     1       2.971   6.107  19.353  0.00  0.00    +0.000 A 
ATOM      6  C   UNL     1       2.903   7.195  18.455  0.00  0.00    +0.000 A 
ATOM      7  C   UNL     1       2.081   8.119  19.063  0.00  0.00    +0.000 A 
ATOM      8  N   UNL     1       1.876   7.628  20.325  0.00  0.00    +0.000 N 
ATOM      9  N   UNL     1       2.368   6.393  20.513  0.00  0.00    +0.000 NA
ATOM     10  H   UNL     1       1.340   8.065  21.072  0.00  0.00    +0.000 HD
BRANCH   5  18
ATOM     11  C   UNL     1       6.066   5.316  19.288  0.00  0.00    +0.000 C 
ATOM     12  C   UNL     1       4.888   4.453  19.010  0.00  0.00    +0.000 A 
ATOM     13  N   UNL     1       5.074   3.151  18.758  0.00  0.00    +0.000 NA
ATOM     14  N   UNL     1       3.835   2.664  18.596  0.00  0.00    +0.000 N 
ATOM     15  C   UNL     1       3.676   1.248  18.357  0.00  0.00    +0.000 C 
ATOM     16  C   UNL     1       2.845   3.609  18.721  0.00  0.00    +0.000 A 
ATOM     17  C   UNL     1       1.402   3.304  18.543  0.00  0.00    +0.000 C 
ATOM     18  C   UNL     1       3.507   4.789  19.016  0.00  0.00    +0.000 A 
ENDBRANCH   5  18
ENDBRANCH   1   7
BRANCH   3  19
ATOM     19  C   UNL     1       0.022  11.264  19.330  0.00  0.00    +0.000 C 
ATOM     20  C   UNL     1      -1.508  11.393  19.456  0.00  0.00    +0.000 C 
ATOM     21  C   UNL     1      -1.310  11.715  20.965  0.00  0.00    +0.000 C 
ATOM     22  C   UNL     1       0.119  12.180  20.580  0.00  0.00    +0.000 C 
BRANCH  21  23
ATOM     23  C   UNL     1      -2.398  12.673  21.599  0.00  0.00    +0.000 A 
ATOM     24  C   UNL     1      -2.873  12.396  22.898  0.00  0.00    +0.000 A 
ATOM     25  C   UNL     1      -3.828  13.186  23.536  0.00  0.00    +0.000 A 
ATOM     26  C   UNL     1      -4.352  14.308  22.894  0.00  0.00    +0.000 A 
ATOM     27  C   UNL     1      -3.908  14.605  21.596  0.00  0.00    +0.000 A 
ATOM     28  C   UNL     1      -2.947  13.800  20.965  0.00  0.00    +0.000 A 
BRANCH  26  29
ATOM     29  C   UNL     1      -5.364  15.190  23.581  0.00  0.00    +0.000 C 
ATOM     30  F   UNL     1      -5.914  16.130  22.760  0.00  0.00    +0.000 F 
ATOM     31  F   UNL     1      -6.413  14.483  24.086  0.00  0.00    +0.000 F 
ATOM     32  F   UNL     1      -4.836  15.878  24.631  0.00  0.00    +0.000 F 
ENDBRANCH  26  29
ENDBRANCH  21  23
ENDBRANCH   3  19
TORSDOF 5
ENDMDL
