MODEL 1
REMARK VINA RESULT:      -7.8      0.000      0.000
REMARK  Name = 
REMARK  6 active torsions:
REMARK  status: ('A' for Active; 'I' for Inactive)
REMARK    1  A    between atoms: C_1  and  N_2
REMARK    2  A    between atoms: C_3  and  C_5
REMARK    3  A    between atoms: C_8  and  C_10
REMARK    4  A    between atoms: C_13  and  C_14
REMARK    5  A    between atoms: C_14  and  O_15
REMARK    6  A    between atoms: O_15  and  C_16
REMARK                            x       y       z     vdW  Elec       q    Type
REMARK                         _______ _______ _______ _____ _____    ______ ____
ROOT
ATOM      1  C   UNL     1      -1.852  11.837  20.843  0.00  0.00    +0.000 C 
ATOM      2  C   UNL     1      -1.213  11.536  19.497  0.00  0.00    +0.000 C 
ATOM      3  N   UNL     1      -0.032  12.394  19.286  0.00  0.00    +0.000 N 
ATOM      4  C   UNL     1       1.273  11.901  19.037  0.00  0.00    +0.000 C 
ATOM      5  O   UNL     1       2.264  12.635  19.040  0.00  0.00    +0.000 OA
ATOM      6  C   UNL     1      -0.303  13.775  19.598  0.00  0.00    +0.000 A 
ATOM      7  C   UNL     1       0.512  14.835  19.175  0.00  0.00    +0.000 A 
ATOM      8  C   UNL     1       0.181  16.165  19.469  0.00  0.00    +0.000 A 
ATOM      9  C   UNL     1      -0.975  16.462  20.183  0.00  0.00    +0.000 A 
ATOM     10  C   UNL     1      -1.797  15.430  20.620  0.00  0.00    +0.000 A 
ATOM     11  C   UNL     1      -1.456  14.101  20.347  0.00  0.00    +0.000 A 
ATOM     12  O   UNL     1      -2.319  13.181  20.898  0.00  0.00    +0.000 OA
ENDROOT
BRANCH   1  15
ATOM     13  C   UNL     1       0.095   9.533  23.153  0.00  0.00    +0.000 C 
ATOM     14  N   UNL     1      -0.625  10.081  22.032  0.00  0.00    +0.000 N 
ATOM     15  C   UNL     1      -0.905  11.433  21.987  0.00  0.00    +0.000 C 
ATOM     16  O   UNL     1      -0.390  12.242  22.757  0.00  0.00    +0.000 OA
ATOM     17  H   UNL     1      -1.214   9.470  21.477  0.00  0.00    +0.000 HD
ENDBRANCH   1  15
BRANCH   4  18
ATOM     18  C   UNL     1       1.469  10.462  18.871  0.00  0.00    +0.000 A 
ATOM     19  C   UNL     1       1.768   9.737  17.730  0.00  0.00    +0.000 A 
ATOM     20  C   UNL     1       1.945   8.391  18.128  0.00  0.00    +0.000 A 
ATOM     21  C   UNL     1       1.704   8.357  19.483  0.00  0.00    +0.000 A 
ATOM     22  O   UNL     1       1.343   9.597  19.923  0.00  0.00    +0.000 OA
BRANCH  21  23
ATOM     23  C   UNL     1       1.764   7.284  20.509  0.00  0.00    +0.000 C 
BRANCH  23  24
ATOM     24  O   UNL     1       2.669   6.318  19.998  0.00  0.00    +0.000 OA
BRANCH  24  25
ATOM     25  C   UNL     1       2.156   5.128  19.572  0.00  0.00    +0.000 A 
ATOM     26  C   UNL     1       1.411   4.456  20.546  0.00  0.00    +0.000 A 
ATOM     27  C   UNL     1       0.812   3.226  20.266  0.00  0.00    +0.000 A 
ATOM     28  C   UNL     1       0.957   2.654  19.004  0.00  0.00    +0.000 A 
ATOM     29  C   UNL     1       1.699   3.314  18.025  0.00  0.00    +0.000 A 
ATOM     30  C   UNL     1       2.294   4.544  18.312  0.00  0.00    +0.000 A 
ATOM     31  F   UNL     1       2.997   5.138  17.336  0.00  0.00    +0.000 F 
ENDBRANCH  24  25
ENDBRANCH  23  24
ENDBRANCH  21  23
ENDBRANCH   4  18
TORSDOF 5
ENDMDL
MODEL 2
REMARK VINA RESULT:      -7.7      0.918      1.238
REMARK  Name = 
REMARK  6 active torsions:
REMARK  status: ('A' for Active; 'I' for Inactive)
REMARK    1  A    between atoms: C_1  and  N_2
REMARK    2  A    between atoms: C_3  and  C_5
REMARK    3  A    between atoms: C_8  and  C_10
REMARK    4  A    between atoms: C_13  and  C_14
REMARK    5  A    between atoms: C_14  and  O_15
REMARK    6  A    between atoms: O_15  and  C_16
REMARK                            x       y       z     vdW  Elec       q    Type
REMARK                         _______ _______ _______ _____ _____    ______ ____
ROOT
ATOM      1  C   UNL     1      -1.781  11.732  20.786  0.00  0.00    +0.000 C 
ATOM      2  C   UNL     1      -1.157  11.422  19.435  0.00  0.00    +0.000 C 
ATOM      3  N   UNL     1       0.006  12.297  19.196  0.00  0.00    +0.000 N 
ATOM      4  C   UNL     1       1.316  11.822  18.934  0.00  0.00    +0.000 C 
ATOM      5  O   UNL     1       2.294  12.573  18.913  0.00  0.00    +0.000 OA
ATOM      6  C   UNL     1      -0.284  13.677  19.491  0.00  0.00    +0.000 A 
ATOM      7  C   UNL     1       0.507  14.745  19.042  0.00  0.00    +0.000 A 
ATOM      8  C   UNL     1       0.157  16.073  19.322  0.00  0.00    +0.000 A 
ATOM      9  C   UNL     1      -0.994  16.361  20.048  0.00  0.00    +0.000 A 
ATOM     10  C   UNL     1      -1.791  15.321  20.512  0.00  0.00    +0.000 A 
ATOM     11  C   UNL     1      -1.431  13.995  20.253  0.00  0.00    +0.000 A 
ATOM     12  O   UNL     1      -2.270  13.067  20.829  0.00  0.00    +0.000 OA
ENDROOT
BRANCH   1  15
ATOM     13  C   UNL     1       0.242   9.494  23.096  0.00  0.00    +0.000 C 
ATOM     14  N   UNL     1      -0.503  10.014  21.978  0.00  0.00    +0.000 N 
ATOM     15  C   UNL     1      -0.811  11.360  21.922  0.00  0.00    +0.000 C 
ATOM     16  O   UNL     1      -0.302  12.188  22.676  0.00  0.00    +0.000 OA
ATOM     17  H   UNL     1      -1.087   9.385  21.438  0.00  0.00    +0.000 HD
ENDBRANCH   1  15
BRANCH   4  18
ATOM     18  C   UNL     1       1.535  10.385  18.785  0.00  0.00    +0.000 A 
ATOM     19  C   UNL     1       1.872   9.655  17.659  0.00  0.00    +0.000 A 
ATOM     20  C   UNL     1       2.056   8.314  18.073  0.00  0.00    +0.000 A 
ATOM     21  C   UNL     1       1.779   8.288  19.421  0.00  0.00    +0.000 A 
ATOM     22  O   UNL     1       1.392   9.527  19.841  0.00  0.00    +0.000 OA
BRANCH  21  23
ATOM     23  C   UNL     1       1.826   7.225  20.457  0.00  0.00    +0.000 C 
BRANCH  23  24
ATOM     24  O   UNL     1       2.684   6.222  19.936  0.00  0.00    +0.000 OA
BRANCH  24  25
ATOM     25  C   UNL     1       2.162   4.976  19.743  0.00  0.00    +0.000 A 
ATOM     26  C   UNL     1       1.862   4.692  18.408  0.00  0.00    +0.000 A 
ATOM     27  C   UNL     1       1.328   3.454  18.042  0.00  0.00    +0.000 A 
ATOM     28  C   UNL     1       1.085   2.487  19.015  0.00  0.00    +0.000 A 
ATOM     29  C   UNL     1       1.379   2.760  20.351  0.00  0.00    +0.000 A 
ATOM     30  C   UNL     1       1.913   3.998  20.708  0.00  0.00    +0.000 A 
ATOM     31  F   UNL     1       2.179   4.211  22.006  0.00  0.00    +0.000 F 
ENDBRANCH  24  25
ENDBRANCH  23  24
ENDBRANCH  21  23
ENDBRANCH   4  18
TORSDOF 5
ENDMDL
MODEL 3
REMARK VINA RESULT:      -7.5      2.104      3.494
REMARK  Name = 
REMARK  6 active torsions:
REMARK  status: ('A' for Active; 'I' for Inactive)
REMARK    1  A    between atoms: C_1  and  N_2
REMARK    2  A    between atoms: C_3  and  C_5
REMARK    3  A    between atoms: C_8  and  C_10
REMARK    4  A    between atoms: C_13  and  C_14
REMARK    5  A    between atoms: C_14  and  O_15
REMARK    6  A    between atoms: O_15  and  C_16
REMARK                            x       y       z     vdW  Elec       q    Type
REMARK                         _______ _______ _______ _____ _____    ______ ____
ROOT
ATOM      1  C   UNL     1      -0.635  12.074  18.450  0.00  0.00    +0.000 C 
ATOM      2  C   UNL     1       0.637  11.490  19.041  0.00  0.00    +0.000 C 
ATOM      3  N   UNL     1       0.320  10.647  20.208  0.00  0.00    +0.000 N 
ATOM      4  C   UNL     1       0.676   9.280  20.321  0.00  0.00    +0.000 C 
ATOM      5  O   UNL     1       0.245   8.562  21.226  0.00  0.00    +0.000 OA
ATOM      6  C   UNL     1      -0.594  11.297  21.114  0.00  0.00    +0.000 A 
ATOM      7  C   UNL     1      -0.794  10.881  22.438  0.00  0.00    +0.000 A 
ATOM      8  C   UNL     1      -1.664  11.574  23.291  0.00  0.00    +0.000 A 
ATOM      9  C   UNL     1      -2.342  12.703  22.841  0.00  0.00    +0.000 A 
ATOM     10  C   UNL     1      -2.167  13.132  21.531  0.00  0.00    +0.000 A 
ATOM     11  C   UNL     1      -1.318  12.428  20.672  0.00  0.00    +0.000 A 
ATOM     12  O   UNL     1      -1.292  12.921  19.387  0.00  0.00    +0.000 OA
ENDROOT
BRANCH   1  15
ATOM     13  C   UNL     1      -2.773  10.263  15.885  0.00  0.00    +0.000 C 
ATOM     14  N   UNL     1      -1.813  11.127  16.521  0.00  0.00    +0.000 N 
ATOM     15  C   UNL     1      -1.514  10.957  17.860  0.00  0.00    +0.000 C 
ATOM     16  O   UNL     1      -1.871   9.968  18.498  0.00  0.00    +0.000 OA
ATOM     17  H   UNL     1      -1.626  12.039  16.120  0.00  0.00    +0.000 HD
ENDBRANCH   1  15
BRANCH   4  18
ATOM     18  C   UNL     1       1.495   8.671  19.276  0.00  0.00    +0.000 A 
ATOM     19  C   UNL     1       1.635   9.023  17.945  0.00  0.00    +0.000 A 
ATOM     20  C   UNL     1       2.620   8.171  17.391  0.00  0.00    +0.000 A 
ATOM     21  C   UNL     1       2.999   7.316  18.401  0.00  0.00    +0.000 A 
ATOM     22  O   UNL     1       2.267   7.568  19.524  0.00  0.00    +0.000 OA
BRANCH  21  23
ATOM     23  C   UNL     1       4.007   6.230  18.500  0.00  0.00    +0.000 C 
BRANCH  23  24
ATOM     24  O   UNL     1       3.622   5.453  19.623  0.00  0.00    +0.000 OA
BRANCH  24  25
ATOM     25  C   UNL     1       2.772   4.407  19.412  0.00  0.00    +0.000 A 
ATOM     26  C   UNL     1       3.238   3.485  18.470  0.00  0.00    +0.000 A 
ATOM     27  C   UNL     1       2.488   2.352  18.146  0.00  0.00    +0.000 A 
ATOM     28  C   UNL     1       1.257   2.134  18.762  0.00  0.00    +0.000 A 
ATOM     29  C   UNL     1       0.781   3.048  19.702  0.00  0.00    +0.000 A 
ATOM     30  C   UNL     1       1.537   4.177  20.022  0.00  0.00    +0.000 A 
ATOM     31  F   UNL     1       1.036   5.024  20.932  0.00  0.00    +0.000 F 
ENDBRANCH  24  25
ENDBRANCH  23  24
ENDBRANCH  21  23
ENDBRANCH   4  18
TORSDOF 5
ENDMDL
MODEL 4
REMARK VINA RESULT:      -7.5      2.149      3.644
REMARK  Name = 
REMARK  6 active torsions:
REMARK  status: ('A' for Active; 'I' for Inactive)
REMARK    1  A    between atoms: C_1  and  N_2
REMARK    2  A    between atoms: C_3  and  C_5
REMARK    3  A    between atoms: C_8  and  C_10
REMARK    4  A    between atoms: C_13  and  C_14
REMARK    5  A    between atoms: C_14  and  O_15
REMARK    6  A    between atoms: O_15  and  C_16
REMARK                            x       y       z     vdW  Elec       q    Type
REMARK                         _______ _______ _______ _____ _____    ______ ____
ROOT
ATOM      1  C   UNL     1       0.060  11.514  18.585  0.00  0.00    +0.000 C 
ATOM      2  C   UNL     1       1.282  10.865  19.213  0.00  0.00    +0.000 C 
ATOM      3  N   UNL     1       0.880   9.989  20.330  0.00  0.00    +0.000 N 
ATOM      4  C   UNL     1       1.186   8.607  20.405  0.00  0.00    +0.000 C 
ATOM      5  O   UNL     1       0.688   7.871  21.260  0.00  0.00    +0.000 OA
ATOM      6  C   UNL     1      -0.056  10.636  21.215  0.00  0.00    +0.000 A 
ATOM      7  C   UNL     1      -0.336  10.176  22.510  0.00  0.00    +0.000 A 
ATOM      8  C   UNL     1      -1.223  10.866  23.347  0.00  0.00    +0.000 A 
ATOM      9  C   UNL     1      -1.842  12.033  22.910  0.00  0.00    +0.000 A 
ATOM     10  C   UNL     1      -1.588  12.505  21.628  0.00  0.00    +0.000 A 
ATOM     11  C   UNL     1      -0.720  11.806  20.784  0.00  0.00    +0.000 A 
ATOM     12  O   UNL     1      -0.616  12.346  19.522  0.00  0.00    +0.000 OA
ENDROOT
BRANCH   1  15
ATOM     13  C   UNL     1      -3.128   9.704  17.587  0.00  0.00    +0.000 C 
ATOM     14  N   UNL     1      -2.179  10.702  18.009  0.00  0.00    +0.000 N 
ATOM     15  C   UNL     1      -0.824  10.450  17.909  0.00  0.00    +0.000 C 
ATOM     16  O   UNL     1      -0.372   9.493  17.282  0.00  0.00    +0.000 OA
ATOM     17  H   UNL     1      -2.469  11.408  18.677  0.00  0.00    +0.000 HD
ENDBRANCH   1  15
BRANCH   4  18
ATOM     18  C   UNL     1       2.036   8.011  19.378  0.00  0.00    +0.000 A 
ATOM     19  C   UNL     1       2.250   8.406  18.069  0.00  0.00    +0.000 A 
ATOM     20  C   UNL     1       3.235   7.544  17.530  0.00  0.00    +0.000 A 
ATOM     21  C   UNL     1       3.540   6.643  18.525  0.00  0.00    +0.000 A 
ATOM     22  O   UNL     1       2.762   6.876  19.621  0.00  0.00    +0.000 OA
BRANCH  21  23
ATOM     23  C   UNL     1       4.510   5.523  18.631  0.00  0.00    +0.000 C 
BRANCH  23  24
ATOM     24  O   UNL     1       3.812   4.370  18.187  0.00  0.00    +0.000 OA
BRANCH  24  25
ATOM     25  C   UNL     1       2.855   3.850  19.008  0.00  0.00    +0.000 A 
ATOM     26  C   UNL     1       3.361   3.336  20.206  0.00  0.00    +0.000 A 
ATOM     27  C   UNL     1       2.510   2.775  21.160  0.00  0.00    +0.000 A 
ATOM     28  C   UNL     1       1.138   2.718  20.921  0.00  0.00    +0.000 A 
ATOM     29  C   UNL     1       0.622   3.226  19.728  0.00  0.00    +0.000 A 
ATOM     30  C   UNL     1       1.480   3.787  18.780  0.00  0.00    +0.000 A 
ATOM     31  F   UNL     1       0.934   4.262  17.650  0.00  0.00    +0.000 F 
ENDBRANCH  24  25
ENDBRANCH  23  24
ENDBRANCH  21  23
ENDBRANCH   4  18
TORSDOF 5
ENDMDL
MODEL 5
REMARK VINA RESULT:      -7.4      2.030      3.274
REMARK  Name = 
REMARK  6 active torsions:
REMARK  status: ('A' for Active; 'I' for Inactive)
REMARK    1  A    between atoms: C_1  and  N_2
REMARK    2  A    between atoms: C_3  and  C_5
REMARK    3  A    between atoms: C_8  and  C_10
REMARK    4  A    between atoms: C_13  and  C_14
REMARK    5  A    between atoms: C_14  and  O_15
REMARK    6  A    between atoms: O_15  and  C_16
REMARK                            x       y       z     vdW  Elec       q    Type
REMARK                         _______ _______ _______ _____ _____    ______ ____
ROOT
ATOM      1  C   UNL     1      -1.085  12.845  18.834  0.00  0.00    +0.000 C 
ATOM      2  C   UNL     1       0.162  12.198  19.415  0.00  0.00    +0.000 C 
ATOM      3  N   UNL     1      -0.202  11.269  20.501  0.00  0.00    +0.000 N 
ATOM      4  C   UNL     1       0.136   9.893  20.515  0.00  0.00    +0.000 C 
ATOM      5  O   UNL     1      -0.331   9.111  21.346  0.00  0.00    +0.000 OA
ATOM      6  C   UNL     1      -1.137  11.857  21.428  0.00  0.00    +0.000 A 
ATOM      7  C   UNL     1      -1.384  11.339  22.707  0.00  0.00    +0.000 A 
ATOM      8  C   UNL     1      -2.273  11.974  23.586  0.00  0.00    +0.000 A 
ATOM      9  C   UNL     1      -2.925  13.143  23.207  0.00  0.00    +0.000 A 
ATOM     10  C   UNL     1      -2.703  13.673  21.941  0.00  0.00    +0.000 A 
ATOM     11  C   UNL     1      -1.834  13.029  21.055  0.00  0.00    +0.000 A 
ATOM     12  O   UNL     1      -1.762  13.622  19.815  0.00  0.00    +0.000 OA
ENDROOT
BRANCH   1  15
ATOM     13  C   UNL     1      -2.652  10.931  15.950  0.00  0.00    +0.000 C 
ATOM     14  N   UNL     1      -1.775  11.737  16.760  0.00  0.00    +0.000 N 
ATOM     15  C   UNL     1      -1.956  11.789  18.129  0.00  0.00    +0.000 C 
ATOM     16  O   UNL     1      -2.702  11.017  18.729  0.00  0.00    +0.000 OA
ATOM     17  H   UNL     1      -1.278  12.510  16.332  0.00  0.00    +0.000 HD
ENDBRANCH   1  15
BRANCH   4  18
ATOM     18  C   UNL     1       0.982   9.358  19.451  0.00  0.00    +0.000 A 
ATOM     19  C   UNL     1       1.334   9.920  18.235  0.00  0.00    +0.000 A 
ATOM     20  C   UNL     1       2.247   9.033  17.617  0.00  0.00    +0.000 A 
ATOM     21  C   UNL     1       2.372   7.957  18.466  0.00  0.00    +0.000 A 
ATOM     22  O   UNL     1       1.550   8.117  19.544  0.00  0.00    +0.000 OA
BRANCH  21  23
ATOM     23  C   UNL     1       3.194   6.720  18.440  0.00  0.00    +0.000 C 
BRANCH  23  24
ATOM     24  O   UNL     1       3.160   6.212  19.765  0.00  0.00    +0.000 OA
BRANCH  24  25
ATOM     25  C   UNL     1       2.819   4.902  19.935  0.00  0.00    +0.000 A 
ATOM     26  C   UNL     1       1.515   4.718  20.404  0.00  0.00    +0.000 A 
ATOM     27  C   UNL     1       1.008   3.435  20.623  0.00  0.00    +0.000 A 
ATOM     28  C   UNL     1       1.808   2.320  20.378  0.00  0.00    +0.000 A 
ATOM     29  C   UNL     1       3.112   2.492  19.911  0.00  0.00    +0.000 A 
ATOM     30  C   UNL     1       3.610   3.778  19.693  0.00  0.00    +0.000 A 
ATOM     31  F   UNL     1       4.869   3.890  19.244  0.00  0.00    +0.000 F 
ENDBRANCH  24  25
ENDBRANCH  23  24
ENDBRANCH  21  23
ENDBRANCH   4  18
TORSDOF 5
ENDMDL
MODEL 6
REMARK VINA RESULT:      -7.3      3.697      8.663
REMARK  Name = 
REMARK  6 active torsions:
REMARK  status: ('A' for Active; 'I' for Inactive)
REMARK    1  A    between atoms: C_1  and  N_2
REMARK    2  A    between atoms: C_3  and  C_5
REMARK    3  A    between atoms: C_8  and  C_10
REMARK    4  A    between atoms: C_13  and  C_14
REMARK    5  A    between atoms: C_14  and  O_15
REMARK    6  A    between atoms: O_15  and  C_16
REMARK                            x       y       z     vdW  Elec       q    Type
REMARK                         _______ _______ _______ _____ _____    ______ ____
ROOT
ATOM      1  C   UNL     1       4.198   4.176  19.267  0.00  0.00    +0.000 C 
ATOM      2  C   UNL     1       4.292   5.679  19.472  0.00  0.00    +0.000 C 
ATOM      3  N   UNL     1       4.080   6.385  18.194  0.00  0.00    +0.000 N 
ATOM      4  C   UNL     1       3.069   7.354  17.981  0.00  0.00    +0.000 C 
ATOM      5  O   UNL     1       2.808   7.794  16.859  0.00  0.00    +0.000 OA
ATOM      6  C   UNL     1       4.857   5.811  17.123  0.00  0.00    +0.000 A 
ATOM      7  C   UNL     1       5.107   6.473  15.913  0.00  0.00    +0.000 A 
ATOM      8  C   UNL     1       5.904   5.887  14.919  0.00  0.00    +0.000 A 
ATOM      9  C   UNL     1       6.474   4.634  15.120  0.00  0.00    +0.000 A 
ATOM     10  C   UNL     1       6.235   3.954  16.308  0.00  0.00    +0.000 A 
ATOM     11  C   UNL     1       5.422   4.526  17.291  0.00  0.00    +0.000 A 
ATOM     12  O   UNL     1       5.214   3.715  18.383  0.00  0.00    +0.000 OA
ENDROOT
BRANCH   1  15
ATOM     13  C   UNL     1       0.558   3.193  19.740  0.00  0.00    +0.000 C 
ATOM     14  N   UNL     1       1.882   3.727  19.931  0.00  0.00    +0.000 N 
ATOM     15  C   UNL     1       2.765   3.779  18.869  0.00  0.00    +0.000 C 
ATOM     16  O   UNL     1       2.414   3.585  17.706  0.00  0.00    +0.000 OA
ATOM     17  H   UNL     1       2.282   3.734  20.863  0.00  0.00    +0.000 HD
ENDBRANCH   1  15
BRANCH   4  18
ATOM     18  C   UNL     1       2.238   7.773  19.107  0.00  0.00    +0.000 A 
ATOM     19  C   UNL     1       2.058   7.177  20.343  0.00  0.00    +0.000 A 
ATOM     20  C   UNL     1       1.225   8.034  21.101  0.00  0.00    +0.000 A 
ATOM     21  C   UNL     1       0.906   9.087  20.274  0.00  0.00    +0.000 A 
ATOM     22  O   UNL     1       1.457   8.896  19.041  0.00  0.00    +0.000 OA
BRANCH  21  23
ATOM     23  C   UNL     1       0.120  10.334  20.459  0.00  0.00    +0.000 C 
BRANCH  23  24
ATOM     24  O   UNL     1      -0.046  10.877  19.159  0.00  0.00    +0.000 OA
BRANCH  24  25
ATOM     25  C   UNL     1      -1.311  10.933  18.649  0.00  0.00    +0.000 A 
ATOM     26  C   UNL     1      -1.531  10.045  17.593  0.00  0.00    +0.000 A 
ATOM     27  C   UNL     1      -2.777   9.973  16.966  0.00  0.00    +0.000 A 
ATOM     28  C   UNL     1      -3.817  10.797  17.391  0.00  0.00    +0.000 A 
ATOM     29  C   UNL     1      -3.609  11.688  18.444  0.00  0.00    +0.000 A 
ATOM     30  C   UNL     1      -2.361  11.753  19.065  0.00  0.00    +0.000 A 
ATOM     31  F   UNL     1      -2.212  12.626  20.073  0.00  0.00    +0.000 F 
ENDBRANCH  24  25
ENDBRANCH  23  24
ENDBRANCH  21  23
ENDBRANCH   4  18
TORSDOF 5
ENDMDL
MODEL 7
REMARK VINA RESULT:      -7.3      3.676      8.790
REMARK  Name = 
REMARK  6 active torsions:
REMARK  status: ('A' for Active; 'I' for Inactive)
REMARK    1  A    between atoms: C_1  and  N_2
REMARK    2  A    between atoms: C_3  and  C_5
REMARK    3  A    between atoms: C_8  and  C_10
REMARK    4  A    between atoms: C_13  and  C_14
REMARK    5  A    between atoms: C_14  and  O_15
REMARK    6  A    between atoms: O_15  and  C_16
REMARK                            x       y       z     vdW  Elec       q    Type
REMARK                         _______ _______ _______ _____ _____    ______ ____
ROOT
ATOM      1  C   UNL     1       3.778   4.898  17.568  0.00  0.00    +0.000 C 
ATOM      2  C   UNL     1       2.452   5.589  17.840  0.00  0.00    +0.000 C 
ATOM      3  N   UNL     1       2.211   5.684  19.292  0.00  0.00    +0.000 N 
ATOM      4  C   UNL     1       1.992   6.902  19.982  0.00  0.00    +0.000 C 
ATOM      5  O   UNL     1       1.970   6.964  21.214  0.00  0.00    +0.000 OA
ATOM      6  C   UNL     1       2.458   4.433  19.965  0.00  0.00    +0.000 A 
ATOM      7  C   UNL     1       1.994   4.149  21.257  0.00  0.00    +0.000 A 
ATOM      8  C   UNL     1       2.225   2.900  21.851  0.00  0.00    +0.000 A 
ATOM      9  C   UNL     1       2.917   1.909  21.162  0.00  0.00    +0.000 A 
ATOM     10  C   UNL     1       3.394   2.168  19.883  0.00  0.00    +0.000 A 
ATOM     11  C   UNL     1       3.184   3.421  19.298  0.00  0.00    +0.000 A 
ATOM     12  O   UNL     1       3.770   3.563  18.060  0.00  0.00    +0.000 OA
ENDROOT
BRANCH   1  15
ATOM     13  C   UNL     1       6.642   7.389  17.393  0.00  0.00    +0.000 C 
ATOM     14  N   UNL     1       5.436   6.648  17.126  0.00  0.00    +0.000 N 
ATOM     15  C   UNL     1       4.946   5.766  18.071  0.00  0.00    +0.000 C 
ATOM     16  O   UNL     1       5.369   5.729  19.225  0.00  0.00    +0.000 OA
ATOM     17  H   UNL     1       5.151   6.498  16.165  0.00  0.00    +0.000 HD
ENDBRANCH   1  15
BRANCH   4  18
ATOM     18  C   UNL     1       1.893   8.143  19.218  0.00  0.00    +0.000 A 
ATOM     19  C   UNL     1       2.606   8.557  18.107  0.00  0.00    +0.000 A 
ATOM     20  C   UNL     1       2.058   9.796  17.698  0.00  0.00    +0.000 A 
ATOM     21  C   UNL     1       1.068  10.095  18.606  0.00  0.00    +0.000 A 
ATOM     22  O   UNL     1       1.014   9.132  19.571  0.00  0.00    +0.000 OA
BRANCH  21  23
ATOM     23  C   UNL     1       0.089  11.206  18.727  0.00  0.00    +0.000 C 
BRANCH  23  24
ATOM     24  O   UNL     1      -1.161  10.587  18.984  0.00  0.00    +0.000 OA
BRANCH  24  25
ATOM     25  C   UNL     1      -2.137  10.707  18.037  0.00  0.00    +0.000 A 
ATOM     26  C   UNL     1      -1.912   9.930  16.897  0.00  0.00    +0.000 A 
ATOM     27  C   UNL     1      -2.822   9.934  15.837  0.00  0.00    +0.000 A 
ATOM     28  C   UNL     1      -3.968  10.723  15.909  0.00  0.00    +0.000 A 
ATOM     29  C   UNL     1      -4.202  11.503  17.042  0.00  0.00    +0.000 A 
ATOM     30  C   UNL     1      -3.289  11.493  18.096  0.00  0.00    +0.000 A 
ATOM     31  F   UNL     1      -3.560  12.260  19.163  0.00  0.00    +0.000 F 
ENDBRANCH  24  25
ENDBRANCH  23  24
ENDBRANCH  21  23
ENDBRANCH   4  18
TORSDOF 5
ENDMDL
MODEL 8
REMARK VINA RESULT:      -7.3      3.404      8.568
REMARK  Name = 
REMARK  6 active torsions:
REMARK  status: ('A' for Active; 'I' for Inactive)
REMARK    1  A    between atoms: C_1  and  N_2
REMARK    2  A    between atoms: C_3  and  C_5
REMARK    3  A    between atoms: C_8  and  C_10
REMARK    4  A    between atoms: C_13  and  C_14
REMARK    5  A    between atoms: C_14  and  O_15
REMARK    6  A    between atoms: O_15  and  C_16
REMARK                            x       y       z     vdW  Elec       q    Type
REMARK                         _______ _______ _______ _____ _____    ______ ____
ROOT
ATOM      1  C   UNL     1       3.852   4.155  19.273  0.00  0.00    +0.000 C 
ATOM      2  C   UNL     1       4.059   5.642  19.507  0.00  0.00    +0.000 C 
ATOM      3  N   UNL     1       3.953   6.381  18.236  0.00  0.00    +0.000 N 
ATOM      4  C   UNL     1       3.031   7.433  18.003  0.00  0.00    +0.000 C 
ATOM      5  O   UNL     1       2.848   7.908  16.880  0.00  0.00    +0.000 OA
ATOM      6  C   UNL     1       4.719   5.762  17.183  0.00  0.00    +0.000 A 
ATOM      7  C   UNL     1       5.066   6.419  15.994  0.00  0.00    +0.000 A 
ATOM      8  C   UNL     1       5.850   5.786  15.020  0.00  0.00    +0.000 A 
ATOM      9  C   UNL     1       6.310   4.488  15.218  0.00  0.00    +0.000 A 
ATOM     10  C   UNL     1       5.973   3.812  16.385  0.00  0.00    +0.000 A 
ATOM     11  C   UNL     1       5.173   4.434  17.348  0.00  0.00    +0.000 A 
ATOM     12  O   UNL     1       4.860   3.626  18.418  0.00  0.00    +0.000 OA
ENDROOT
BRANCH   1  15
ATOM     13  C   UNL     1       0.579   2.262  18.895  0.00  0.00    +0.000 C 
ATOM     14  N   UNL     1       1.851   2.743  19.369  0.00  0.00    +0.000 N 
ATOM     15  C   UNL     1       2.407   3.881  18.817  0.00  0.00    +0.000 C 
ATOM     16  O   UNL     1       1.776   4.635  18.078  0.00  0.00    +0.000 OA
ATOM     17  H   UNL     1       2.485   2.097  19.827  0.00  0.00    +0.000 HD
ENDBRANCH   1  15
BRANCH   4  18
ATOM     18  C   UNL     1       2.195   7.901  19.106  0.00  0.00    +0.000 A 
ATOM     19  C   UNL     1       1.931   7.309  20.329  0.00  0.00    +0.000 A 
ATOM     20  C   UNL     1       1.138   8.217  21.068  0.00  0.00    +0.000 A 
ATOM     21  C   UNL     1       0.922   9.298  20.243  0.00  0.00    +0.000 A 
ATOM     22  O   UNL     1       1.500   9.078  19.027  0.00  0.00    +0.000 OA
BRANCH  21  23
ATOM     23  C   UNL     1       0.222  10.596  20.416  0.00  0.00    +0.000 C 
BRANCH  23  24
ATOM     24  O   UNL     1      -0.069  11.051  19.103  0.00  0.00    +0.000 OA
BRANCH  24  25
ATOM     25  C   UNL     1      -1.371  11.034  18.699  0.00  0.00    +0.000 A 
ATOM     26  C   UNL     1      -2.195  11.904  19.420  0.00  0.00    +0.000 A 
ATOM     27  C   UNL     1      -3.556  12.011  19.123  0.00  0.00    +0.000 A 
ATOM     28  C   UNL     1      -4.107  11.243  18.100  0.00  0.00    +0.000 A 
ATOM     29  C   UNL     1      -3.295  10.371  17.374  0.00  0.00    +0.000 A 
ATOM     30  C   UNL     1      -1.936  10.270  17.676  0.00  0.00    +0.000 A 
ATOM     31  F   UNL     1      -1.198   9.418  16.948  0.00  0.00    +0.000 F 
ENDBRANCH  24  25
ENDBRANCH  23  24
ENDBRANCH  21  23
ENDBRANCH   4  18
TORSDOF 5
ENDMDL
MODEL 9
REMARK VINA RESULT:      -7.3      2.175      3.413
REMARK  Name = 
REMARK  6 active torsions:
REMARK  status: ('A' for Active; 'I' for Inactive)
REMARK    1  A    between atoms: C_1  and  N_2
REMARK    2  A    between atoms: C_3  and  C_5
REMARK    3  A    between atoms: C_8  and  C_10
REMARK    4  A    between atoms: C_13  and  C_14
REMARK    5  A    between atoms: C_14  and  O_15
REMARK    6  A    between atoms: O_15  and  C_16
REMARK                            x       y       z     vdW  Elec       q    Type
REMARK                         _______ _______ _______ _____ _____    ______ ____
ROOT
ATOM      1  C   UNL     1      -1.231  12.616  18.734  0.00  0.00    +0.000 C 
ATOM      2  C   UNL     1       0.060  12.048  19.299  0.00  0.00    +0.000 C 
ATOM      3  N   UNL     1      -0.226  11.177  20.455  0.00  0.00    +0.000 N 
ATOM      4  C   UNL     1       0.159   9.815  20.538  0.00  0.00    +0.000 C 
ATOM      5  O   UNL     1      -0.247   9.072  21.434  0.00  0.00    +0.000 OA
ATOM      6  C   UNL     1      -1.142  11.792  21.383  0.00  0.00    +0.000 A 
ATOM      7  C   UNL     1      -1.319  11.347  22.701  0.00  0.00    +0.000 A 
ATOM      8  C   UNL     1      -2.192  12.006  23.577  0.00  0.00    +0.000 A 
ATOM      9  C   UNL     1      -2.899  13.128  23.156  0.00  0.00    +0.000 A 
ATOM     10  C   UNL     1      -2.748  13.585  21.852  0.00  0.00    +0.000 A 
ATOM     11  C   UNL     1      -1.894  12.915  20.970  0.00  0.00    +0.000 A 
ATOM     12  O   UNL     1      -1.894  13.432  19.694  0.00  0.00    +0.000 OA
ENDROOT
BRANCH   1  15
ATOM     13  C   UNL     1      -2.303   9.946  16.253  0.00  0.00    +0.000 C 
ATOM     14  N   UNL     1      -1.532  10.884  17.027  0.00  0.00    +0.000 N 
ATOM     15  C   UNL     1      -2.094  11.492  18.133  0.00  0.00    +0.000 C 
ATOM     16  O   UNL     1      -3.159  11.120  18.624  0.00  0.00    +0.000 OA
ATOM     17  H   UNL     1      -0.746  11.356  16.592  0.00  0.00    +0.000 HD
ENDBRANCH   1  15
BRANCH   4  18
ATOM     18  C   UNL     1       0.978   9.243  19.472  0.00  0.00    +0.000 A 
ATOM     19  C   UNL     1       1.224   9.716  18.195  0.00  0.00    +0.000 A 
ATOM     20  C   UNL     1       2.159   8.837  17.599  0.00  0.00    +0.000 A 
ATOM     21  C   UNL     1       2.402   7.850  18.527  0.00  0.00    +0.000 A 
ATOM     22  O   UNL     1       1.633   8.052  19.635  0.00  0.00    +0.000 OA
BRANCH  21  23
ATOM     23  C   UNL     1       3.302   6.668  18.555  0.00  0.00    +0.000 C 
BRANCH  23  24
ATOM     24  O   UNL     1       2.453   5.539  18.421  0.00  0.00    +0.000 OA
BRANCH  24  25
ATOM     25  C   UNL     1       2.495   4.592  19.402  0.00  0.00    +0.000 A 
ATOM     26  C   UNL     1       3.502   3.640  19.223  0.00  0.00    +0.000 A 
ATOM     27  C   UNL     1       3.683   2.607  20.145  0.00  0.00    +0.000 A 
ATOM     28  C   UNL     1       2.850   2.515  21.259  0.00  0.00    +0.000 A 
ATOM     29  C   UNL     1       1.840   3.459  21.448  0.00  0.00    +0.000 A 
ATOM     30  C   UNL     1       1.667   4.489  20.522  0.00  0.00    +0.000 A 
ATOM     31  F   UNL     1       0.683   5.372  20.749  0.00  0.00    +0.000 F 
ENDBRANCH  24  25
ENDBRANCH  23  24
ENDBRANCH  21  23
ENDBRANCH   4  18
TORSDOF 5
ENDMDL
