MODEL 1
REMARK VINA RESULT:      -8.9      0.000      0.000
REMARK  Name = 
REMARK  5 active torsions:
REMARK  status: ('A' for Active; 'I' for Inactive)
REMARK    1  A    between atoms: C_1  and  C_2
REMARK    2  A    between atoms: C_2  and  C_3
REMARK    3  A    between atoms: C_10  and  C_11
REMARK    4  A    between atoms: N_13  and  C_14
REMARK    5  A    between atoms: C_18  and  C_19
REMARK                            x       y       z     vdW  Elec       q    Type
REMARK                         _______ _______ _______ _____ _____    ______ ____
ROOT
ATOM      1  C   UNL     1       3.157   6.758  18.162  0.00  0.00    +0.000 C 
ATOM      2  O   UNL     1       2.644   5.653  18.007  0.00  0.00    +0.000 OA
ATOM      3  N   UNL     1       4.496   7.074  18.013  0.00  0.00    +0.000 N 
ATOM      4  H   UNL     1       4.805   7.978  18.345  0.00  0.00    +0.000 HD
ENDROOT
BRANCH   1  12
ATOM      5  C   UNL     1      -1.293  11.641  19.810  0.00  0.00    +0.000 C 
ATOM      6  O   UNL     1      -1.980  12.248  20.640  0.00  0.00    +0.000 OA
ATOM      7  N   UNL     1      -0.429  10.640  20.210  0.00  0.00    +0.000 N 
ATOM      8  C   UNL     1      -0.450  10.216  21.620  0.00  0.00    +0.000 C 
ATOM      9  C   UNL     1       0.630   9.153  21.804  0.00  0.00    +0.000 C 
ATOM     10  C   UNL     1       1.052   8.905  20.393  0.00  0.00    +0.000 A 
ATOM     11  C   UNL     1       1.939   7.927  19.964  0.00  0.00    +0.000 A 
ATOM     12  C   UNL     1       2.265   7.864  18.606  0.00  0.00    +0.000 A 
ATOM     13  C   UNL     1       1.702   8.780  17.707  0.00  0.00    +0.000 A 
ATOM     14  C   UNL     1       0.800   9.760  18.159  0.00  0.00    +0.000 A 
ATOM     15  C   UNL     1       0.462   9.808  19.504  0.00  0.00    +0.000 A 
BRANCH   5  17
ATOM     16  C   UNL     1      -2.615  11.331  17.678  0.00  0.00    +0.000 C 
ATOM     17  C   UNL     1      -1.404  11.972  18.337  0.00  0.00    +0.000 C 
ENDBRANCH   5  17
ENDBRANCH   1  12
BRANCH   3  18
ATOM     18  C   UNL     1       5.515   6.177  17.604  0.00  0.00    +0.000 A 
ATOM     19  C   UNL     1       6.422   5.598  18.493  0.00  0.00    +0.000 A 
ATOM     20  C   UNL     1       7.430   4.752  18.033  0.00  0.00    +0.000 A 
ATOM     21  C   UNL     1       7.531   4.460  16.675  0.00  0.00    +0.000 A 
ATOM     22  C   UNL     1       6.611   4.995  15.764  0.00  0.00    +0.000 A 
ATOM     23  C   UNL     1       5.606   5.856  16.241  0.00  0.00    +0.000 A 
BRANCH  22  24
ATOM     24  C   UNL     1       6.699   4.660  14.344  0.00  0.00    +0.000 A 
ATOM     25  C   UNL     1       6.016   3.748  13.561  0.00  0.00    +0.000 A 
ATOM     26  C   UNL     1       6.550   3.892  12.268  0.00  0.00    +0.000 A 
ATOM     27  N   UNL     1       7.511   4.814  12.214  0.00  0.00    +0.000 NA
ATOM     28  N   UNL     1       7.585   5.259  13.480  0.00  0.00    +0.000 N 
ATOM     29  H   UNL     1       8.274   5.971  13.695  0.00  0.00    +0.000 HD
ENDBRANCH  22  24
ENDBRANCH   3  18
TORSDOF 4
ENDMDL
MODEL 2
REMARK VINA RESULT:      -8.6      2.304      3.198
REMARK  Name = 
REMARK  5 active torsions:
REMARK  status: ('A' for Active; 'I' for Inactive)
REMARK    1  A    between atoms: C_1  and  C_2
REMARK    2  A    between atoms: C_2  and  C_3
REMARK    3  A    between atoms: C_10  and  C_11
REMARK    4  A    between atoms: N_13  and  C_14
REMARK    5  A    between atoms: C_18  and  C_19
REMARK                            x       y       z     vdW  Elec       q    Type
REMARK                         _______ _______ _______ _____ _____    ______ ____
ROOT
ATOM      1  C   UNL     1       2.104   7.591  19.545  0.00  0.00    +0.000 C 
ATOM      2  O   UNL     1       2.607   7.727  18.434  0.00  0.00    +0.000 OA
ATOM      3  N   UNL     1       2.162   6.464  20.347  0.00  0.00    +0.000 N 
ATOM      4  H   UNL     1       1.555   6.430  21.154  0.00  0.00    +0.000 HD
ENDROOT
BRANCH   1  12
ATOM      5  C   UNL     1      -1.921  12.717  21.522  0.00  0.00    +0.000 C 
ATOM      6  O   UNL     1      -2.600  13.294  22.378  0.00  0.00    +0.000 OA
ATOM      7  N   UNL     1      -1.199  11.583  21.844  0.00  0.00    +0.000 N 
ATOM      8  C   UNL     1      -1.370  10.999  23.185  0.00  0.00    +0.000 C 
ATOM      9  C   UNL     1      -0.425   9.806  23.299  0.00  0.00    +0.000 C 
ATOM     10  C   UNL     1       0.074   9.682  21.896  0.00  0.00    +0.000 A 
ATOM     11  C   UNL     1       0.883   8.668  21.403  0.00  0.00    +0.000 A 
ATOM     12  C   UNL     1       1.303   8.730  20.071  0.00  0.00    +0.000 A 
ATOM     13  C   UNL     1       0.908   9.806  19.262  0.00  0.00    +0.000 A 
ATOM     14  C   UNL     1       0.082  10.820  19.777  0.00  0.00    +0.000 A 
ATOM     15  C   UNL     1      -0.349  10.746  21.094  0.00  0.00    +0.000 A 
BRANCH   5  17
ATOM     16  C   UNL     1      -0.937  14.406  19.919  0.00  0.00    +0.000 C 
ATOM     17  C   UNL     1      -1.885  13.231  20.099  0.00  0.00    +0.000 C 
ENDBRANCH   5  17
ENDBRANCH   1  12
BRANCH   3  18
ATOM     18  C   UNL     1       2.864   5.271  20.039  0.00  0.00    +0.000 A 
ATOM     19  C   UNL     1       2.558   4.037  20.617  0.00  0.00    +0.000 A 
ATOM     20  C   UNL     1       3.305   2.901  20.311  0.00  0.00    +0.000 A 
ATOM     21  C   UNL     1       4.359   2.983  19.405  0.00  0.00    +0.000 A 
ATOM     22  C   UNL     1       4.665   4.198  18.779  0.00  0.00    +0.000 A 
ATOM     23  C   UNL     1       3.910   5.339  19.107  0.00  0.00    +0.000 A 
BRANCH  22  24
ATOM     24  C   UNL     1       5.752   4.274  17.804  0.00  0.00    +0.000 A 
ATOM     25  C   UNL     1       5.756   4.349  16.424  0.00  0.00    +0.000 A 
ATOM     26  C   UNL     1       7.113   4.395  16.057  0.00  0.00    +0.000 A 
ATOM     27  N   UNL     1       7.927   4.341  17.111  0.00  0.00    +0.000 NA
ATOM     28  N   UNL     1       7.081   4.264  18.153  0.00  0.00    +0.000 N 
ATOM     29  H   UNL     1       7.478   4.195  19.083  0.00  0.00    +0.000 HD
ENDBRANCH  22  24
ENDBRANCH   3  18
TORSDOF 4
ENDMDL
MODEL 3
REMARK VINA RESULT:      -8.4      5.813      7.552
REMARK  Name = 
REMARK  5 active torsions:
REMARK  status: ('A' for Active; 'I' for Inactive)
REMARK    1  A    between atoms: C_1  and  C_2
REMARK    2  A    between atoms: C_2  and  C_3
REMARK    3  A    between atoms: C_10  and  C_11
REMARK    4  A    between atoms: N_13  and  C_14
REMARK    5  A    between atoms: C_18  and  C_19
REMARK                            x       y       z     vdW  Elec       q    Type
REMARK                         _______ _______ _______ _____ _____    ______ ____
ROOT
ATOM      1  C   UNL     1       7.975   8.022  18.079  0.00  0.00    +0.000 C 
ATOM      2  O   UNL     1       8.501   7.196  18.820  0.00  0.00    +0.000 OA
ATOM      3  N   UNL     1       7.053   7.765  17.079  0.00  0.00    +0.000 N 
ATOM      4  H   UNL     1       6.840   8.513  16.433  0.00  0.00    +0.000 HD
ENDROOT
BRANCH   1  12
ATOM      5  C   UNL     1       9.396  14.642  18.802  0.00  0.00    +0.000 C 
ATOM      6  O   UNL     1       9.984  15.569  19.369  0.00  0.00    +0.000 OA
ATOM      7  N   UNL     1       9.642  13.330  19.159  0.00  0.00    +0.000 N 
ATOM      8  C   UNL     1      10.508  13.070  20.321  0.00  0.00    +0.000 C 
ATOM      9  C   UNL     1      10.663  11.558  20.459  0.00  0.00    +0.000 C 
ATOM     10  C   UNL     1       9.674  11.061  19.456  0.00  0.00    +0.000 A 
ATOM     11  C   UNL     1       9.313   9.737  19.249  0.00  0.00    +0.000 A 
ATOM     12  C   UNL     1       8.405   9.439  18.229  0.00  0.00    +0.000 A 
ATOM     13  C   UNL     1       7.880  10.469  17.434  0.00  0.00    +0.000 A 
ATOM     14  C   UNL     1       8.253  11.806  17.663  0.00  0.00    +0.000 A 
ATOM     15  C   UNL     1       9.139  12.101  18.689  0.00  0.00    +0.000 A 
BRANCH   5  17
ATOM     16  C   UNL     1       7.008  15.284  18.276  0.00  0.00    +0.000 C 
ATOM     17  C   UNL     1       8.378  14.930  17.719  0.00  0.00    +0.000 C 
ENDBRANCH   5  17
ENDBRANCH   1  12
BRANCH   3  18
ATOM     18  C   UNL     1       6.513   6.492  16.764  0.00  0.00    +0.000 A 
ATOM     19  C   UNL     1       7.159   5.575  15.933  0.00  0.00    +0.000 A 
ATOM     20  C   UNL     1       6.566   4.353  15.623  0.00  0.00    +0.000 A 
ATOM     21  C   UNL     1       5.322   4.025  16.157  0.00  0.00    +0.000 A 
ATOM     22  C   UNL     1       4.667   4.909  17.024  0.00  0.00    +0.000 A 
ATOM     23  C   UNL     1       5.272   6.143  17.319  0.00  0.00    +0.000 A 
BRANCH  22  24
ATOM     24  C   UNL     1       3.376   4.548  17.609  0.00  0.00    +0.000 A 
ATOM     25  C   UNL     1       2.666   5.061  18.678  0.00  0.00    +0.000 A 
ATOM     26  C   UNL     1       1.492   4.291  18.751  0.00  0.00    +0.000 A 
ATOM     27  N   UNL     1       1.446   3.345  17.813  0.00  0.00    +0.000 NA
ATOM     28  N   UNL     1       2.596   3.518  17.140  0.00  0.00    +0.000 N 
ATOM     29  H   UNL     1       2.798   2.888  16.372  0.00  0.00    +0.000 HD
ENDBRANCH  22  24
ENDBRANCH   3  18
TORSDOF 4
ENDMDL
MODEL 4
REMARK VINA RESULT:      -8.3      3.323      9.627
REMARK  Name = 
REMARK  5 active torsions:
REMARK  status: ('A' for Active; 'I' for Inactive)
REMARK    1  A    between atoms: C_1  and  C_2
REMARK    2  A    between atoms: C_2  and  C_3
REMARK    3  A    between atoms: C_10  and  C_11
REMARK    4  A    between atoms: N_13  and  C_14
REMARK    5  A    between atoms: C_18  and  C_19
REMARK                            x       y       z     vdW  Elec       q    Type
REMARK                         _______ _______ _______ _____ _____    ______ ____
ROOT
ATOM      1  C   UNL     1       1.754   8.993  18.441  0.00  0.00    +0.000 C 
ATOM      2  O   UNL     1       2.206   9.580  17.463  0.00  0.00    +0.000 OA
ATOM      3  N   UNL     1       0.793   9.466  19.317  0.00  0.00    +0.000 N 
ATOM      4  H   UNL     1       0.646   8.953  20.175  0.00  0.00    +0.000 HD
ENDROOT
BRANCH   1  12
ATOM      5  C   UNL     1       3.862   2.704  19.983  0.00  0.00    +0.000 C 
ATOM      6  O   UNL     1       4.484   1.671  19.710  0.00  0.00    +0.000 OA
ATOM      7  N   UNL     1       3.903   3.794  19.135  0.00  0.00    +0.000 N 
ATOM      8  C   UNL     1       4.583   3.648  17.837  0.00  0.00    +0.000 C 
ATOM      9  C   UNL     1       4.536   5.001  17.131  0.00  0.00    +0.000 C 
ATOM     10  C   UNL     1       3.625   5.776  18.025  0.00  0.00    +0.000 A 
ATOM     11  C   UNL     1       3.136   7.052  17.786  0.00  0.00    +0.000 A 
ATOM     12  C   UNL     1       2.330   7.657  18.756  0.00  0.00    +0.000 A 
ATOM     13  C   UNL     1       2.034   6.975  19.945  0.00  0.00    +0.000 A 
ATOM     14  C   UNL     1       2.534   5.679  20.167  0.00  0.00    +0.000 A 
ATOM     15  C   UNL     1       3.317   5.074  19.194  0.00  0.00    +0.000 A 
BRANCH   5  17
ATOM     16  C   UNL     1       1.567   2.426  21.007  0.00  0.00    +0.000 C 
ATOM     17  C   UNL     1       3.026   2.784  21.243  0.00  0.00    +0.000 C 
ENDBRANCH   5  17
ENDBRANCH   1  12
BRANCH   3  18
ATOM     18  C   UNL     1       0.119  10.709  19.208  0.00  0.00    +0.000 A 
ATOM     19  C   UNL     1       0.737  11.935  19.462  0.00  0.00    +0.000 A 
ATOM     20  C   UNL     1       0.019  13.127  19.379  0.00  0.00    +0.000 A 
ATOM     21  C   UNL     1      -1.327  13.107  19.022  0.00  0.00    +0.000 A 
ATOM     22  C   UNL     1      -1.964  11.895  18.723  0.00  0.00    +0.000 A 
ATOM     23  C   UNL     1      -1.230  10.700  18.822  0.00  0.00    +0.000 A 
BRANCH  22  24
ATOM     24  C   UNL     1      -3.369  11.880  18.316  0.00  0.00    +0.000 A 
ATOM     25  C   UNL     1      -4.029  11.239  17.286  0.00  0.00    +0.000 A 
ATOM     26  C   UNL     1      -5.378  11.619  17.413  0.00  0.00    +0.000 A 
ATOM     27  N   UNL     1      -5.577  12.450  18.435  0.00  0.00    +0.000 NA
ATOM     28  N   UNL     1      -4.349  12.596  18.962  0.00  0.00    +0.000 N 
ATOM     29  H   UNL     1      -4.244  13.211  19.760  0.00  0.00    +0.000 HD
ENDBRANCH  22  24
ENDBRANCH   3  18
TORSDOF 4
ENDMDL
MODEL 5
REMARK VINA RESULT:      -8.3      1.751      2.244
REMARK  Name = 
REMARK  5 active torsions:
REMARK  status: ('A' for Active; 'I' for Inactive)
REMARK    1  A    between atoms: C_1  and  C_2
REMARK    2  A    between atoms: C_2  and  C_3
REMARK    3  A    between atoms: C_10  and  C_11
REMARK    4  A    between atoms: N_13  and  C_14
REMARK    5  A    between atoms: C_18  and  C_19
REMARK                            x       y       z     vdW  Elec       q    Type
REMARK                         _______ _______ _______ _____ _____    ______ ____
ROOT
ATOM      1  C   UNL     1       2.051   6.814  19.831  0.00  0.00    +0.000 C 
ATOM      2  O   UNL     1       1.931   5.921  20.665  0.00  0.00    +0.000 OA
ATOM      3  N   UNL     1       2.715   6.728  18.620  0.00  0.00    +0.000 N 
ATOM      4  H   UNL     1       2.887   7.588  18.116  0.00  0.00    +0.000 HD
ENDROOT
BRANCH   1  12
ATOM      5  C   UNL     1      -0.923  12.841  20.927  0.00  0.00    +0.000 C 
ATOM      6  O   UNL     1      -1.536  13.632  21.652  0.00  0.00    +0.000 OA
ATOM      7  N   UNL     1      -0.498  11.621  21.418  0.00  0.00    +0.000 N 
ATOM      8  C   UNL     1      -0.916  11.226  22.774  0.00  0.00    +0.000 C 
ATOM      9  C   UNL     1      -0.268   9.880  23.088  0.00  0.00    +0.000 C 
ATOM     10  C   UNL     1       0.318   9.511  21.765  0.00  0.00    +0.000 A 
ATOM     11  C   UNL     1       0.928   8.306  21.448  0.00  0.00    +0.000 A 
ATOM     12  C   UNL     1       1.472   8.143  20.170  0.00  0.00    +0.000 A 
ATOM     13  C   UNL     1       1.398   9.188  19.239  0.00  0.00    +0.000 A 
ATOM     14  C   UNL     1       0.769  10.400  19.575  0.00  0.00    +0.000 A 
ATOM     15  C   UNL     1       0.213  10.552  20.838  0.00  0.00    +0.000 A 
BRANCH   5  17
ATOM     16  C   UNL     1       0.463  14.217  19.322  0.00  0.00    +0.000 C 
ATOM     17  C   UNL     1      -0.645  13.188  19.480  0.00  0.00    +0.000 C 
ENDBRANCH   5  17
ENDBRANCH   1  12
BRANCH   3  18
ATOM     18  C   UNL     1       3.340   5.564  18.104  0.00  0.00    +0.000 A 
ATOM     19  C   UNL     1       3.061   4.279  18.572  0.00  0.00    +0.000 A 
ATOM     20  C   UNL     1       3.733   3.171  18.057  0.00  0.00    +0.000 A 
ATOM     21  C   UNL     1       4.683   3.336  17.053  0.00  0.00    +0.000 A 
ATOM     22  C   UNL     1       4.957   4.609  16.536  0.00  0.00    +0.000 A 
ATOM     23  C   UNL     1       4.279   5.718  17.072  0.00  0.00    +0.000 A 
BRANCH  22  24
ATOM     24  C   UNL     1       5.930   4.775  15.458  0.00  0.00    +0.000 A 
ATOM     25  C   UNL     1       5.968   4.300  14.161  0.00  0.00    +0.000 A 
ATOM     26  C   UNL     1       7.165   4.799  13.615  0.00  0.00    +0.000 A 
ATOM     27  N   UNL     1       7.856   5.530  14.489  0.00  0.00    +0.000 NA
ATOM     28  N   UNL     1       7.093   5.496  15.595  0.00  0.00    +0.000 N 
ATOM     29  H   UNL     1       7.428   5.980  16.420  0.00  0.00    +0.000 HD
ENDBRANCH  22  24
ENDBRANCH   3  18
TORSDOF 4
ENDMDL
MODEL 6
REMARK VINA RESULT:      -8.3      1.895      2.411
REMARK  Name = 
REMARK  5 active torsions:
REMARK  status: ('A' for Active; 'I' for Inactive)
REMARK    1  A    between atoms: C_1  and  C_2
REMARK    2  A    between atoms: C_2  and  C_3
REMARK    3  A    between atoms: C_10  and  C_11
REMARK    4  A    between atoms: N_13  and  C_14
REMARK    5  A    between atoms: C_18  and  C_19
REMARK                            x       y       z     vdW  Elec       q    Type
REMARK                         _______ _______ _______ _____ _____    ______ ____
ROOT
ATOM      1  C   UNL     1       2.346   7.662  18.689  0.00  0.00    +0.000 C 
ATOM      2  O   UNL     1       3.105   8.075  17.817  0.00  0.00    +0.000 OA
ATOM      3  N   UNL     1       2.119   6.339  19.027  0.00  0.00    +0.000 N 
ATOM      4  H   UNL     1       1.339   6.138  19.638  0.00  0.00    +0.000 HD
ENDROOT
BRANCH   1  12
ATOM      5  C   UNL     1      -1.731  12.222  21.682  0.00  0.00    +0.000 C 
ATOM      6  O   UNL     1      -2.325  12.659  22.674  0.00  0.00    +0.000 OA
ATOM      7  N   UNL     1      -0.888  11.132  21.791  0.00  0.00    +0.000 N 
ATOM      8  C   UNL     1      -0.824  10.420  23.079  0.00  0.00    +0.000 C 
ATOM      9  C   UNL     1       0.214   9.310  22.947  0.00  0.00    +0.000 C 
ATOM     10  C   UNL     1       0.518   9.352  21.485  0.00  0.00    +0.000 A 
ATOM     11  C   UNL     1       1.323   8.461  20.790  0.00  0.00    +0.000 A 
ATOM     12  C   UNL     1       1.544   8.676  19.427  0.00  0.00    +0.000 A 
ATOM     13  C   UNL     1       0.959   9.780  18.788  0.00  0.00    +0.000 A 
ATOM     14  C   UNL     1       0.141  10.668  19.507  0.00  0.00    +0.000 A 
ATOM     15  C   UNL     1      -0.093  10.441  20.856  0.00  0.00    +0.000 A 
BRANCH   5  17
ATOM     16  C   UNL     1      -3.185  12.358  19.619  0.00  0.00    +0.000 C 
ATOM     17  C   UNL     1      -1.935  12.860  20.325  0.00  0.00    +0.000 C 
ENDBRANCH   5  17
ENDBRANCH   1  12
BRANCH   3  18
ATOM     18  C   UNL     1       2.768   5.219  18.450  0.00  0.00    +0.000 A 
ATOM     19  C   UNL     1       2.434   3.900  18.763  0.00  0.00    +0.000 A 
ATOM     20  C   UNL     1       3.132   2.834  18.198  0.00  0.00    +0.000 A 
ATOM     21  C   UNL     1       4.163   3.075  17.294  0.00  0.00    +0.000 A 
ATOM     22  C   UNL     1       4.495   4.387  16.930  0.00  0.00    +0.000 A 
ATOM     23  C   UNL     1       3.791   5.453  17.518  0.00  0.00    +0.000 A 
BRANCH  22  24
ATOM     24  C   UNL     1       5.557   4.637  15.957  0.00  0.00    +0.000 A 
ATOM     25  C   UNL     1       5.721   4.244  14.641  0.00  0.00    +0.000 A 
ATOM     26  C   UNL     1       6.949   4.798  14.237  0.00  0.00    +0.000 A 
ATOM     27  N   UNL     1       7.543   5.484  15.212  0.00  0.00    +0.000 NA
ATOM     28  N   UNL     1       6.686   5.368  16.241  0.00  0.00    +0.000 N 
ATOM     29  H   UNL     1       6.936   5.805  17.121  0.00  0.00    +0.000 HD
ENDBRANCH  22  24
ENDBRANCH   3  18
TORSDOF 4
ENDMDL
MODEL 7
REMARK VINA RESULT:      -8.3      3.576      9.020
REMARK  Name = 
REMARK  5 active torsions:
REMARK  status: ('A' for Active; 'I' for Inactive)
REMARK    1  A    between atoms: C_1  and  C_2
REMARK    2  A    between atoms: C_2  and  C_3
REMARK    3  A    between atoms: C_10  and  C_11
REMARK    4  A    between atoms: N_13  and  C_14
REMARK    5  A    between atoms: C_18  and  C_19
REMARK                            x       y       z     vdW  Elec       q    Type
REMARK                         _______ _______ _______ _____ _____    ______ ____
ROOT
ATOM      1  C   UNL     1       1.921   9.092  18.274  0.00  0.00    +0.000 C 
ATOM      2  O   UNL     1       2.184   9.469  17.136  0.00  0.00    +0.000 OA
ATOM      3  N   UNL     1       1.255   9.814  19.250  0.00  0.00    +0.000 N 
ATOM      4  H   UNL     1       1.266   9.449  20.193  0.00  0.00    +0.000 HD
ENDROOT
BRANCH   1  12
ATOM      5  C   UNL     1       3.620   2.783  20.191  0.00  0.00    +0.000 C 
ATOM      6  O   UNL     1       4.186   1.703  19.988  0.00  0.00    +0.000 OA
ATOM      7  N   UNL     1       3.745   3.823  19.290  0.00  0.00    +0.000 N 
ATOM      8  C   UNL     1       4.445   3.570  18.019  0.00  0.00    +0.000 C 
ATOM      9  C   UNL     1       4.495   4.884  17.244  0.00  0.00    +0.000 C 
ATOM     10  C   UNL     1       3.609   5.757  18.073  0.00  0.00    +0.000 A 
ATOM     11  C   UNL     1       3.201   7.044  17.756  0.00  0.00    +0.000 A 
ATOM     12  C   UNL     1       2.410   7.744  18.672  0.00  0.00    +0.000 A 
ATOM     13  C   UNL     1       2.047   7.143  19.886  0.00  0.00    +0.000 A 
ATOM     14  C   UNL     1       2.464   5.835  20.187  0.00  0.00    +0.000 A 
ATOM     15  C   UNL     1       3.233   5.135  19.268  0.00  0.00    +0.000 A 
BRANCH   5  17
ATOM     16  C   UNL     1       1.298   2.638  21.181  0.00  0.00    +0.000 C 
ATOM     17  C   UNL     1       2.760   2.976  21.422  0.00  0.00    +0.000 C 
ENDBRANCH   5  17
ENDBRANCH   1  12
BRANCH   3  18
ATOM     18  C   UNL     1       0.712  11.113  19.087  0.00  0.00    +0.000 A 
ATOM     19  C   UNL     1      -0.655  11.384  19.174  0.00  0.00    +0.000 A 
ATOM     20  C   UNL     1      -1.141  12.674  18.966  0.00  0.00    +0.000 A 
ATOM     21  C   UNL     1      -0.260  13.715  18.684  0.00  0.00    +0.000 A 
ATOM     22  C   UNL     1       1.120  13.481  18.629  0.00  0.00    +0.000 A 
ATOM     23  C   UNL     1       1.595  12.173  18.830  0.00  0.00    +0.000 A 
BRANCH  22  24
ATOM     24  C   UNL     1       2.045  14.583  18.366  0.00  0.00    +0.000 A 
ATOM     25  C   UNL     1       1.969  15.939  18.619  0.00  0.00    +0.000 A 
ATOM     26  C   UNL     1       3.172  16.479  18.131  0.00  0.00    +0.000 A 
ATOM     27  N   UNL     1       3.963  15.551  17.592  0.00  0.00    +0.000 NA
ATOM     28  N   UNL     1       3.259  14.417  17.742  0.00  0.00    +0.000 N 
ATOM     29  H   UNL     1       3.659  13.557  17.384  0.00  0.00    +0.000 HD
ENDBRANCH  22  24
ENDBRANCH   3  18
TORSDOF 4
ENDMDL
MODEL 8
REMARK VINA RESULT:      -8.2      3.964     11.409
REMARK  Name = 
REMARK  5 active torsions:
REMARK  status: ('A' for Active; 'I' for Inactive)
REMARK    1  A    between atoms: C_1  and  C_2
REMARK    2  A    between atoms: C_2  and  C_3
REMARK    3  A    between atoms: C_10  and  C_11
REMARK    4  A    between atoms: N_13  and  C_14
REMARK    5  A    between atoms: C_18  and  C_19
REMARK                            x       y       z     vdW  Elec       q    Type
REMARK                         _______ _______ _______ _____ _____    ______ ____
ROOT
ATOM      1  C   UNL     1      -0.502  10.989  20.947  0.00  0.00    +0.000 C 
ATOM      2  O   UNL     1      -0.864  11.660  19.984  0.00  0.00    +0.000 OA
ATOM      3  N   UNL     1      -0.747  11.261  22.282  0.00  0.00    +0.000 N 
ATOM      4  H   UNL     1      -0.240  10.723  22.971  0.00  0.00    +0.000 HD
ENDROOT
BRANCH   1  12
ATOM      5  C   UNL     1       2.845   5.184  19.735  0.00  0.00    +0.000 C 
ATOM      6  O   UNL     1       3.560   4.473  19.020  0.00  0.00    +0.000 OA
ATOM      7  N   UNL     1       2.546   6.481  19.363  0.00  0.00    +0.000 N 
ATOM      8  C   UNL     1       2.978   6.947  18.035  0.00  0.00    +0.000 C 
ATOM      9  C   UNL     1       2.579   8.414  17.903  0.00  0.00    +0.000 C 
ATOM     10  C   UNL     1       1.745   8.611  19.126  0.00  0.00    +0.000 A 
ATOM     11  C   UNL     1       1.020   9.750  19.447  0.00  0.00    +0.000 A 
ATOM     12  C   UNL     1       0.330   9.788  20.662  0.00  0.00    +0.000 A 
ATOM     13  C   UNL     1       0.383   8.689  21.532  0.00  0.00    +0.000 A 
ATOM     14  C   UNL     1       1.117   7.541  21.187  0.00  0.00    +0.000 A 
ATOM     15  C   UNL     1       1.785   7.499  19.971  0.00  0.00    +0.000 A 
BRANCH   5  17
ATOM     16  C   UNL     1       1.302   3.483  20.793  0.00  0.00    +0.000 C 
ATOM     17  C   UNL     1       2.265   4.637  21.022  0.00  0.00    +0.000 C 
ENDBRANCH   5  17
ENDBRANCH   1  12
BRANCH   3  18
ATOM     18  C   UNL     1      -1.510  12.350  22.774  0.00  0.00    +0.000 A 
ATOM     19  C   UNL     1      -0.946  13.578  23.124  0.00  0.00    +0.000 A 
ATOM     20  C   UNL     1      -1.735  14.604  23.641  0.00  0.00    +0.000 A 
ATOM     21  C   UNL     1      -3.107  14.419  23.798  0.00  0.00    +0.000 A 
ATOM     22  C   UNL     1      -3.707  13.211  23.419  0.00  0.00    +0.000 A 
ATOM     23  C   UNL     1      -2.896  12.181  22.909  0.00  0.00    +0.000 A 
BRANCH  22  24
ATOM     24  C   UNL     1      -5.151  13.030  23.553  0.00  0.00    +0.000 A 
ATOM     25  C   UNL     1      -6.226  13.752  23.067  0.00  0.00    +0.000 A 
ATOM     26  C   UNL     1      -7.369  13.081  23.538  0.00  0.00    +0.000 A 
ATOM     27  N   UNL     1      -7.065  12.017  24.281  0.00  0.00    +0.000 NA
ATOM     28  N   UNL     1      -5.721  12.011  24.278  0.00  0.00    +0.000 N 
ATOM     29  H   UNL     1      -5.248  11.285  24.804  0.00  0.00    +0.000 HD
ENDBRANCH  22  24
ENDBRANCH   3  18
TORSDOF 4
ENDMDL
MODEL 9
REMARK VINA RESULT:      -8.1      2.254      3.143
REMARK  Name = 
REMARK  5 active torsions:
REMARK  status: ('A' for Active; 'I' for Inactive)
REMARK    1  A    between atoms: C_1  and  C_2
REMARK    2  A    between atoms: C_2  and  C_3
REMARK    3  A    between atoms: C_10  and  C_11
REMARK    4  A    between atoms: N_13  and  C_14
REMARK    5  A    between atoms: C_18  and  C_19
REMARK                            x       y       z     vdW  Elec       q    Type
REMARK                         _______ _______ _______ _____ _____    ______ ____
ROOT
ATOM      1  C   UNL     1       1.877   8.364  18.538  0.00  0.00    +0.000 C 
ATOM      2  O   UNL     1       1.976   8.651  17.349  0.00  0.00    +0.000 OA
ATOM      3  N   UNL     1       2.120   7.127  19.111  0.00  0.00    +0.000 N 
ATOM      4  H   UNL     1       1.827   6.988  20.069  0.00  0.00    +0.000 HD
ENDROOT
BRANCH   1  12
ATOM      5  C   UNL     1      -0.588  13.475  22.302  0.00  0.00    +0.000 C 
ATOM      6  O   UNL     1      -1.207  13.898  23.285  0.00  0.00    +0.000 OA
ATOM      7  N   UNL     1      -0.357  12.122  22.145  0.00  0.00    +0.000 N 
ATOM      8  C   UNL     1      -0.986  11.188  23.094  0.00  0.00    +0.000 C 
ATOM      9  C   UNL     1      -0.525   9.778  22.736  0.00  0.00    +0.000 C 
ATOM     10  C   UNL     1       0.189  10.012  21.445  0.00  0.00    +0.000 A 
ATOM     11  C   UNL     1       0.710   9.035  20.609  0.00  0.00    +0.000 A 
ATOM     12  C   UNL     1       1.397   9.431  19.457  0.00  0.00    +0.000 A 
ATOM     13  C   UNL     1       1.552  10.795  19.168  0.00  0.00    +0.000 A 
ATOM     14  C   UNL     1       1.011  11.771  20.024  0.00  0.00    +0.000 A 
ATOM     15  C   UNL     1       0.313  11.375  21.156  0.00  0.00    +0.000 A 
BRANCH   5  17
ATOM     16  C   UNL     1       1.194  15.144  21.644  0.00  0.00    +0.000 C 
ATOM     17  C   UNL     1      -0.089  14.433  21.242  0.00  0.00    +0.000 C 
ENDBRANCH   5  17
ENDBRANCH   1  12
BRANCH   3  18
ATOM     18  C   UNL     1       2.577   5.975  18.422  0.00  0.00    +0.000 A 
ATOM     19  C   UNL     1       1.923   4.743  18.481  0.00  0.00    +0.000 A 
ATOM     20  C   UNL     1       2.437   3.631  17.816  0.00  0.00    +0.000 A 
ATOM     21  C   UNL     1       3.606   3.743  17.068  0.00  0.00    +0.000 A 
ATOM     22  C   UNL     1       4.263   4.976  16.959  0.00  0.00    +0.000 A 
ATOM     23  C   UNL     1       3.739   6.087  17.644  0.00  0.00    +0.000 A 
BRANCH  22  24
ATOM     24  C   UNL     1       5.472   5.099  16.146  0.00  0.00    +0.000 A 
ATOM     25  C   UNL     1       5.867   4.485  14.972  0.00  0.00    +0.000 A 
ATOM     26  C   UNL     1       7.136   5.017  14.682  0.00  0.00    +0.000 A 
ATOM     27  N   UNL     1       7.541   5.896  15.598  0.00  0.00    +0.000 NA
ATOM     28  N   UNL     1       6.521   5.925  16.473  0.00  0.00    +0.000 N 
ATOM     29  H   UNL     1       6.608   6.525  17.286  0.00  0.00    +0.000 HD
ENDBRANCH  22  24
ENDBRANCH   3  18
TORSDOF 4
ENDMDL
