MODEL 1
REMARK VINA RESULT:      -8.2      0.000      0.000
REMARK  Name = 
REMARK  7 active torsions:
REMARK  status: ('A' for Active; 'I' for Inactive)
REMARK    1  A    between atoms: C_1  and  C_2
REMARK    2  A    between atoms: C_8  and  C_9
REMARK    3  A    between atoms: C_9  and  N_10
REMARK    4  A    between atoms: N_10  and  C_11
REMARK    5  A    between atoms: C_15  and  C_16
REMARK    6  A    between atoms: C_16  and  S_17
REMARK    7  A    between atoms: S_17  and  C_20
REMARK                            x       y       z     vdW  Elec       q    Type
REMARK                         _______ _______ _______ _____ _____    ______ ____
ROOT
ATOM      1  C   UNL     1       1.989   5.438  20.436  0.00  0.00    +0.000 A 
ATOM      2  C   UNL     1       0.992   4.469  20.543  0.00  0.00    +0.000 A 
ATOM      3  C   UNL     1       1.136   3.235  19.898  0.00  0.00    +0.000 A 
ATOM      4  C   UNL     1       2.315   2.927  19.212  0.00  0.00    +0.000 A 
ATOM      5  C   UNL     1       3.363   3.854  19.142  0.00  0.00    +0.000 A 
ATOM      6  C   UNL     1       3.163   5.100  19.749  0.00  0.00    +0.000 A 
ENDROOT
BRANCH   1   7
ATOM      7  N   UNL     1       1.894   6.669  21.099  0.00  0.00    +0.000 N 
ATOM      8  H   UNL     1       1.196   6.720  21.840  0.00  0.00    +0.000 HD
BRANCH   7   9
ATOM      9  C   UNL     1       1.830   7.864  20.239  0.00  0.00    +0.000 C 
BRANCH   9  17
ATOM     10  C   UNL     1      -1.364  12.396  19.240  0.00  0.00    +0.000 C 
ATOM     11  C   UNL     1      -1.267  11.799  20.611  0.00  0.00    +0.000 A 
ATOM     12  C   UNL     1      -1.926  12.316  21.669  0.00  0.00    +0.000 A 
ATOM     13  C   UNL     1      -1.791  11.694  22.978  0.00  0.00    +0.000 A 
ATOM     14  C   UNL     1      -1.035  10.599  23.161  0.00  0.00    +0.000 A 
ATOM     15  C   UNL     1      -0.343  10.027  22.059  0.00  0.00    +0.000 A 
ATOM     16  N   UNL     1       0.439   8.973  21.992  0.00  0.00    +0.000 NA
ATOM     17  C   UNL     1       0.869   8.920  20.684  0.00  0.00    +0.000 A 
ATOM     18  C   UNL     1       0.309   9.942  19.946  0.00  0.00    +0.000 A 
ATOM     19  N   UNL     1      -0.472  10.656  20.823  0.00  0.00    +0.000 N 
ENDBRANCH   9  17
ENDBRANCH   7   9
ENDBRANCH   1   7
BRANCH   5  20
ATOM     20  C   UNL     1       4.696   3.451  18.551  0.00  0.00    +0.000 C 
BRANCH  20  21
ATOM     21  S   UNL     1       5.069   4.332  17.028  0.00  0.00    +0.000 S 
ATOM     22  O   UNL     1       5.393   3.368  16.010  0.00  0.00    +0.000 OA
ATOM     23  O   UNL     1       4.006   5.314  16.810  0.00  0.00    +0.000 OA
BRANCH  21  24
ATOM     24  C   UNL     1       6.550   5.317  17.343  0.00  0.00    +0.000 C 
ATOM     25  C   UNL     1       6.939   5.223  18.830  0.00  0.00    +0.000 C 
ATOM     26  C   UNL     1       8.200   6.023  19.140  0.00  0.00    +0.000 C 
ATOM     27  C   UNL     1       8.053   7.472  18.690  0.00  0.00    +0.000 C 
ATOM     28  C   UNL     1       7.698   7.561  17.209  0.00  0.00    +0.000 C 
ATOM     29  C   UNL     1       6.428   6.772  16.892  0.00  0.00    +0.000 C 
ENDBRANCH  21  24
ENDBRANCH  20  21
ENDBRANCH   5  20
TORSDOF 6
ENDMDL
MODEL 2
REMARK VINA RESULT:      -8.1      2.383      3.064
REMARK  Name = 
REMARK  7 active torsions:
REMARK  status: ('A' for Active; 'I' for Inactive)
REMARK    1  A    between atoms: C_1  and  C_2
REMARK    2  A    between atoms: C_8  and  C_9
REMARK    3  A    between atoms: C_9  and  N_10
REMARK    4  A    between atoms: N_10  and  C_11
REMARK    5  A    between atoms: C_15  and  C_16
REMARK    6  A    between atoms: C_16  and  S_17
REMARK    7  A    between atoms: S_17  and  C_20
REMARK                            x       y       z     vdW  Elec       q    Type
REMARK                         _______ _______ _______ _____ _____    ______ ____
ROOT
ATOM      1  C   UNL     1       2.352   5.251  18.877  0.00  0.00    +0.000 A 
ATOM      2  C   UNL     1       1.710   4.152  18.306  0.00  0.00    +0.000 A 
ATOM      3  C   UNL     1       2.388   3.335  17.394  0.00  0.00    +0.000 A 
ATOM      4  C   UNL     1       3.739   3.557  17.111  0.00  0.00    +0.000 A 
ATOM      5  C   UNL     1       4.432   4.613  17.720  0.00  0.00    +0.000 A 
ATOM      6  C   UNL     1       3.709   5.445  18.582  0.00  0.00    +0.000 A 
ENDROOT
BRANCH   1   7
ATOM      7  N   UNL     1       1.715   6.067  19.821  0.00  0.00    +0.000 N 
ATOM      8  H   UNL     1       0.701   6.124  19.745  0.00  0.00    +0.000 HD
BRANCH   7   9
ATOM      9  C   UNL     1       2.300   7.406  20.018  0.00  0.00    +0.000 C 
BRANCH   9  17
ATOM     10  C   UNL     1      -1.049  11.860  19.195  0.00  0.00    +0.000 C 
ATOM     11  C   UNL     1      -0.843  11.284  20.563  0.00  0.00    +0.000 A 
ATOM     12  C   UNL     1      -1.435  11.803  21.660  0.00  0.00    +0.000 A 
ATOM     13  C   UNL     1      -1.194  11.201  22.963  0.00  0.00    +0.000 A 
ATOM     14  C   UNL     1      -0.404  10.124  23.105  0.00  0.00    +0.000 A 
ATOM     15  C   UNL     1       0.219   9.550  21.963  0.00  0.00    +0.000 A 
ATOM     16  N   UNL     1       1.015   8.511  21.853  0.00  0.00    +0.000 NA
ATOM     17  C   UNL     1       1.352   8.448  20.518  0.00  0.00    +0.000 A 
ATOM     18  C   UNL     1       0.719   9.450  19.810  0.00  0.00    +0.000 A 
ATOM     19  N   UNL     1      -0.012  10.160  20.732  0.00  0.00    +0.000 N 
ENDBRANCH   9  17
ENDBRANCH   7   9
ENDBRANCH   1   7
BRANCH   5  20
ATOM     20  C   UNL     1       5.929   4.741  17.544  0.00  0.00    +0.000 C 
BRANCH  20  21
ATOM     21  S   UNL     1       6.373   5.839  16.190  0.00  0.00    +0.000 S 
ATOM     22  O   UNL     1       5.219   6.626  15.843  0.00  0.00    +0.000 OA
ATOM     23  O   UNL     1       7.637   6.489  16.540  0.00  0.00    +0.000 OA
BRANCH  21  24
ATOM     24  C   UNL     1       6.768   4.790  14.775  0.00  0.00    +0.000 C 
ATOM     25  C   UNL     1       7.602   5.581  13.749  0.00  0.00    +0.000 C 
ATOM     26  C   UNL     1       7.979   4.727  12.544  0.00  0.00    +0.000 C 
ATOM     27  C   UNL     1       6.743   4.109  11.902  0.00  0.00    +0.000 C 
ATOM     28  C   UNL     1       5.937   3.302  12.914  0.00  0.00    +0.000 C 
ATOM     29  C   UNL     1       5.544   4.153  14.120  0.00  0.00    +0.000 C 
ENDBRANCH  21  24
ENDBRANCH  20  21
ENDBRANCH   5  20
TORSDOF 6
ENDMDL
MODEL 3
REMARK VINA RESULT:      -8.0      3.747      9.680
REMARK  Name = 
REMARK  7 active torsions:
REMARK  status: ('A' for Active; 'I' for Inactive)
REMARK    1  A    between atoms: C_1  and  C_2
REMARK    2  A    between atoms: C_8  and  C_9
REMARK    3  A    between atoms: C_9  and  N_10
REMARK    4  A    between atoms: N_10  and  C_11
REMARK    5  A    between atoms: C_15  and  C_16
REMARK    6  A    between atoms: C_16  and  S_17
REMARK    7  A    between atoms: S_17  and  C_20
REMARK                            x       y       z     vdW  Elec       q    Type
REMARK                         _______ _______ _______ _____ _____    ______ ____
ROOT
ATOM      1  C   UNL     1       1.773   7.950  19.749  0.00  0.00    +0.000 A 
ATOM      2  C   UNL     1       2.247   8.413  18.521  0.00  0.00    +0.000 A 
ATOM      3  C   UNL     1       1.659   9.528  17.913  0.00  0.00    +0.000 A 
ATOM      4  C   UNL     1       0.650  10.243  18.567  0.00  0.00    +0.000 A 
ATOM      5  C   UNL     1       0.198   9.844  19.832  0.00  0.00    +0.000 A 
ATOM      6  C   UNL     1       0.767   8.691  20.385  0.00  0.00    +0.000 A 
ENDROOT
BRANCH   1   7
ATOM      7  N   UNL     1       2.363   6.860  20.402  0.00  0.00    +0.000 N 
ATOM      8  H   UNL     1       3.291   7.025  20.788  0.00  0.00    +0.000 HD
BRANCH   7   9
ATOM      9  C   UNL     1       2.316   5.574  19.685  0.00  0.00    +0.000 C 
BRANCH   9  17
ATOM     10  C   UNL     1       7.891   5.569  18.879  0.00  0.00    +0.000 C 
ATOM     11  C   UNL     1       6.953   5.051  17.832  0.00  0.00    +0.000 A 
ATOM     12  C   UNL     1       7.390   4.570  16.649  0.00  0.00    +0.000 A 
ATOM     13  C   UNL     1       6.430   4.082  15.669  0.00  0.00    +0.000 A 
ATOM     14  C   UNL     1       5.110   4.083  15.917  0.00  0.00    +0.000 A 
ATOM     15  C   UNL     1       4.626   4.571  17.162  0.00  0.00    +0.000 A 
ATOM     16  N   UNL     1       3.402   4.664  17.628  0.00  0.00    +0.000 NA
ATOM     17  C   UNL     1       3.526   5.256  18.866  0.00  0.00    +0.000 A 
ATOM     18  C   UNL     1       4.853   5.491  19.162  0.00  0.00    +0.000 A 
ATOM     19  N   UNL     1       5.566   5.051  18.072  0.00  0.00    +0.000 N 
ENDBRANCH   9  17
ENDBRANCH   7   9
ENDBRANCH   1   7
BRANCH   5  20
ATOM     20  C   UNL     1      -0.764  10.718  20.606  0.00  0.00    +0.000 C 
BRANCH  20  21
ATOM     21  S   UNL     1      -0.025  12.279  21.109  0.00  0.00    +0.000 S 
ATOM     22  O   UNL     1       1.349  12.040  21.466  0.00  0.00    +0.000 OA
ATOM     23  O   UNL     1      -0.366  13.280  20.097  0.00  0.00    +0.000 OA
BRANCH  21  24
ATOM     24  C   UNL     1      -0.894  12.812  22.599  0.00  0.00    +0.000 C 
ATOM     25  C   UNL     1      -2.384  12.432  22.504  0.00  0.00    +0.000 C 
ATOM     26  C   UNL     1      -3.156  12.845  23.753  0.00  0.00    +0.000 C 
ATOM     27  C   UNL     1      -2.975  14.330  24.043  0.00  0.00    +0.000 C 
ATOM     28  C   UNL     1      -1.499  14.696  24.167  0.00  0.00    +0.000 C 
ATOM     29  C   UNL     1      -0.720  14.297  22.915  0.00  0.00    +0.000 C 
ENDBRANCH  21  24
ENDBRANCH  20  21
ENDBRANCH   5  20
TORSDOF 6
ENDMDL
MODEL 4
REMARK VINA RESULT:      -8.0      3.620      8.492
REMARK  Name = 
REMARK  7 active torsions:
REMARK  status: ('A' for Active; 'I' for Inactive)
REMARK    1  A    between atoms: C_1  and  C_2
REMARK    2  A    between atoms: C_8  and  C_9
REMARK    3  A    between atoms: C_9  and  N_10
REMARK    4  A    between atoms: N_10  and  C_11
REMARK    5  A    between atoms: C_15  and  C_16
REMARK    6  A    between atoms: C_16  and  S_17
REMARK    7  A    between atoms: S_17  and  C_20
REMARK                            x       y       z     vdW  Elec       q    Type
REMARK                         _______ _______ _______ _____ _____    ______ ____
ROOT
ATOM      1  C   UNL     1       1.875   5.558  19.610  0.00  0.00    +0.000 A 
ATOM      2  C   UNL     1       2.119   6.122  18.358  0.00  0.00    +0.000 A 
ATOM      3  C   UNL     1       2.096   7.512  18.194  0.00  0.00    +0.000 A 
ATOM      4  C   UNL     1       1.914   8.353  19.297  0.00  0.00    +0.000 A 
ATOM      5  C   UNL     1       1.734   7.818  20.580  0.00  0.00    +0.000 A 
ATOM      6  C   UNL     1       1.705   6.424  20.699  0.00  0.00    +0.000 A 
ENDROOT
BRANCH   1   7
ATOM      7  N   UNL     1       1.927   4.173  19.816  0.00  0.00    +0.000 N 
ATOM      8  H   UNL     1       1.268   3.802  20.498  0.00  0.00    +0.000 HD
BRANCH   7   9
ATOM      9  C   UNL     1       3.270   3.600  20.021  0.00  0.00    +0.000 C 
BRANCH   9  17
ATOM     10  C   UNL     1       7.783   6.511  18.320  0.00  0.00    +0.000 C 
ATOM     11  C   UNL     1       7.056   5.588  17.389  0.00  0.00    +0.000 A 
ATOM     12  C   UNL     1       7.435   5.415  16.106  0.00  0.00    +0.000 A 
ATOM     13  C   UNL     1       6.688   4.505  15.249  0.00  0.00    +0.000 A 
ATOM     14  C   UNL     1       5.632   3.815  15.708  0.00  0.00    +0.000 A 
ATOM     15  C   UNL     1       5.221   3.969  17.061  0.00  0.00    +0.000 A 
ATOM     16  N   UNL     1       4.240   3.406  17.728  0.00  0.00    +0.000 NA
ATOM     17  C   UNL     1       4.284   3.966  18.986  0.00  0.00    +0.000 A 
ATOM     18  C   UNL     1       5.334   4.857  19.084  0.00  0.00    +0.000 A 
ATOM     19  N   UNL     1       5.941   4.863  17.852  0.00  0.00    +0.000 N 
ENDBRANCH   9  17
ENDBRANCH   7   9
ENDBRANCH   1   7
BRANCH   5  20
ATOM     20  C   UNL     1       1.714   8.730  21.787  0.00  0.00    +0.000 C 
BRANCH  20  21
ATOM     21  S   UNL     1       0.058   9.308  22.187  0.00  0.00    +0.000 S 
ATOM     22  O   UNL     1      -0.883   8.277  21.837  0.00  0.00    +0.000 OA
ATOM     23  O   UNL     1       0.093   9.852  23.546  0.00  0.00    +0.000 OA
BRANCH  21  24
ATOM     24  C   UNL     1      -0.269  10.732  21.127  0.00  0.00    +0.000 C 
ATOM     25  C   UNL     1      -0.936  10.273  19.817  0.00  0.00    +0.000 C 
ATOM     26  C   UNL     1      -1.251  11.447  18.897  0.00  0.00    +0.000 C 
ATOM     27  C   UNL     1      -0.004  12.281  18.627  0.00  0.00    +0.000 C 
ATOM     28  C   UNL     1       0.636  12.760  19.926  0.00  0.00    +0.000 C 
ATOM     29  C   UNL     1       0.966  11.588  20.850  0.00  0.00    +0.000 C 
ENDBRANCH  21  24
ENDBRANCH  20  21
ENDBRANCH   5  20
TORSDOF 6
ENDMDL
MODEL 5
REMARK VINA RESULT:      -7.9      1.620      2.473
REMARK  Name = 
REMARK  7 active torsions:
REMARK  status: ('A' for Active; 'I' for Inactive)
REMARK    1  A    between atoms: C_1  and  C_2
REMARK    2  A    between atoms: C_8  and  C_9
REMARK    3  A    between atoms: C_9  and  N_10
REMARK    4  A    between atoms: N_10  and  C_11
REMARK    5  A    between atoms: C_15  and  C_16
REMARK    6  A    between atoms: C_16  and  S_17
REMARK    7  A    between atoms: S_17  and  C_20
REMARK                            x       y       z     vdW  Elec       q    Type
REMARK                         _______ _______ _______ _____ _____    ______ ____
ROOT
ATOM      1  C   UNL     1       1.852   7.410  20.138  0.00  0.00    +0.000 A 
ATOM      2  C   UNL     1       2.150   8.436  19.242  0.00  0.00    +0.000 A 
ATOM      3  C   UNL     1       2.707   8.140  17.992  0.00  0.00    +0.000 A 
ATOM      4  C   UNL     1       2.890   6.812  17.593  0.00  0.00    +0.000 A 
ATOM      5  C   UNL     1       2.537   5.757  18.445  0.00  0.00    +0.000 A 
ATOM      6  C   UNL     1       2.037   6.088  19.710  0.00  0.00    +0.000 A 
ENDROOT
BRANCH   1   7
ATOM      7  N   UNL     1       1.260   7.668  21.382  0.00  0.00    +0.000 N 
ATOM      8  H   UNL     1       0.271   7.434  21.459  0.00  0.00    +0.000 HD
BRANCH   7   9
ATOM      9  C   UNL     1       1.529   8.995  21.964  0.00  0.00    +0.000 C 
BRANCH   9  17
ATOM     10  C   UNL     1      -2.040  12.333  19.161  0.00  0.00    +0.000 C 
ATOM     11  C   UNL     1      -2.075  12.238  20.656  0.00  0.00    +0.000 A 
ATOM     12  C   UNL     1      -2.949  12.946  21.403  0.00  0.00    +0.000 A 
ATOM     13  C   UNL     1      -2.934  12.813  22.852  0.00  0.00    +0.000 A 
ATOM     14  C   UNL     1      -2.078  11.986  23.473  0.00  0.00    +0.000 A 
ATOM     15  C   UNL     1      -1.158  11.217  22.708  0.00  0.00    +0.000 A 
ATOM     16  N   UNL     1      -0.245  10.351  23.084  0.00  0.00    +0.000 NA
ATOM     17  C   UNL     1       0.382   9.954  21.923  0.00  0.00    +0.000 A 
ATOM     18  C   UNL     1      -0.188  10.570  20.827  0.00  0.00    +0.000 A 
ATOM     19  N   UNL     1      -1.180  11.381  21.324  0.00  0.00    +0.000 N 
ENDBRANCH   9  17
ENDBRANCH   7   9
ENDBRANCH   1   7
BRANCH   5  20
ATOM     20  C   UNL     1       2.573   4.330  17.943  0.00  0.00    +0.000 C 
BRANCH  20  21
ATOM     21  S   UNL     1       3.849   3.349  18.746  0.00  0.00    +0.000 S 
ATOM     22  O   UNL     1       3.721   3.510  20.170  0.00  0.00    +0.000 OA
ATOM     23  O   UNL     1       3.829   2.014  18.145  0.00  0.00    +0.000 OA
BRANCH  21  24
ATOM     24  C   UNL     1       5.437   4.053  18.254  0.00  0.00    +0.000 C 
ATOM     25  C   UNL     1       5.827   5.194  19.212  0.00  0.00    +0.000 C 
ATOM     26  C   UNL     1       7.176   5.807  18.848  0.00  0.00    +0.000 C 
ATOM     27  C   UNL     1       7.194   6.265  17.394  0.00  0.00    +0.000 C 
ATOM     28  C   UNL     1       6.837   5.124  16.447  0.00  0.00    +0.000 C 
ATOM     29  C   UNL     1       5.481   4.512  16.798  0.00  0.00    +0.000 C 
ENDBRANCH  21  24
ENDBRANCH  20  21
ENDBRANCH   5  20
TORSDOF 6
ENDMDL
MODEL 6
REMARK VINA RESULT:      -7.9      2.851      4.639
REMARK  Name = 
REMARK  7 active torsions:
REMARK  status: ('A' for Active; 'I' for Inactive)
REMARK    1  A    between atoms: C_1  and  C_2
REMARK    2  A    between atoms: C_8  and  C_9
REMARK    3  A    between atoms: C_9  and  N_10
REMARK    4  A    between atoms: N_10  and  C_11
REMARK    5  A    between atoms: C_15  and  C_16
REMARK    6  A    between atoms: C_16  and  S_17
REMARK    7  A    between atoms: S_17  and  C_20
REMARK                            x       y       z     vdW  Elec       q    Type
REMARK                         _______ _______ _______ _____ _____    ______ ____
ROOT
ATOM      1  C   UNL     1       1.666   8.883  18.525  0.00  0.00    +0.000 A 
ATOM      2  C   UNL     1       1.454   8.777  19.899  0.00  0.00    +0.000 A 
ATOM      3  C   UNL     1       1.747   7.582  20.567  0.00  0.00    +0.000 A 
ATOM      4  C   UNL     1       2.334   6.513  19.883  0.00  0.00    +0.000 A 
ATOM      5  C   UNL     1       2.622   6.612  18.516  0.00  0.00    +0.000 A 
ATOM      6  C   UNL     1       2.263   7.799  17.866  0.00  0.00    +0.000 A 
ENDROOT
BRANCH   1   7
ATOM      7  N   UNL     1       1.419  10.076  17.832  0.00  0.00    +0.000 N 
ATOM      8  H   UNL     1       2.139  10.361  17.170  0.00  0.00    +0.000 HD
BRANCH   7   9
ATOM      9  C   UNL     1       0.979  11.220  18.650  0.00  0.00    +0.000 C 
BRANCH   9  17
ATOM     10  C   UNL     1      -4.172  10.876  16.394  0.00  0.00    +0.000 C 
ATOM     11  C   UNL     1      -3.953  11.493  17.742  0.00  0.00    +0.000 A 
ATOM     12  C   UNL     1      -4.966  12.001  18.475  0.00  0.00    +0.000 A 
ATOM     13  C   UNL     1      -4.690  12.588  19.778  0.00  0.00    +0.000 A 
ATOM     14  C   UNL     1      -3.447  12.626  20.283  0.00  0.00    +0.000 A 
ATOM     15  C   UNL     1      -2.365  12.084  19.537  0.00  0.00    +0.000 A 
ATOM     16  N   UNL     1      -1.084  12.002  19.820  0.00  0.00    +0.000 NA
ATOM     17  C   UNL     1      -0.501  11.428  18.712  0.00  0.00    +0.000 A 
ATOM     18  C   UNL     1      -1.454  11.130  17.760  0.00  0.00    +0.000 A 
ATOM     19  N   UNL     1      -2.654  11.548  18.284  0.00  0.00    +0.000 N 
ENDBRANCH   9  17
ENDBRANCH   7   9
ENDBRANCH   1   7
BRANCH   5  20
ATOM     20  C   UNL     1       3.413   5.524  17.824  0.00  0.00    +0.000 C 
BRANCH  20  21
ATOM     21  S   UNL     1       2.422   4.062  17.482  0.00  0.00    +0.000 S 
ATOM     22  O   UNL     1       1.072   4.479  17.206  0.00  0.00    +0.000 OA
ATOM     23  O   UNL     1       3.157   3.241  16.519  0.00  0.00    +0.000 OA
BRANCH  21  24
ATOM     24  C   UNL     1       2.395   3.083  18.999  0.00  0.00    +0.000 C 
ATOM     25  C   UNL     1       1.153   3.443  19.837  0.00  0.00    +0.000 C 
ATOM     26  C   UNL     1       1.076   2.623  21.120  0.00  0.00    +0.000 C 
ATOM     27  C   UNL     1       2.359   2.757  21.933  0.00  0.00    +0.000 C 
ATOM     28  C   UNL     1       3.582   2.371  21.109  0.00  0.00    +0.000 C 
ATOM     29  C   UNL     1       3.674   3.196  19.827  0.00  0.00    +0.000 C 
ENDBRANCH  21  24
ENDBRANCH  20  21
ENDBRANCH   5  20
TORSDOF 6
ENDMDL
MODEL 7
REMARK VINA RESULT:      -7.9      2.463      3.077
REMARK  Name = 
REMARK  7 active torsions:
REMARK  status: ('A' for Active; 'I' for Inactive)
REMARK    1  A    between atoms: C_1  and  C_2
REMARK    2  A    between atoms: C_8  and  C_9
REMARK    3  A    between atoms: C_9  and  N_10
REMARK    4  A    between atoms: N_10  and  C_11
REMARK    5  A    between atoms: C_15  and  C_16
REMARK    6  A    between atoms: C_16  and  S_17
REMARK    7  A    between atoms: S_17  and  C_20
REMARK                            x       y       z     vdW  Elec       q    Type
REMARK                         _______ _______ _______ _____ _____    ______ ____
ROOT
ATOM      1  C   UNL     1       2.597   6.133  18.194  0.00  0.00    +0.000 A 
ATOM      2  C   UNL     1       1.525   5.249  18.063  0.00  0.00    +0.000 A 
ATOM      3  C   UNL     1       1.724   3.976  17.516  0.00  0.00    +0.000 A 
ATOM      4  C   UNL     1       3.010   3.544  17.174  0.00  0.00    +0.000 A 
ATOM      5  C   UNL     1       4.117   4.384  17.357  0.00  0.00    +0.000 A 
ATOM      6  C   UNL     1       3.875   5.670  17.852  0.00  0.00    +0.000 A 
ENDROOT
BRANCH   1   7
ATOM      7  N   UNL     1       2.440   7.400  18.772  0.00  0.00    +0.000 N 
ATOM      8  H   UNL     1       3.167   8.079  18.553  0.00  0.00    +0.000 HD
BRANCH   7   9
ATOM      9  C   UNL     1       2.123   7.419  20.212  0.00  0.00    +0.000 C 
BRANCH   9  17
ATOM     10  C   UNL     1      -0.859  12.087  19.184  0.00  0.00    +0.000 C 
ATOM     11  C   UNL     1      -0.816  11.477  20.552  0.00  0.00    +0.000 A 
ATOM     12  C   UNL     1      -1.476  12.012  21.601  0.00  0.00    +0.000 A 
ATOM     13  C   UNL     1      -1.396  11.374  22.906  0.00  0.00    +0.000 A 
ATOM     14  C   UNL     1      -0.689  10.248  23.096  0.00  0.00    +0.000 A 
ATOM     15  C   UNL     1       0.003   9.656  22.004  0.00  0.00    +0.000 A 
ATOM     16  N   UNL     1       0.741   8.571  21.944  0.00  0.00    +0.000 NA
ATOM     17  C   UNL     1       1.197   8.510  20.645  0.00  0.00    +0.000 A 
ATOM     18  C   UNL     1       0.695   9.561  19.905  0.00  0.00    +0.000 A 
ATOM     19  N   UNL     1      -0.074  10.300  20.771  0.00  0.00    +0.000 N 
ENDBRANCH   9  17
ENDBRANCH   7   9
ENDBRANCH   1   7
BRANCH   5  20
ATOM     20  C   UNL     1       5.517   3.850  17.151  0.00  0.00    +0.000 C 
BRANCH  20  21
ATOM     21  S   UNL     1       6.622   5.074  16.431  0.00  0.00    +0.000 S 
ATOM     22  O   UNL     1       6.191   6.381  16.850  0.00  0.00    +0.000 OA
ATOM     23  O   UNL     1       7.996   4.631  16.675  0.00  0.00    +0.000 OA
BRANCH  21  24
ATOM     24  C   UNL     1       6.416   4.975  14.640  0.00  0.00    +0.000 C 
ATOM     25  C   UNL     1       5.750   3.640  14.259  0.00  0.00    +0.000 C 
ATOM     26  C   UNL     1       5.535   3.520  12.754  0.00  0.00    +0.000 C 
ATOM     27  C   UNL     1       6.841   3.730  11.997  0.00  0.00    +0.000 C 
ATOM     28  C   UNL     1       7.482   5.067  12.354  0.00  0.00    +0.000 C 
ATOM     29  C   UNL     1       7.712   5.190  13.859  0.00  0.00    +0.000 C 
ENDBRANCH  21  24
ENDBRANCH  20  21
ENDBRANCH   5  20
TORSDOF 6
ENDMDL
MODEL 8
REMARK VINA RESULT:      -7.9      1.115      1.603
REMARK  Name = 
REMARK  7 active torsions:
REMARK  status: ('A' for Active; 'I' for Inactive)
REMARK    1  A    between atoms: C_1  and  C_2
REMARK    2  A    between atoms: C_8  and  C_9
REMARK    3  A    between atoms: C_9  and  N_10
REMARK    4  A    between atoms: N_10  and  C_11
REMARK    5  A    between atoms: C_15  and  C_16
REMARK    6  A    between atoms: C_16  and  S_17
REMARK    7  A    between atoms: S_17  and  C_20
REMARK                            x       y       z     vdW  Elec       q    Type
REMARK                         _______ _______ _______ _____ _____    ______ ____
ROOT
ATOM      1  C   UNL     1       2.802   5.005  19.869  0.00  0.00    +0.000 A 
ATOM      2  C   UNL     1       3.306   3.885  20.528  0.00  0.00    +0.000 A 
ATOM      3  C   UNL     1       3.812   2.804  19.797  0.00  0.00    +0.000 A 
ATOM      4  C   UNL     1       3.898   2.869  18.402  0.00  0.00    +0.000 A 
ATOM      5  C   UNL     1       3.462   4.009  17.714  0.00  0.00    +0.000 A 
ATOM      6  C   UNL     1       2.908   5.047  18.471  0.00  0.00    +0.000 A 
ENDROOT
BRANCH   1   7
ATOM      7  N   UNL     1       2.323   6.119  20.570  0.00  0.00    +0.000 N 
ATOM      8  H   UNL     1       1.474   5.969  21.112  0.00  0.00    +0.000 HD
BRANCH   7   9
ATOM      9  C   UNL     1       2.240   7.378  19.807  0.00  0.00    +0.000 C 
BRANCH   9  17
ATOM     10  C   UNL     1      -0.664  12.191  19.436  0.00  0.00    +0.000 C 
ATOM     11  C   UNL     1      -0.614  11.409  20.714  0.00  0.00    +0.000 A 
ATOM     12  C   UNL     1      -1.248  11.817  21.833  0.00  0.00    +0.000 A 
ATOM     13  C   UNL     1      -1.161  11.015  23.045  0.00  0.00    +0.000 A 
ATOM     14  C   UNL     1      -0.475   9.862  23.077  0.00  0.00    +0.000 A 
ATOM     15  C   UNL     1       0.190   9.402  21.906  0.00  0.00    +0.000 A 
ATOM     16  N   UNL     1       0.906   8.321  21.695  0.00  0.00    +0.000 NA
ATOM     17  C   UNL     1       1.342   8.420  20.392  0.00  0.00    +0.000 A 
ATOM     18  C   UNL     1       0.850   9.566  19.801  0.00  0.00    +0.000 A 
ATOM     19  N   UNL     1       0.108  10.201  20.767  0.00  0.00    +0.000 N 
ENDBRANCH   9  17
ENDBRANCH   7   9
ENDBRANCH   1   7
BRANCH   5  20
ATOM     20  C   UNL     1       3.717   4.143  16.229  0.00  0.00    +0.000 C 
BRANCH  20  21
ATOM     21  S   UNL     1       5.445   4.479  15.854  0.00  0.00    +0.000 S 
ATOM     22  O   UNL     1       6.168   3.236  15.882  0.00  0.00    +0.000 OA
ATOM     23  O   UNL     1       5.484   5.335  14.668  0.00  0.00    +0.000 OA
BRANCH  21  24
ATOM     24  C   UNL     1       6.078   5.513  17.192  0.00  0.00    +0.000 C 
ATOM     25  C   UNL     1       6.678   6.810  16.617  0.00  0.00    +0.000 C 
ATOM     26  C   UNL     1       7.207   7.727  17.714  0.00  0.00    +0.000 C 
ATOM     27  C   UNL     1       8.204   6.996  18.605  0.00  0.00    +0.000 C 
ATOM     28  C   UNL     1       7.596   5.728  19.197  0.00  0.00    +0.000 C 
ATOM     29  C   UNL     1       7.074   4.798  18.103  0.00  0.00    +0.000 C 
ENDBRANCH  21  24
ENDBRANCH  20  21
ENDBRANCH   5  20
TORSDOF 6
ENDMDL
MODEL 9
REMARK VINA RESULT:      -7.9      1.654      2.609
REMARK  Name = 
REMARK  7 active torsions:
REMARK  status: ('A' for Active; 'I' for Inactive)
REMARK    1  A    between atoms: C_1  and  C_2
REMARK    2  A    between atoms: C_8  and  C_9
REMARK    3  A    between atoms: C_9  and  N_10
REMARK    4  A    between atoms: N_10  and  C_11
REMARK    5  A    between atoms: C_15  and  C_16
REMARK    6  A    between atoms: C_16  and  S_17
REMARK    7  A    between atoms: S_17  and  C_20
REMARK                            x       y       z     vdW  Elec       q    Type
REMARK                         _______ _______ _______ _____ _____    ______ ____
ROOT
ATOM      1  C   UNL     1       1.856   7.319  20.438  0.00  0.00    +0.000 A 
ATOM      2  C   UNL     1       2.027   8.107  19.300  0.00  0.00    +0.000 A 
ATOM      3  C   UNL     1       2.428   7.524  18.092  0.00  0.00    +0.000 A 
ATOM      4  C   UNL     1       2.577   6.137  17.989  0.00  0.00    +0.000 A 
ATOM      5  C   UNL     1       2.347   5.310  19.097  0.00  0.00    +0.000 A 
ATOM      6  C   UNL     1       2.004   5.931  20.304  0.00  0.00    +0.000 A 
ENDROOT
BRANCH   1   7
ATOM      7  N   UNL     1       1.421   7.864  21.653  0.00  0.00    +0.000 N 
ATOM      8  H   UNL     1       0.473   7.616  21.935  0.00  0.00    +0.000 HD
BRANCH   7   9
ATOM      9  C   UNL     1       1.660   9.306  21.837  0.00  0.00    +0.000 C 
BRANCH   9  17
ATOM     10  C   UNL     1      -2.177  12.386  19.092  0.00  0.00    +0.000 C 
ATOM     11  C   UNL     1      -2.207  12.256  20.585  0.00  0.00    +0.000 A 
ATOM     12  C   UNL     1      -3.139  12.871  21.343  0.00  0.00    +0.000 A 
ATOM     13  C   UNL     1      -3.115  12.708  22.789  0.00  0.00    +0.000 A 
ATOM     14  C   UNL     1      -2.193  11.944  23.396  0.00  0.00    +0.000 A 
ATOM     15  C   UNL     1      -1.209  11.274  22.618  0.00  0.00    +0.000 A 
ATOM     16  N   UNL     1      -0.226  10.481  22.979  0.00  0.00    +0.000 NA
ATOM     17  C   UNL     1       0.435  10.164  21.812  0.00  0.00    +0.000 A 
ATOM     18  C   UNL     1      -0.184  10.752  20.728  0.00  0.00    +0.000 A 
ATOM     19  N   UNL     1      -1.242  11.465  21.238  0.00  0.00    +0.000 N 
ENDBRANCH   9  17
ENDBRANCH   7   9
ENDBRANCH   1   7
BRANCH   5  20
ATOM     20  C   UNL     1       2.339   3.806  18.934  0.00  0.00    +0.000 C 
BRANCH  20  21
ATOM     21  S   UNL     1       3.980   3.138  18.620  0.00  0.00    +0.000 S 
ATOM     22  O   UNL     1       4.673   3.018  19.876  0.00  0.00    +0.000 OA
ATOM     23  O   UNL     1       3.827   1.977  17.742  0.00  0.00    +0.000 OA
BRANCH  21  24
ATOM     24  C   UNL     1       4.859   4.360  17.622  0.00  0.00    +0.000 C 
ATOM     25  C   UNL     1       4.944   3.883  16.160  0.00  0.00    +0.000 C 
ATOM     26  C   UNL     1       5.661   4.895  15.273  0.00  0.00    +0.000 C 
ATOM     27  C   UNL     1       7.037   5.235  15.832  0.00  0.00    +0.000 C 
ATOM     28  C   UNL     1       6.945   5.736  17.269  0.00  0.00    +0.000 C 
ATOM     29  C   UNL     1       6.239   4.722  18.168  0.00  0.00    +0.000 C 
ENDBRANCH  21  24
ENDBRANCH  20  21
ENDBRANCH   5  20
TORSDOF 6
ENDMDL
