MODEL 1
REMARK VINA RESULT:      -8.9      0.000      0.000
REMARK  Name = 
REMARK  5 active torsions:
REMARK  status: ('A' for Active; 'I' for Inactive)
REMARK    1  A    between atoms: C_1  and  O_2
REMARK    2  A    between atoms: O_2  and  C_3
REMARK    3  A    between atoms: N_5  and  C_6
REMARK    4  A    between atoms: C_8  and  N_9
REMARK    5  A    between atoms: C_10  and  C_12
REMARK                            x       y       z     vdW  Elec       q    Type
REMARK                         _______ _______ _______ _____ _____    ______ ____
ROOT
ATOM      1  N   UNL     1       1.935   6.403  20.762  0.00  0.00    +0.000 N 
ATOM      2  C   UNL     1       1.846   7.495  19.904  0.00  0.00    +0.000 C 
ATOM      3  O   UNL     1       2.257   7.467  18.743  0.00  0.00    +0.000 OA
ATOM      4  H   UNL     1       1.378   6.439  21.606  0.00  0.00    +0.000 HD
ENDROOT
BRANCH   2   5
ATOM      5  C   UNL     1       1.196   8.709  20.386  0.00  0.00    +0.000 A 
ATOM      6  C   UNL     1       0.688   8.830  21.669  0.00  0.00    +0.000 A 
ATOM      7  C   UNL     1       0.062  10.075  21.897  0.00  0.00    +0.000 A 
ATOM      8  C   UNL     1       0.113  10.894  20.784  0.00  0.00    +0.000 A 
ATOM      9  S   UNL     1       0.934  10.138  19.483  0.00  0.00    +0.000 S 
ATOM     10  C   UNL     1      -0.514  12.229  20.771  0.00  0.00    +0.000 A 
ATOM     11  C   UNL     1      -0.236  13.220  19.827  0.00  0.00    +0.000 A 
ATOM     12  C   UNL     1      -0.857  14.472  19.919  0.00  0.00    +0.000 A 
ATOM     13  C   UNL     1      -1.765  14.744  20.945  0.00  0.00    +0.000 A 
ATOM     14  C   UNL     1      -2.055  13.769  21.891  0.00  0.00    +0.000 A 
ATOM     15  C   UNL     1      -1.429  12.518  21.824  0.00  0.00    +0.000 A 
ATOM     16  C   UNL     1      -1.786  11.448  22.843  0.00  0.00    +0.000 C 
ATOM     17  C   UNL     1      -0.605  10.521  23.159  0.00  0.00    +0.000 C 
ENDBRANCH   2   5
BRANCH   1  20
ATOM     18  C   UNL     1       4.480   4.009  19.374  0.00  0.00    +0.000 A 
ATOM     19  C   UNL     1       3.817   5.192  19.714  0.00  0.00    +0.000 A 
ATOM     20  C   UNL     1       2.629   5.201  20.462  0.00  0.00    +0.000 A 
ATOM     21  C   UNL     1       2.131   3.981  20.927  0.00  0.00    +0.000 A 
ATOM     22  C   UNL     1       2.770   2.780  20.578  0.00  0.00    +0.000 A 
ATOM     23  C   UNL     1       3.922   2.802  19.790  0.00  0.00    +0.000 A 
ATOM     24  F   UNL     1       4.514   1.642  19.465  0.00  0.00    +0.000 F 
BRANCH  18  27
ATOM     25  C   UNL     1       6.821   4.693  18.914  0.00  0.00    +0.000 C 
ATOM     26  O   UNL     1       7.042   5.365  19.909  0.00  0.00    +0.000 OA
ATOM     27  N   UNL     1       5.674   3.999  18.618  0.00  0.00    +0.000 N 
ATOM     28  H   UNL     1       5.739   3.358  17.837  0.00  0.00    +0.000 HD
BRANCH  25  30
ATOM     29  C   UNL     1       7.161   4.536  16.626  0.00  0.00    +0.000 C 
ATOM     30  O   UNL     1       7.744   4.495  17.932  0.00  0.00    +0.000 OA
ENDBRANCH  25  30
ENDBRANCH  18  27
ENDBRANCH   1  20
TORSDOF 4
ENDMDL
MODEL 2
REMARK VINA RESULT:      -8.7      0.821      1.874
REMARK  Name = 
REMARK  5 active torsions:
REMARK  status: ('A' for Active; 'I' for Inactive)
REMARK    1  A    between atoms: C_1  and  O_2
REMARK    2  A    between atoms: O_2  and  C_3
REMARK    3  A    between atoms: N_5  and  C_6
REMARK    4  A    between atoms: C_8  and  N_9
REMARK    5  A    between atoms: C_10  and  C_12
REMARK                            x       y       z     vdW  Elec       q    Type
REMARK                         _______ _______ _______ _____ _____    ______ ____
ROOT
ATOM      1  N   UNL     1       1.883   6.504  20.472  0.00  0.00    +0.000 N 
ATOM      2  C   UNL     1       2.008   7.609  19.635  0.00  0.00    +0.000 C 
ATOM      3  O   UNL     1       2.680   7.592  18.603  0.00  0.00    +0.000 OA
ATOM      4  H   UNL     1       1.143   6.534  21.161  0.00  0.00    +0.000 HD
ENDROOT
BRANCH   2   5
ATOM      5  C   UNL     1       1.271   8.822  19.969  0.00  0.00    +0.000 A 
ATOM      6  C   UNL     1       1.159   9.896  19.101  0.00  0.00    +0.000 A 
ATOM      7  C   UNL     1       0.441  10.979  19.656  0.00  0.00    +0.000 A 
ATOM      8  C   UNL     1       0.001  10.708  20.939  0.00  0.00    +0.000 A 
ATOM      9  S   UNL     1       0.461   9.136  21.444  0.00  0.00    +0.000 S 
ATOM     10  C   UNL     1      -0.734  11.707  21.736  0.00  0.00    +0.000 A 
ATOM     11  C   UNL     1      -1.474  11.409  22.883  0.00  0.00    +0.000 A 
ATOM     12  C   UNL     1      -2.170  12.424  23.553  0.00  0.00    +0.000 A 
ATOM     13  C   UNL     1      -2.129  13.741  23.093  0.00  0.00    +0.000 A 
ATOM     14  C   UNL     1      -1.396  14.055  21.955  0.00  0.00    +0.000 A 
ATOM     15  C   UNL     1      -0.709  13.050  21.262  0.00  0.00    +0.000 A 
ATOM     16  C   UNL     1       0.120  13.417  20.042  0.00  0.00    +0.000 C 
ATOM     17  C   UNL     1       0.158  12.291  18.999  0.00  0.00    +0.000 C 
ENDBRANCH   2   5
BRANCH   1  20
ATOM     18  C   UNL     1       4.519   4.046  19.401  0.00  0.00    +0.000 A 
ATOM     19  C   UNL     1       3.814   5.238  19.591  0.00  0.00    +0.000 A 
ATOM     20  C   UNL     1       2.619   5.298  20.324  0.00  0.00    +0.000 A 
ATOM     21  C   UNL     1       2.156   4.127  20.932  0.00  0.00    +0.000 A 
ATOM     22  C   UNL     1       2.838   2.916  20.735  0.00  0.00    +0.000 A 
ATOM     23  C   UNL     1       3.997   2.880  19.957  0.00  0.00    +0.000 A 
ATOM     24  F   UNL     1       4.630   1.710  19.780  0.00  0.00    +0.000 F 
BRANCH  18  27
ATOM     25  C   UNL     1       6.873   4.679  18.933  0.00  0.00    +0.000 C 
ATOM     26  O   UNL     1       7.093   5.395  19.897  0.00  0.00    +0.000 OA
ATOM     27  N   UNL     1       5.720   3.985  18.659  0.00  0.00    +0.000 N 
ATOM     28  H   UNL     1       5.785   3.306  17.911  0.00  0.00    +0.000 HD
BRANCH  25  30
ATOM     29  C   UNL     1       7.268   4.555  16.652  0.00  0.00    +0.000 C 
ATOM     30  O   UNL     1       7.803   4.422  17.973  0.00  0.00    +0.000 OA
ENDBRANCH  25  30
ENDBRANCH  18  27
ENDBRANCH   1  20
TORSDOF 4
ENDMDL
MODEL 3
REMARK VINA RESULT:      -8.7      1.282      1.398
REMARK  Name = 
REMARK  5 active torsions:
REMARK  status: ('A' for Active; 'I' for Inactive)
REMARK    1  A    between atoms: C_1  and  O_2
REMARK    2  A    between atoms: O_2  and  C_3
REMARK    3  A    between atoms: N_5  and  C_6
REMARK    4  A    between atoms: C_8  and  N_9
REMARK    5  A    between atoms: C_10  and  C_12
REMARK                            x       y       z     vdW  Elec       q    Type
REMARK                         _______ _______ _______ _____ _____    ______ ____
ROOT
ATOM      1  N   UNL     1       2.146   6.149  19.699  0.00  0.00    +0.000 N 
ATOM      2  C   UNL     1       2.015   7.416  19.136  0.00  0.00    +0.000 C 
ATOM      3  O   UNL     1       2.306   7.658  17.964  0.00  0.00    +0.000 OA
ATOM      4  H   UNL     1       1.678   5.992  20.582  0.00  0.00    +0.000 HD
ENDROOT
BRANCH   2   5
ATOM      5  C   UNL     1       1.465   8.489  19.955  0.00  0.00    +0.000 A 
ATOM      6  C   UNL     1       1.062   8.301  21.268  0.00  0.00    +0.000 A 
ATOM      7  C   UNL     1       0.518   9.469  21.847  0.00  0.00    +0.000 A 
ATOM      8  C   UNL     1       0.526  10.538  20.971  0.00  0.00    +0.000 A 
ATOM      9  S   UNL     1       1.207  10.106  19.458  0.00  0.00    +0.000 S 
ATOM     10  C   UNL     1      -0.033  11.851  21.340  0.00  0.00    +0.000 A 
ATOM     11  C   UNL     1       0.222  13.038  20.649  0.00  0.00    +0.000 A 
ATOM     12  C   UNL     1      -0.327  14.246  21.099  0.00  0.00    +0.000 A 
ATOM     13  C   UNL     1      -1.139  14.280  22.234  0.00  0.00    +0.000 A 
ATOM     14  C   UNL     1      -1.405  13.108  22.932  0.00  0.00    +0.000 A 
ATOM     15  C   UNL     1      -0.849  11.896  22.507  0.00  0.00    +0.000 A 
ATOM     16  C   UNL     1      -1.182  10.617  23.258  0.00  0.00    +0.000 C 
ATOM     17  C   UNL     1      -0.028   9.605  23.233  0.00  0.00    +0.000 C 
ENDBRANCH   2   5
BRANCH   1  20
ATOM     18  C   UNL     1       4.506   4.104  17.605  0.00  0.00    +0.000 A 
ATOM     19  C   UNL     1       3.924   5.180  18.284  0.00  0.00    +0.000 A 
ATOM     20  C   UNL     1       2.759   5.043  19.053  0.00  0.00    +0.000 A 
ATOM     21  C   UNL     1       2.200   3.769  19.187  0.00  0.00    +0.000 A 
ATOM     22  C   UNL     1       2.756   2.680  18.497  0.00  0.00    +0.000 A 
ATOM     23  C   UNL     1       3.887   2.859  17.698  0.00  0.00    +0.000 A 
ATOM     24  F   UNL     1       4.400   1.805  17.044  0.00  0.00    +0.000 F 
BRANCH  18  27
ATOM     25  C   UNL     1       6.946   4.445  17.310  0.00  0.00    +0.000 C 
ATOM     26  O   UNL     1       7.299   4.458  18.479  0.00  0.00    +0.000 OA
ATOM     27  N   UNL     1       5.677   4.243  16.827  0.00  0.00    +0.000 N 
ATOM     28  H   UNL     1       5.608   4.089  15.829  0.00  0.00    +0.000 HD
BRANCH  25  30
ATOM     29  C   UNL     1       7.139   4.744  15.019  0.00  0.00    +0.000 C 
ATOM     30  O   UNL     1       7.815   4.594  16.272  0.00  0.00    +0.000 OA
ENDBRANCH  25  30
ENDBRANCH  18  27
ENDBRANCH   1  20
TORSDOF 4
ENDMDL
MODEL 4
REMARK VINA RESULT:      -8.2      2.086      2.585
REMARK  Name = 
REMARK  5 active torsions:
REMARK  status: ('A' for Active; 'I' for Inactive)
REMARK    1  A    between atoms: C_1  and  O_2
REMARK    2  A    between atoms: O_2  and  C_3
REMARK    3  A    between atoms: N_5  and  C_6
REMARK    4  A    between atoms: C_8  and  N_9
REMARK    5  A    between atoms: C_10  and  C_12
REMARK                            x       y       z     vdW  Elec       q    Type
REMARK                         _______ _______ _______ _____ _____    ______ ____
ROOT
ATOM      1  N   UNL     1       1.751   5.765  19.696  0.00  0.00    +0.000 N 
ATOM      2  C   UNL     1       2.196   7.045  19.380  0.00  0.00    +0.000 C 
ATOM      3  O   UNL     1       3.051   7.262  18.521  0.00  0.00    +0.000 OA
ATOM      4  H   UNL     1       0.901   5.698  20.239  0.00  0.00    +0.000 HD
ENDROOT
BRANCH   2   5
ATOM      5  C   UNL     1       1.587   8.182  20.062  0.00  0.00    +0.000 A 
ATOM      6  C   UNL     1       1.244   8.156  21.405  0.00  0.00    +0.000 A 
ATOM      7  C   UNL     1       0.626   9.351  21.836  0.00  0.00    +0.000 A 
ATOM      8  C   UNL     1       0.518  10.279  20.817  0.00  0.00    +0.000 A 
ATOM      9  S   UNL     1       1.181   9.685  19.352  0.00  0.00    +0.000 S 
ATOM     10  C   UNL     1      -0.134  11.586  21.021  0.00  0.00    +0.000 A 
ATOM     11  C   UNL     1       0.001  12.675  20.157  0.00  0.00    +0.000 A 
ATOM     12  C   UNL     1      -0.629  13.890  20.455  0.00  0.00    +0.000 A 
ATOM     13  C   UNL     1      -1.404  14.027  21.609  0.00  0.00    +0.000 A 
ATOM     14  C   UNL     1      -1.551  12.953  22.477  0.00  0.00    +0.000 A 
ATOM     15  C   UNL     1      -0.912  11.737  22.204  0.00  0.00    +0.000 A 
ATOM     16  C   UNL     1      -1.114  10.559  23.143  0.00  0.00    +0.000 C 
ATOM     17  C   UNL     1       0.117   9.645  23.211  0.00  0.00    +0.000 C 
ENDBRANCH   2   5
BRANCH   1  20
ATOM     18  C   UNL     1       3.941   2.728  19.349  0.00  0.00    +0.000 A 
ATOM     19  C   UNL     1       3.339   3.879  19.867  0.00  0.00    +0.000 A 
ATOM     20  C   UNL     1       2.324   4.568  19.186  0.00  0.00    +0.000 A 
ATOM     21  C   UNL     1       1.865   4.044  17.975  0.00  0.00    +0.000 A 
ATOM     22  C   UNL     1       2.470   2.902  17.428  0.00  0.00    +0.000 A 
ATOM     23  C   UNL     1       3.514   2.267  18.105  0.00  0.00    +0.000 A 
ATOM     24  F   UNL     1       4.081   1.179  17.562  0.00  0.00    +0.000 F 
BRANCH  18  27
ATOM     25  C   UNL     1       4.877   1.504  21.294  0.00  0.00    +0.000 C 
ATOM     26  O   UNL     1       3.889   1.459  22.010  0.00  0.00    +0.000 OA
ATOM     27  N   UNL     1       4.966   2.036  20.032  0.00  0.00    +0.000 N 
ATOM     28  H   UNL     1       5.817   1.823  19.526  0.00  0.00    +0.000 HD
BRANCH  25  30
ATOM     29  C   UNL     1       5.934  -0.342  22.218  0.00  0.00    +0.000 C 
ATOM     30  O   UNL     1       6.076   0.965  21.652  0.00  0.00    +0.000 OA
ENDBRANCH  25  30
ENDBRANCH  18  27
ENDBRANCH   1  20
TORSDOF 4
ENDMDL
MODEL 5
REMARK VINA RESULT:      -8.2      1.458      1.549
REMARK  Name = 
REMARK  5 active torsions:
REMARK  status: ('A' for Active; 'I' for Inactive)
REMARK    1  A    between atoms: C_1  and  O_2
REMARK    2  A    between atoms: O_2  and  C_3
REMARK    3  A    between atoms: N_5  and  C_6
REMARK    4  A    between atoms: C_8  and  N_9
REMARK    5  A    between atoms: C_10  and  C_12
REMARK                            x       y       z     vdW  Elec       q    Type
REMARK                         _______ _______ _______ _____ _____    ______ ____
ROOT
ATOM      1  N   UNL     1       2.161   7.212  19.002  0.00  0.00    +0.000 N 
ATOM      2  C   UNL     1       1.695   7.416  20.298  0.00  0.00    +0.000 C 
ATOM      3  O   UNL     1       1.816   6.577  21.190  0.00  0.00    +0.000 OA
ATOM      4  H   UNL     1       2.223   8.027  18.406  0.00  0.00    +0.000 HD
ENDROOT
BRANCH   2   5
ATOM      5  C   UNL     1       1.081   8.698  20.623  0.00  0.00    +0.000 A 
ATOM      6  C   UNL     1       0.472   8.952  21.842  0.00  0.00    +0.000 A 
ATOM      7  C   UNL     1      -0.094  10.244  21.914  0.00  0.00    +0.000 A 
ATOM      8  C   UNL     1       0.104  10.965  20.751  0.00  0.00    +0.000 A 
ATOM      9  S   UNL     1       0.985  10.061  19.592  0.00  0.00    +0.000 S 
ATOM     10  C   UNL     1      -0.437  12.326  20.578  0.00  0.00    +0.000 A 
ATOM     11  C   UNL     1      -0.018  13.219  19.589  0.00  0.00    +0.000 A 
ATOM     12  C   UNL     1      -0.567  14.507  19.527  0.00  0.00    +0.000 A 
ATOM     13  C   UNL     1      -1.541  14.911  20.442  0.00  0.00    +0.000 A 
ATOM     14  C   UNL     1      -1.971  14.034  21.430  0.00  0.00    +0.000 A 
ATOM     15  C   UNL     1      -1.419  12.750  21.518  0.00  0.00    +0.000 A 
ATOM     16  C   UNL     1      -1.928  11.789  22.580  0.00  0.00    +0.000 C 
ATOM     17  C   UNL     1      -0.838  10.828  23.072  0.00  0.00    +0.000 C 
ENDBRANCH   2   5
BRANCH   1  20
ATOM     18  C   UNL     1       4.402   4.709  17.314  0.00  0.00    +0.000 A 
ATOM     19  C   UNL     1       3.904   5.908  17.831  0.00  0.00    +0.000 A 
ATOM     20  C   UNL     1       2.684   5.982  18.522  0.00  0.00    +0.000 A 
ATOM     21  C   UNL     1       1.978   4.797  18.746  0.00  0.00    +0.000 A 
ATOM     22  C   UNL     1       2.450   3.585  18.216  0.00  0.00    +0.000 A 
ATOM     23  C   UNL     1       3.642   3.554  17.489  0.00  0.00    +0.000 A 
ATOM     24  F   UNL     1       4.072   2.386  16.989  0.00  0.00    +0.000 F 
BRANCH  18  27
ATOM     25  C   UNL     1       6.876   4.570  17.182  0.00  0.00    +0.000 C 
ATOM     26  O   UNL     1       7.145   4.481  18.370  0.00  0.00    +0.000 OA
ATOM     27  N   UNL     1       5.627   4.635  16.615  0.00  0.00    +0.000 N 
ATOM     28  H   UNL     1       5.597   4.526  15.609  0.00  0.00    +0.000 HD
BRANCH  25  30
ATOM     29  C   UNL     1       7.274   4.867  14.918  0.00  0.00    +0.000 C 
ATOM     30  O   UNL     1       7.825   4.574  16.206  0.00  0.00    +0.000 OA
ENDBRANCH  25  30
ENDBRANCH  18  27
ENDBRANCH   1  20
TORSDOF 4
ENDMDL
MODEL 6
REMARK VINA RESULT:      -8.2      1.839      2.637
REMARK  Name = 
REMARK  5 active torsions:
REMARK  status: ('A' for Active; 'I' for Inactive)
REMARK    1  A    between atoms: C_1  and  O_2
REMARK    2  A    between atoms: O_2  and  C_3
REMARK    3  A    between atoms: N_5  and  C_6
REMARK    4  A    between atoms: C_8  and  N_9
REMARK    5  A    between atoms: C_10  and  C_12
REMARK                            x       y       z     vdW  Elec       q    Type
REMARK                         _______ _______ _______ _____ _____    ______ ____
ROOT
ATOM      1  N   UNL     1       2.204   7.701  19.380  0.00  0.00    +0.000 N 
ATOM      2  C   UNL     1       1.666   8.706  18.580  0.00  0.00    +0.000 C 
ATOM      3  O   UNL     1       1.461   8.562  17.375  0.00  0.00    +0.000 OA
ATOM      4  H   UNL     1       2.126   7.823  20.381  0.00  0.00    +0.000 HD
ENDROOT
BRANCH   2   5
ATOM      5  C   UNL     1       1.283   9.965  19.209  0.00  0.00    +0.000 A 
ATOM      6  C   UNL     1       1.637  11.201  18.691  0.00  0.00    +0.000 A 
ATOM      7  C   UNL     1       1.197  12.278  19.492  0.00  0.00    +0.000 A 
ATOM      8  C   UNL     1       0.498  11.847  20.605  0.00  0.00    +0.000 A 
ATOM      9  S   UNL     1       0.380  10.138  20.652  0.00  0.00    +0.000 S 
ATOM     10  C   UNL     1      -0.021  12.792  21.611  0.00  0.00    +0.000 A 
ATOM     11  C   UNL     1      -0.988  12.472  22.566  0.00  0.00    +0.000 A 
ATOM     12  C   UNL     1      -1.446  13.450  23.459  0.00  0.00    +0.000 A 
ATOM     13  C   UNL     1      -0.940  14.750  23.412  0.00  0.00    +0.000 A 
ATOM     14  C   UNL     1       0.024  15.085  22.470  0.00  0.00    +0.000 A 
ATOM     15  C   UNL     1       0.479  14.125  21.558  0.00  0.00    +0.000 A 
ATOM     16  C   UNL     1       1.563  14.497  20.559  0.00  0.00    +0.000 C 
ATOM     17  C   UNL     1       1.427  13.732  19.235  0.00  0.00    +0.000 C 
ENDBRANCH   2   5
BRANCH   1  20
ATOM     18  C   UNL     1       4.350   5.202  17.567  0.00  0.00    +0.000 A 
ATOM     19  C   UNL     1       3.870   6.404  18.096  0.00  0.00    +0.000 A 
ATOM     20  C   UNL     1       2.713   6.470  18.887  0.00  0.00    +0.000 A 
ATOM     21  C   UNL     1       2.056   5.276  19.200  0.00  0.00    +0.000 A 
ATOM     22  C   UNL     1       2.510   4.062  18.661  0.00  0.00    +0.000 A 
ATOM     23  C   UNL     1       3.635   4.036  17.836  0.00  0.00    +0.000 A 
ATOM     24  F   UNL     1       4.048   2.864  17.329  0.00  0.00    +0.000 F 
BRANCH  18  27
ATOM     25  C   UNL     1       6.771   4.799  17.200  0.00  0.00    +0.000 C 
ATOM     26  O   UNL     1       7.093   4.422  18.316  0.00  0.00    +0.000 OA
ATOM     27  N   UNL     1       5.513   5.136  16.767  0.00  0.00    +0.000 N 
ATOM     28  H   UNL     1       5.411   5.253  15.767  0.00  0.00    +0.000 HD
BRANCH  25  30
ATOM     29  C   UNL     1       7.012   4.801  14.895  0.00  0.00    +0.000 C 
ATOM     30  O   UNL     1       7.655   4.901  16.169  0.00  0.00    +0.000 OA
ENDBRANCH  25  30
ENDBRANCH  18  27
ENDBRANCH   1  20
TORSDOF 4
ENDMDL
MODEL 7
REMARK VINA RESULT:      -8.1      1.743      2.495
REMARK  Name = 
REMARK  5 active torsions:
REMARK  status: ('A' for Active; 'I' for Inactive)
REMARK    1  A    between atoms: C_1  and  O_2
REMARK    2  A    between atoms: O_2  and  C_3
REMARK    3  A    between atoms: N_5  and  C_6
REMARK    4  A    between atoms: C_8  and  N_9
REMARK    5  A    between atoms: C_10  and  C_12
REMARK                            x       y       z     vdW  Elec       q    Type
REMARK                         _______ _______ _______ _____ _____    ______ ____
ROOT
ATOM      1  N   UNL     1       2.291   7.658  18.776  0.00  0.00    +0.000 N 
ATOM      2  C   UNL     1       1.655   7.929  19.984  0.00  0.00    +0.000 C 
ATOM      3  O   UNL     1       1.585   7.110  20.900  0.00  0.00    +0.000 OA
ATOM      4  H   UNL     1       2.497   8.449  18.181  0.00  0.00    +0.000 HD
ENDROOT
BRANCH   2   5
ATOM      5  C   UNL     1       1.091   9.258  20.191  0.00  0.00    +0.000 A 
ATOM      6  C   UNL     1       1.005  10.203  19.181  0.00  0.00    +0.000 A 
ATOM      7  C   UNL     1       0.468  11.432  19.624  0.00  0.00    +0.000 A 
ATOM      8  C   UNL     1       0.137  11.402  20.966  0.00  0.00    +0.000 A 
ATOM      9  S   UNL     1       0.476   9.874  21.664  0.00  0.00    +0.000 S 
ATOM     10  C   UNL     1      -0.402  12.586  21.661  0.00  0.00    +0.000 A 
ATOM     11  C   UNL     1      -1.046  12.547  22.899  0.00  0.00    +0.000 A 
ATOM     12  C   UNL     1      -1.557  13.723  23.464  0.00  0.00    +0.000 A 
ATOM     13  C   UNL     1      -1.423  14.946  22.804  0.00  0.00    +0.000 A 
ATOM     14  C   UNL     1      -0.782  15.004  21.573  0.00  0.00    +0.000 A 
ATOM     15  C   UNL     1      -0.283  13.835  20.986  0.00  0.00    +0.000 A 
ATOM     16  C   UNL     1       0.450  13.921  19.657  0.00  0.00    +0.000 C 
ATOM     17  C   UNL     1       0.259  12.662  18.800  0.00  0.00    +0.000 C 
ENDBRANCH   2   5
BRANCH   1  20
ATOM     18  C   UNL     1       4.455   4.984  17.258  0.00  0.00    +0.000 A 
ATOM     19  C   UNL     1       3.981   6.232  17.671  0.00  0.00    +0.000 A 
ATOM     20  C   UNL     1       2.793   6.382  18.402  0.00  0.00    +0.000 A 
ATOM     21  C   UNL     1       2.096   5.230  18.776  0.00  0.00    +0.000 A 
ATOM     22  C   UNL     1       2.544   3.968  18.353  0.00  0.00    +0.000 A 
ATOM     23  C   UNL     1       3.703   3.857  17.583  0.00  0.00    +0.000 A 
ATOM     24  F   UNL     1       4.111   2.641  17.186  0.00  0.00    +0.000 F 
BRANCH  18  27
ATOM     25  C   UNL     1       6.900   4.618  17.042  0.00  0.00    +0.000 C 
ATOM     26  O   UNL     1       7.190   4.437  18.215  0.00  0.00    +0.000 OA
ATOM     27  N   UNL     1       5.650   4.833  16.519  0.00  0.00    +0.000 N 
ATOM     28  H   UNL     1       5.583   4.784  15.510  0.00  0.00    +0.000 HD
BRANCH  25  30
ATOM     29  C   UNL     1       7.227   4.808  14.755  0.00  0.00    +0.000 C 
ATOM     30  O   UNL     1       7.820   4.585  16.038  0.00  0.00    +0.000 OA
ENDBRANCH  25  30
ENDBRANCH  18  27
ENDBRANCH   1  20
TORSDOF 4
ENDMDL
MODEL 8
REMARK VINA RESULT:      -8.1      0.941      1.059
REMARK  Name = 
REMARK  5 active torsions:
REMARK  status: ('A' for Active; 'I' for Inactive)
REMARK    1  A    between atoms: C_1  and  O_2
REMARK    2  A    between atoms: O_2  and  C_3
REMARK    3  A    between atoms: N_5  and  C_6
REMARK    4  A    between atoms: C_8  and  N_9
REMARK    5  A    between atoms: C_10  and  C_12
REMARK                            x       y       z     vdW  Elec       q    Type
REMARK                         _______ _______ _______ _____ _____    ______ ____
ROOT
ATOM      1  N   UNL     1       1.891   6.720  20.671  0.00  0.00    +0.000 N 
ATOM      2  C   UNL     1       1.728   7.754  19.755  0.00  0.00    +0.000 C 
ATOM      3  O   UNL     1       2.045   7.652  18.569  0.00  0.00    +0.000 OA
ATOM      4  H   UNL     1       1.402   6.809  21.552  0.00  0.00    +0.000 HD
ENDROOT
BRANCH   2   5
ATOM      5  C   UNL     1       1.109   8.995  20.208  0.00  0.00    +0.000 A 
ATOM      6  C   UNL     1       0.544   9.137  21.465  0.00  0.00    +0.000 A 
ATOM      7  C   UNL     1      -0.037  10.409  21.665  0.00  0.00    +0.000 A 
ATOM      8  C   UNL     1       0.107  11.227  20.559  0.00  0.00    +0.000 A 
ATOM      9  S   UNL     1       0.956  10.436  19.297  0.00  0.00    +0.000 S 
ATOM     10  C   UNL     1      -0.459  12.588  20.519  0.00  0.00    +0.000 A 
ATOM     11  C   UNL     1      -0.091  13.566  19.593  0.00  0.00    +0.000 A 
ATOM     12  C   UNL     1      -0.659  14.845  19.659  0.00  0.00    +0.000 A 
ATOM     13  C   UNL     1      -1.603  15.156  20.639  0.00  0.00    +0.000 A 
ATOM     14  C   UNL     1      -1.983  14.194  21.566  0.00  0.00    +0.000 A 
ATOM     15  C   UNL     1      -1.411  12.916  21.527  0.00  0.00    +0.000 A 
ATOM     16  C   UNL     1      -1.866  11.863  22.524  0.00  0.00    +0.000 C 
ATOM     17  C   UNL     1      -0.744  10.883  22.894  0.00  0.00    +0.000 C 
ENDBRANCH   2   5
BRANCH   1  20
ATOM     18  C   UNL     1       4.365   4.253  19.281  0.00  0.00    +0.000 A 
ATOM     19  C   UNL     1       3.722   5.453  19.597  0.00  0.00    +0.000 A 
ATOM     20  C   UNL     1       2.568   5.501  20.395  0.00  0.00    +0.000 A 
ATOM     21  C   UNL     1       2.086   4.306  20.935  0.00  0.00    +0.000 A 
ATOM     22  C   UNL     1       2.706   3.088  20.612  0.00  0.00    +0.000 A 
ATOM     23  C   UNL     1       3.822   3.069  19.774  0.00  0.00    +0.000 A 
ATOM     24  F   UNL     1       4.396   1.893  19.476  0.00  0.00    +0.000 F 
BRANCH  18  27
ATOM     25  C   UNL     1       5.573   4.411  17.119  0.00  0.00    +0.000 C 
ATOM     26  O   UNL     1       4.654   4.750  16.390  0.00  0.00    +0.000 OA
ATOM     27  N   UNL     1       5.525   4.204  18.475  0.00  0.00    +0.000 N 
ATOM     28  H   UNL     1       6.421   4.102  18.934  0.00  0.00    +0.000 HD
BRANCH  25  30
ATOM     29  C   UNL     1       6.972   4.508  15.273  0.00  0.00    +0.000 C 
ATOM     30  O   UNL     1       6.845   4.224  16.670  0.00  0.00    +0.000 OA
ENDBRANCH  25  30
ENDBRANCH  18  27
ENDBRANCH   1  20
TORSDOF 4
ENDMDL
MODEL 9
REMARK VINA RESULT:      -8.1      1.271      2.133
REMARK  Name = 
REMARK  5 active torsions:
REMARK  status: ('A' for Active; 'I' for Inactive)
REMARK    1  A    between atoms: C_1  and  O_2
REMARK    2  A    between atoms: O_2  and  C_3
REMARK    3  A    between atoms: N_5  and  C_6
REMARK    4  A    between atoms: C_8  and  N_9
REMARK    5  A    between atoms: C_10  and  C_12
REMARK                            x       y       z     vdW  Elec       q    Type
REMARK                         _______ _______ _______ _____ _____    ______ ____
ROOT
ATOM      1  N   UNL     1       1.987   6.541  20.579  0.00  0.00    +0.000 N 
ATOM      2  C   UNL     1       1.934   7.599  19.676  0.00  0.00    +0.000 C 
ATOM      3  O   UNL     1       2.390   7.526  18.535  0.00  0.00    +0.000 OA
ATOM      4  H   UNL     1       1.397   6.609  21.398  0.00  0.00    +0.000 HD
ENDROOT
BRANCH   2   5
ATOM      5  C   UNL     1       1.265   8.829  20.084  0.00  0.00    +0.000 A 
ATOM      6  C   UNL     1       1.357  10.008  19.363  0.00  0.00    +0.000 A 
ATOM      7  C   UNL     1       0.667  11.080  19.972  0.00  0.00    +0.000 A 
ATOM      8  C   UNL     1       0.045  10.698  21.146  0.00  0.00    +0.000 A 
ATOM      9  S   UNL     1       0.303   9.037  21.484  0.00  0.00    +0.000 S 
ATOM     10  C   UNL     1      -0.700  11.659  21.981  0.00  0.00    +0.000 A 
ATOM     11  C   UNL     1      -1.602  11.296  22.983  0.00  0.00    +0.000 A 
ATOM     12  C   UNL     1      -2.291  12.284  23.700  0.00  0.00    +0.000 A 
ATOM     13  C   UNL     1      -2.080  13.638  23.429  0.00  0.00    +0.000 A 
ATOM     14  C   UNL     1      -1.183  14.016  22.438  0.00  0.00    +0.000 A 
ATOM     15  C   UNL     1      -0.501  13.041  21.699  0.00  0.00    +0.000 A 
ATOM     16  C   UNL     1       0.505  13.471  20.644  0.00  0.00    +0.000 C 
ATOM     17  C   UNL     1       0.581  12.486  19.470  0.00  0.00    +0.000 C 
ENDBRANCH   2   5
BRANCH   1  20
ATOM     18  C   UNL     1       4.500   4.070  19.268  0.00  0.00    +0.000 A 
ATOM     19  C   UNL     1       3.829   5.268  19.533  0.00  0.00    +0.000 A 
ATOM     20  C   UNL     1       2.693   5.328  20.354  0.00  0.00    +0.000 A 
ATOM     21  C   UNL     1       2.258   4.151  20.970  0.00  0.00    +0.000 A 
ATOM     22  C   UNL     1       2.905   2.935  20.700  0.00  0.00    +0.000 A 
ATOM     23  C   UNL     1       4.002   2.900  19.838  0.00  0.00    +0.000 A 
ATOM     24  F   UNL     1       4.603   1.725  19.591  0.00  0.00    +0.000 F 
BRANCH  18  27
ATOM     25  C   UNL     1       5.669   4.237  17.085  0.00  0.00    +0.000 C 
ATOM     26  O   UNL     1       4.745   4.611  16.380  0.00  0.00    +0.000 OA
ATOM     27  N   UNL     1       5.642   4.008  18.438  0.00  0.00    +0.000 N 
ATOM     28  H   UNL     1       6.544   3.876  18.878  0.00  0.00    +0.000 HD
BRANCH  25  30
ATOM     29  C   UNL     1       7.150   4.694  15.361  0.00  0.00    +0.000 C 
ATOM     30  O   UNL     1       6.927   4.028  16.608  0.00  0.00    +0.000 OA
ENDBRANCH  25  30
ENDBRANCH  18  27
ENDBRANCH   1  20
TORSDOF 4
ENDMDL
