MODEL 1
REMARK VINA RESULT:      -9.4      0.000      0.000
REMARK  Name = 
REMARK  4 active torsions:
REMARK  status: ('A' for Active; 'I' for Inactive)
REMARK    1  A    between atoms: C_2  and  C_20
REMARK    2  A    between atoms: N_3  and  C_4
REMARK    3  A    between atoms: C_4  and  C_5
REMARK    4  A    between atoms: C_5  and  C_6
REMARK                            x       y       z     vdW  Elec       q    Type
REMARK                         _______ _______ _______ _____ _____    ______ ____
ROOT
ATOM      1  C   UNL     1       2.957   6.498  18.493  0.00  0.00    +0.000 C 
ATOM      2  C   UNL     1       3.626   5.781  19.695  0.00  0.00    +0.000 C 
ATOM      3  C   UNL     1       2.539   4.876  20.280  0.00  0.00    +0.000 C 
ATOM      4  C   UNL     1       1.564   4.601  19.137  0.00  0.00    +0.000 C 
ATOM      5  C   UNL     1       2.177   5.284  17.919  0.00  0.00    +0.000 C 
ENDROOT
BRANCH   1   6
ATOM      6  C   UNL     1       2.049   7.678  18.911  0.00  0.00    +0.000 A 
ATOM      7  C   UNL     1       1.591   8.627  17.975  0.00  0.00    +0.000 A 
ATOM      8  C   UNL     1       0.847   9.746  18.370  0.00  0.00    +0.000 A 
ATOM      9  C   UNL     1       0.582   9.963  19.714  0.00  0.00    +0.000 A 
ATOM     10  C   UNL     1       0.989   9.026  20.661  0.00  0.00    +0.000 A 
ATOM     11  C   UNL     1       1.708   7.896  20.261  0.00  0.00    +0.000 A 
ATOM     12  O   UNL     1       0.768   9.165  22.008  0.00  0.00    +0.000 OA
ATOM     13  C   UNL     1      -0.099  10.266  22.305  0.00  0.00    +0.000 C 
ATOM     14  C   UNL     1       0.207  11.460  21.416  0.00  0.00    +0.000 C 
ATOM     15  O   UNL     1      -0.055  11.132  20.047  0.00  0.00    +0.000 OA
ENDBRANCH   1   6
BRANCH   1  16
ATOM     16  C   UNL     1       3.996   6.981  17.442  0.00  0.00    +0.000 C 
BRANCH  16  19
ATOM     17  O   UNL     1       6.704   7.291  16.612  0.00  0.00    +0.000 OA
ATOM     18  C   UNL     1       6.201   6.174  16.633  0.00  0.00    +0.000 C 
ATOM     19  N   UNL     1       4.867   5.935  16.930  0.00  0.00    +0.000 N 
ATOM     20  H   UNL     1       4.685   4.978  17.215  0.00  0.00    +0.000 HD
BRANCH  18  21
ATOM     21  C   UNL     1       6.948   4.884  16.229  0.00  0.00    +0.000 C 
ATOM     22  C   UNL     1       6.039   3.766  15.699  0.00  0.00    +0.000 C 
ATOM     23  C   UNL     1       6.264   3.947  14.244  0.00  0.00    +0.000 A 
ATOM     24  C   UNL     1       5.596   3.394  13.166  0.00  0.00    +0.000 A 
ATOM     25  C   UNL     1       6.025   3.736  11.879  0.00  0.00    +0.000 A 
ATOM     26  C   UNL     1       7.116   4.602  11.694  0.00  0.00    +0.000 A 
ATOM     27  C   UNL     1       7.801   5.123  12.791  0.00  0.00    +0.000 A 
ATOM     28  C   UNL     1       7.355   4.779  14.050  0.00  0.00    +0.000 A 
ATOM     29  O   UNL     1       7.936   5.207  15.214  0.00  0.00    +0.000 OA
ENDBRANCH  18  21
ENDBRANCH  16  19
ENDBRANCH   1  16
TORSDOF 4
ENDMDL
MODEL 2
REMARK VINA RESULT:      -9.3      2.612      8.112
REMARK  Name = 
REMARK  4 active torsions:
REMARK  status: ('A' for Active; 'I' for Inactive)
REMARK    1  A    between atoms: C_2  and  C_20
REMARK    2  A    between atoms: N_3  and  C_4
REMARK    3  A    between atoms: C_4  and  C_5
REMARK    4  A    between atoms: C_5  and  C_6
REMARK                            x       y       z     vdW  Elec       q    Type
REMARK                         _______ _______ _______ _____ _____    ______ ____
ROOT
ATOM      1  C   UNL     1       1.979   4.891  20.444  0.00  0.00    +0.000 C 
ATOM      2  C   UNL     1       0.663   4.313  19.863  0.00  0.00    +0.000 C 
ATOM      3  C   UNL     1       0.895   2.803  19.762  0.00  0.00    +0.000 C 
ATOM      4  C   UNL     1       1.971   2.476  20.796  0.00  0.00    +0.000 C 
ATOM      5  C   UNL     1       2.249   3.795  21.511  0.00  0.00    +0.000 C 
ENDROOT
BRANCH   1   6
ATOM      6  C   UNL     1       3.107   5.025  19.394  0.00  0.00    +0.000 A 
ATOM      7  C   UNL     1       2.843   4.952  18.012  0.00  0.00    +0.000 A 
ATOM      8  C   UNL     1       3.877   4.980  17.066  0.00  0.00    +0.000 A 
ATOM      9  C   UNL     1       5.198   5.038  17.485  0.00  0.00    +0.000 A 
ATOM     10  C   UNL     1       5.490   5.148  18.843  0.00  0.00    +0.000 A 
ATOM     11  C   UNL     1       4.456   5.147  19.782  0.00  0.00    +0.000 A 
ATOM     12  O   UNL     1       6.768   5.211  19.339  0.00  0.00    +0.000 OA
ATOM     13  C   UNL     1       7.747   5.356  18.303  0.00  0.00    +0.000 C 
ATOM     14  C   UNL     1       7.398   4.503  17.095  0.00  0.00    +0.000 C 
ATOM     15  O   UNL     1       6.167   4.951  16.517  0.00  0.00    +0.000 OA
ENDBRANCH   1   6
BRANCH   1  16
ATOM     16  C   UNL     1       1.759   6.255  21.158  0.00  0.00    +0.000 C 
BRANCH  16  19
ATOM     17  O   UNL     1       0.294   8.664  21.558  0.00  0.00    +0.000 OA
ATOM     18  C   UNL     1       1.048   8.567  20.597  0.00  0.00    +0.000 C 
ATOM     19  N   UNL     1       1.728   7.404  20.266  0.00  0.00    +0.000 N 
ATOM     20  H   UNL     1       2.529   7.565  19.665  0.00  0.00    +0.000 HD
BRANCH  18  21
ATOM     21  C   UNL     1       1.267   9.686  19.555  0.00  0.00    +0.000 C 
ATOM     22  C   UNL     1       0.785   9.336  18.141  0.00  0.00    +0.000 C 
ATOM     23  C   UNL     1      -0.509  10.060  18.144  0.00  0.00    +0.000 A 
ATOM     24  C   UNL     1      -1.559  10.010  17.244  0.00  0.00    +0.000 A 
ATOM     25  C   UNL     1      -2.677  10.814  17.490  0.00  0.00    +0.000 A 
ATOM     26  C   UNL     1      -2.718  11.662  18.610  0.00  0.00    +0.000 A 
ATOM     27  C   UNL     1      -1.636  11.728  19.488  0.00  0.00    +0.000 A 
ATOM     28  C   UNL     1      -0.549  10.919  19.232  0.00  0.00    +0.000 A 
ATOM     29  O   UNL     1       0.583  10.888  20.000  0.00  0.00    +0.000 OA
ENDBRANCH  18  21
ENDBRANCH  16  19
ENDBRANCH   1  16
TORSDOF 4
ENDMDL
MODEL 3
REMARK VINA RESULT:      -9.3      0.759      1.466
REMARK  Name = 
REMARK  4 active torsions:
REMARK  status: ('A' for Active; 'I' for Inactive)
REMARK    1  A    between atoms: C_2  and  C_20
REMARK    2  A    between atoms: N_3  and  C_4
REMARK    3  A    between atoms: C_4  and  C_5
REMARK    4  A    between atoms: C_5  and  C_6
REMARK                            x       y       z     vdW  Elec       q    Type
REMARK                         _______ _______ _______ _____ _____    ______ ____
ROOT
ATOM      1  C   UNL     1       2.915   6.246  18.622  0.00  0.00    +0.000 C 
ATOM      2  C   UNL     1       3.733   5.378  19.614  0.00  0.00    +0.000 C 
ATOM      3  C   UNL     1       2.700   4.501  20.327  0.00  0.00    +0.000 C 
ATOM      4  C   UNL     1       1.510   4.399  19.375  0.00  0.00    +0.000 C 
ATOM      5  C   UNL     1       1.942   5.146  18.117  0.00  0.00    +0.000 C 
ENDROOT
BRANCH   1   6
ATOM      6  C   UNL     1       2.205   7.443  19.295  0.00  0.00    +0.000 A 
ATOM      7  C   UNL     1       1.831   7.412  20.653  0.00  0.00    +0.000 A 
ATOM      8  C   UNL     1       1.103   8.458  21.237  0.00  0.00    +0.000 A 
ATOM      9  C   UNL     1       0.698   9.536  20.464  0.00  0.00    +0.000 A 
ATOM     10  C   UNL     1       1.083   9.614  19.127  0.00  0.00    +0.000 A 
ATOM     11  C   UNL     1       1.830   8.582  18.554  0.00  0.00    +0.000 A 
ATOM     12  O   UNL     1       0.724  10.644  18.295  0.00  0.00    +0.000 OA
ATOM     13  C   UNL     1       0.092  11.719  19.001  0.00  0.00    +0.000 C 
ATOM     14  C   UNL     1      -0.846  11.192  20.074  0.00  0.00    +0.000 C 
ATOM     15  O   UNL     1      -0.104  10.473  21.066  0.00  0.00    +0.000 OA
ENDBRANCH   1   6
BRANCH   1  16
ATOM     16  C   UNL     1       3.778   6.749  17.430  0.00  0.00    +0.000 C 
BRANCH  16  19
ATOM     17  O   UNL     1       6.481   7.258  16.686  0.00  0.00    +0.000 OA
ATOM     18  C   UNL     1       6.054   6.110  16.670  0.00  0.00    +0.000 C 
ATOM     19  N   UNL     1       4.732   5.775  16.922  0.00  0.00    +0.000 N 
ATOM     20  H   UNL     1       4.607   4.802  17.182  0.00  0.00    +0.000 HD
BRANCH  18  21
ATOM     21  C   UNL     1       6.898   4.882  16.261  0.00  0.00    +0.000 C 
ATOM     22  C   UNL     1       6.079   3.713  15.695  0.00  0.00    +0.000 C 
ATOM     23  C   UNL     1       6.319   3.934  14.248  0.00  0.00    +0.000 A 
ATOM     24  C   UNL     1       5.713   3.354  13.148  0.00  0.00    +0.000 A 
ATOM     25  C   UNL     1       6.141   3.747  11.876  0.00  0.00    +0.000 A 
ATOM     26  C   UNL     1       7.172   4.690  11.726  0.00  0.00    +0.000 A 
ATOM     27  C   UNL     1       7.798   5.238  12.845  0.00  0.00    +0.000 A 
ATOM     28  C   UNL     1       7.353   4.843  14.090  0.00  0.00    +0.000 A 
ATOM     29  O   UNL     1       7.879   5.290  15.271  0.00  0.00    +0.000 OA
ENDBRANCH  18  21
ENDBRANCH  16  19
ENDBRANCH   1  16
TORSDOF 4
ENDMDL
MODEL 4
REMARK VINA RESULT:      -9.2      1.946      8.257
REMARK  Name = 
REMARK  4 active torsions:
REMARK  status: ('A' for Active; 'I' for Inactive)
REMARK    1  A    between atoms: C_2  and  C_20
REMARK    2  A    between atoms: N_3  and  C_4
REMARK    3  A    between atoms: C_4  and  C_5
REMARK    4  A    between atoms: C_5  and  C_6
REMARK                            x       y       z     vdW  Elec       q    Type
REMARK                         _______ _______ _______ _____ _____    ______ ____
ROOT
ATOM      1  C   UNL     1       2.621   4.513  19.518  0.00  0.00    +0.000 C 
ATOM      2  C   UNL     1       1.355   4.275  18.654  0.00  0.00    +0.000 C 
ATOM      3  C   UNL     1       1.286   2.759  18.451  0.00  0.00    +0.000 C 
ATOM      4  C   UNL     1       2.045   2.145  19.626  0.00  0.00    +0.000 C 
ATOM      5  C   UNL     1       2.441   3.327  20.504  0.00  0.00    +0.000 C 
ENDROOT
BRANCH   1   6
ATOM      6  C   UNL     1       3.937   4.453  18.709  0.00  0.00    +0.000 A 
ATOM      7  C   UNL     1       5.184   4.735  19.301  0.00  0.00    +0.000 A 
ATOM      8  C   UNL     1       6.363   4.773  18.546  0.00  0.00    +0.000 A 
ATOM      9  C   UNL     1       6.314   4.572  17.174  0.00  0.00    +0.000 A 
ATOM     10  C   UNL     1       5.103   4.255  16.563  0.00  0.00    +0.000 A 
ATOM     11  C   UNL     1       3.932   4.192  17.324  0.00  0.00    +0.000 A 
ATOM     12  O   UNL     1       4.969   4.041  15.214  0.00  0.00    +0.000 OA
ATOM     13  C   UNL     1       6.234   3.978  14.546  0.00  0.00    +0.000 C 
ATOM     14  C   UNL     1       7.200   5.012  15.101  0.00  0.00    +0.000 C 
ATOM     15  O   UNL     1       7.484   4.730  16.475  0.00  0.00    +0.000 OA
ENDBRANCH   1   6
BRANCH   1  16
ATOM     16  C   UNL     1       2.551   5.850  20.309  0.00  0.00    +0.000 C 
BRANCH  16  19
ATOM     17  O   UNL     1       1.056   8.177  20.992  0.00  0.00    +0.000 OA
ATOM     18  C   UNL     1       1.691   8.151  19.944  0.00  0.00    +0.000 C 
ATOM     19  N   UNL     1       2.369   7.032  19.482  0.00  0.00    +0.000 N 
ATOM     20  H   UNL     1       3.085   7.252  18.797  0.00  0.00    +0.000 HD
BRANCH  18  21
ATOM     21  C   UNL     1       1.741   9.320  18.936  0.00  0.00    +0.000 C 
ATOM     22  C   UNL     1       0.927   9.086  17.655  0.00  0.00    +0.000 C 
ATOM     23  C   UNL     1      -0.282   9.876  17.994  0.00  0.00    +0.000 A 
ATOM     24  C   UNL     1      -1.510   9.939  17.360  0.00  0.00    +0.000 A 
ATOM     25  C   UNL     1      -2.486  10.784  17.897  0.00  0.00    +0.000 A 
ATOM     26  C   UNL     1      -2.215  11.561  19.036  0.00  0.00    +0.000 A 
ATOM     27  C   UNL     1      -0.960  11.514  19.642  0.00  0.00    +0.000 A 
ATOM     28  C   UNL     1      -0.015  10.666  19.102  0.00  0.00    +0.000 A 
ATOM     29  O   UNL     1       1.258  10.526  19.585  0.00  0.00    +0.000 OA
ENDBRANCH  18  21
ENDBRANCH  16  19
ENDBRANCH   1  16
TORSDOF 4
ENDMDL
MODEL 5
REMARK VINA RESULT:      -8.9      2.052      8.313
REMARK  Name = 
REMARK  4 active torsions:
REMARK  status: ('A' for Active; 'I' for Inactive)
REMARK    1  A    between atoms: C_2  and  C_20
REMARK    2  A    between atoms: N_3  and  C_4
REMARK    3  A    between atoms: C_4  and  C_5
REMARK    4  A    between atoms: C_5  and  C_6
REMARK                            x       y       z     vdW  Elec       q    Type
REMARK                         _______ _______ _______ _____ _____    ______ ____
ROOT
ATOM      1  C   UNL     1       2.963   4.932  19.084  0.00  0.00    +0.000 C 
ATOM      2  C   UNL     1       1.655   4.535  18.352  0.00  0.00    +0.000 C 
ATOM      3  C   UNL     1       1.584   3.009  18.453  0.00  0.00    +0.000 C 
ATOM      4  C   UNL     1       2.407   2.633  19.683  0.00  0.00    +0.000 C 
ATOM      5  C   UNL     1       2.842   3.962  20.291  0.00  0.00    +0.000 C 
ENDROOT
BRANCH   1   6
ATOM      6  C   UNL     1       4.235   4.709  18.233  0.00  0.00    +0.000 A 
ATOM      7  C   UNL     1       5.525   4.794  18.794  0.00  0.00    +0.000 A 
ATOM      8  C   UNL     1       6.677   4.686  18.004  0.00  0.00    +0.000 A 
ATOM      9  C   UNL     1       6.562   4.532  16.630  0.00  0.00    +0.000 A 
ATOM     10  C   UNL     1       5.302   4.407  16.049  0.00  0.00    +0.000 A 
ATOM     11  C   UNL     1       4.155   4.490  16.843  0.00  0.00    +0.000 A 
ATOM     12  O   UNL     1       5.102   4.253  14.700  0.00  0.00    +0.000 OA
ATOM     13  C   UNL     1       6.328   4.030  13.992  0.00  0.00    +0.000 C 
ATOM     14  C   UNL     1       7.445   4.901  14.542  0.00  0.00    +0.000 C 
ATOM     15  O   UNL     1       7.724   4.542  15.900  0.00  0.00    +0.000 OA
ENDBRANCH   1   6
BRANCH   1  16
ATOM     16  C   UNL     1       2.926   6.398  19.601  0.00  0.00    +0.000 C 
BRANCH  16  19
ATOM     17  O   UNL     1       1.389   8.671  20.366  0.00  0.00    +0.000 OA
ATOM     18  C   UNL     1       1.617   8.465  19.180  0.00  0.00    +0.000 C 
ATOM     19  N   UNL     1       2.272   7.338  18.705  0.00  0.00    +0.000 N 
ATOM     20  H   UNL     1       2.658   7.461  17.775  0.00  0.00    +0.000 HD
BRANCH  18  21
ATOM     21  C   UNL     1       1.115   9.372  18.035  0.00  0.00    +0.000 C 
ATOM     22  C   UNL     1      -0.160  10.160  18.365  0.00  0.00    +0.000 C 
ATOM     23  C   UNL     1       0.448  11.475  18.684  0.00  0.00    +0.000 A 
ATOM     24  C   UNL     1      -0.118  12.601  19.255  0.00  0.00    +0.000 A 
ATOM     25  C   UNL     1       0.695  13.724  19.442  0.00  0.00    +0.000 A 
ATOM     26  C   UNL     1       2.042  13.710  19.039  0.00  0.00    +0.000 A 
ATOM     27  C   UNL     1       2.587  12.579  18.431  0.00  0.00    +0.000 A 
ATOM     28  C   UNL     1       1.770  11.480  18.266  0.00  0.00    +0.000 A 
ATOM     29  O   UNL     1       2.167  10.309  17.678  0.00  0.00    +0.000 OA
ENDBRANCH  18  21
ENDBRANCH  16  19
ENDBRANCH   1  16
TORSDOF 4
ENDMDL
MODEL 6
REMARK VINA RESULT:      -8.8      2.019      8.061
REMARK  Name = 
REMARK  4 active torsions:
REMARK  status: ('A' for Active; 'I' for Inactive)
REMARK    1  A    between atoms: C_2  and  C_20
REMARK    2  A    between atoms: N_3  and  C_4
REMARK    3  A    between atoms: C_4  and  C_5
REMARK    4  A    between atoms: C_5  and  C_6
REMARK                            x       y       z     vdW  Elec       q    Type
REMARK                         _______ _______ _______ _____ _____    ______ ____
ROOT
ATOM      1  C   UNL     1       3.161   4.647  19.076  0.00  0.00    +0.000 C 
ATOM      2  C   UNL     1       1.815   4.485  18.324  0.00  0.00    +0.000 C 
ATOM      3  C   UNL     1       1.641   2.977  18.130  0.00  0.00    +0.000 C 
ATOM      4  C   UNL     1       2.460   2.316  19.237  0.00  0.00    +0.000 C 
ATOM      5  C   UNL     1       2.998   3.470  20.077  0.00  0.00    +0.000 C 
ENDROOT
BRANCH   1   6
ATOM      6  C   UNL     1       4.398   4.514  18.158  0.00  0.00    +0.000 A 
ATOM      7  C   UNL     1       5.709   4.651  18.657  0.00  0.00    +0.000 A 
ATOM      8  C   UNL     1       6.823   4.624  17.809  0.00  0.00    +0.000 A 
ATOM      9  C   UNL     1       6.648   4.502  16.438  0.00  0.00    +0.000 A 
ATOM     10  C   UNL     1       5.368   4.327  15.916  0.00  0.00    +0.000 A 
ATOM     11  C   UNL     1       4.260   4.329  16.768  0.00  0.00    +0.000 A 
ATOM     12  O   UNL     1       5.108   4.200  14.575  0.00  0.00    +0.000 OA
ATOM     13  C   UNL     1       6.306   4.060  13.801  0.00  0.00    +0.000 C 
ATOM     14  C   UNL     1       7.404   4.972  14.321  0.00  0.00    +0.000 C 
ATOM     15  O   UNL     1       7.769   4.592  15.652  0.00  0.00    +0.000 OA
ENDBRANCH   1   6
BRANCH   1  16
ATOM     16  C   UNL     1       3.236   5.983  19.868  0.00  0.00    +0.000 C 
BRANCH  16  19
ATOM     17  O   UNL     1       3.716   7.931  17.846  0.00  0.00    +0.000 OA
ATOM     18  C   UNL     1       2.607   7.854  18.361  0.00  0.00    +0.000 C 
ATOM     19  N   UNL     1       2.305   7.006  19.417  0.00  0.00    +0.000 N 
ATOM     20  H   UNL     1       1.311   6.825  19.514  0.00  0.00    +0.000 HD
BRANCH  18  21
ATOM     21  C   UNL     1       1.415   8.762  17.985  0.00  0.00    +0.000 C 
ATOM     22  C   UNL     1       0.567   9.218  19.180  0.00  0.00    +0.000 C 
ATOM     23  C   UNL     1       1.116  10.585  19.355  0.00  0.00    +0.000 A 
ATOM     24  C   UNL     1       0.936  11.491  20.385  0.00  0.00    +0.000 A 
ATOM     25  C   UNL     1       1.576  12.731  20.292  0.00  0.00    +0.000 A 
ATOM     26  C   UNL     1       2.363  13.049  19.171  0.00  0.00    +0.000 A 
ATOM     27  C   UNL     1       2.505  12.139  18.124  0.00  0.00    +0.000 A 
ATOM     28  C   UNL     1       1.872  10.919  18.242  0.00  0.00    +0.000 A 
ATOM     29  O   UNL     1       1.916   9.936  17.290  0.00  0.00    +0.000 OA
ENDBRANCH  18  21
ENDBRANCH  16  19
ENDBRANCH   1  16
TORSDOF 4
ENDMDL
MODEL 7
REMARK VINA RESULT:      -8.6      1.511      2.234
REMARK  Name = 
REMARK  4 active torsions:
REMARK  status: ('A' for Active; 'I' for Inactive)
REMARK    1  A    between atoms: C_2  and  C_20
REMARK    2  A    between atoms: N_3  and  C_4
REMARK    3  A    between atoms: C_4  and  C_5
REMARK    4  A    between atoms: C_5  and  C_6
REMARK                            x       y       z     vdW  Elec       q    Type
REMARK                         _______ _______ _______ _____ _____    ______ ____
ROOT
ATOM      1  C   UNL     1       2.930   4.989  19.454  0.00  0.00    +0.000 C 
ATOM      2  C   UNL     1       2.070   3.956  20.226  0.00  0.00    +0.000 C 
ATOM      3  C   UNL     1       0.949   3.563  19.261  0.00  0.00    +0.000 C 
ATOM      4  C   UNL     1       1.491   3.833  17.859  0.00  0.00    +0.000 C 
ATOM      5  C   UNL     1       2.933   4.284  18.070  0.00  0.00    +0.000 C 
ENDROOT
BRANCH   1   6
ATOM      6  C   UNL     1       2.311   6.406  19.428  0.00  0.00    +0.000 A 
ATOM      7  C   UNL     1       2.439   7.249  18.305  0.00  0.00    +0.000 A 
ATOM      8  C   UNL     1       1.960   8.565  18.319  0.00  0.00    +0.000 A 
ATOM      9  C   UNL     1       1.380   9.080  19.469  0.00  0.00    +0.000 A 
ATOM     10  C   UNL     1       1.205   8.262  20.583  0.00  0.00    +0.000 A 
ATOM     11  C   UNL     1       1.661   6.941  20.558  0.00  0.00    +0.000 A 
ATOM     12  O   UNL     1       0.642   8.692  21.758  0.00  0.00    +0.000 OA
ATOM     13  C   UNL     1       0.074  10.003  21.640  0.00  0.00    +0.000 C 
ATOM     14  C   UNL     1       0.955  10.908  20.794  0.00  0.00    +0.000 C 
ATOM     15  O   UNL     1       1.031  10.407  19.455  0.00  0.00    +0.000 OA
ENDBRANCH   1   6
BRANCH   1  16
ATOM     16  C   UNL     1       4.387   5.062  19.992  0.00  0.00    +0.000 C 
BRANCH  16  19
ATOM     17  O   UNL     1       7.200   5.259  20.402  0.00  0.00    +0.000 OA
ATOM     18  C   UNL     1       6.740   5.409  19.276  0.00  0.00    +0.000 C 
ATOM     19  N   UNL     1       5.381   5.426  18.994  0.00  0.00    +0.000 N 
ATOM     20  H   UNL     1       5.172   5.240  18.019  0.00  0.00    +0.000 HD
BRANCH  18  21
ATOM     21  C   UNL     1       7.597   5.707  18.026  0.00  0.00    +0.000 C 
ATOM     22  C   UNL     1       7.943   4.470  17.186  0.00  0.00    +0.000 C 
ATOM     23  C   UNL     1       6.932   4.623  16.111  0.00  0.00    +0.000 A 
ATOM     24  C   UNL     1       6.551   3.739  15.117  0.00  0.00    +0.000 A 
ATOM     25  C   UNL     1       5.561   4.146  14.217  0.00  0.00    +0.000 A 
ATOM     26  C   UNL     1       4.989   5.427  14.312  0.00  0.00    +0.000 A 
ATOM     27  C   UNL     1       5.410   6.319  15.298  0.00  0.00    +0.000 A 
ATOM     28  C   UNL     1       6.380   5.892  16.180  0.00  0.00    +0.000 A 
ATOM     29  O   UNL     1       6.895   6.663  17.188  0.00  0.00    +0.000 OA
ENDBRANCH  18  21
ENDBRANCH  16  19
ENDBRANCH   1  16
TORSDOF 4
ENDMDL
MODEL 8
REMARK VINA RESULT:      -8.5      2.804      5.849
REMARK  Name = 
REMARK  4 active torsions:
REMARK  status: ('A' for Active; 'I' for Inactive)
REMARK    1  A    between atoms: C_2  and  C_20
REMARK    2  A    between atoms: N_3  and  C_4
REMARK    3  A    between atoms: C_4  and  C_5
REMARK    4  A    between atoms: C_5  and  C_6
REMARK                            x       y       z     vdW  Elec       q    Type
REMARK                         _______ _______ _______ _____ _____    ______ ____
ROOT
ATOM      1  C   UNL     1       6.284   5.658  17.261  0.00  0.00    +0.000 C 
ATOM      2  C   UNL     1       7.220   6.662  16.539  0.00  0.00    +0.000 C 
ATOM      3  C   UNL     1       7.871   7.481  17.656  0.00  0.00    +0.000 C 
ATOM      4  C   UNL     1       7.826   6.599  18.902  0.00  0.00    +0.000 C 
ATOM      5  C   UNL     1       7.232   5.275  18.430  0.00  0.00    +0.000 C 
ENDROOT
BRANCH   1   6
ATOM      6  C   UNL     1       4.950   6.287  17.725  0.00  0.00    +0.000 A 
ATOM      7  C   UNL     1       4.369   7.376  17.044  0.00  0.00    +0.000 A 
ATOM      8  C   UNL     1       3.210   8.005  17.520  0.00  0.00    +0.000 A 
ATOM      9  C   UNL     1       2.634   7.585  18.710  0.00  0.00    +0.000 A 
ATOM     10  C   UNL     1       3.162   6.489  19.388  0.00  0.00    +0.000 A 
ATOM     11  C   UNL     1       4.302   5.847  18.897  0.00  0.00    +0.000 A 
ATOM     12  O   UNL     1       2.653   6.012  20.570  0.00  0.00    +0.000 OA
ATOM     13  C   UNL     1       1.408   6.631  20.913  0.00  0.00    +0.000 C 
ATOM     14  C   UNL     1       1.426   8.116  20.591  0.00  0.00    +0.000 C 
ATOM     15  O   UNL     1       1.568   8.310  19.179  0.00  0.00    +0.000 OA
ENDBRANCH   1   6
BRANCH   1  16
ATOM     16  C   UNL     1       5.999   4.395  16.401  0.00  0.00    +0.000 C 
BRANCH  16  19
ATOM     17  O   UNL     1       3.205   3.852  16.269  0.00  0.00    +0.000 OA
ATOM     18  C   UNL     1       3.939   3.101  16.901  0.00  0.00    +0.000 C 
ATOM     19  N   UNL     1       5.292   3.334  17.102  0.00  0.00    +0.000 N 
ATOM     20  H   UNL     1       5.809   2.499  17.353  0.00  0.00    +0.000 HD
BRANCH  18  21
ATOM     21  C   UNL     1       3.446   1.847  17.655  0.00  0.00    +0.000 C 
ATOM     22  C   UNL     1       4.149   1.599  18.997  0.00  0.00    +0.000 C 
ATOM     23  C   UNL     1       3.114   2.139  19.912  0.00  0.00    +0.000 A 
ATOM     24  C   UNL     1       3.179   2.410  21.267  0.00  0.00    +0.000 A 
ATOM     25  C   UNL     1       2.036   2.918  21.893  0.00  0.00    +0.000 A 
ATOM     26  C   UNL     1       0.852   3.126  21.164  0.00  0.00    +0.000 A 
ATOM     27  C   UNL     1       0.792   2.814  19.806  0.00  0.00    +0.000 A 
ATOM     28  C   UNL     1       1.934   2.323  19.208  0.00  0.00    +0.000 A 
ATOM     29  O   UNL     1       2.017   1.966  17.889  0.00  0.00    +0.000 OA
ENDBRANCH  18  21
ENDBRANCH  16  19
ENDBRANCH   1  16
TORSDOF 4
ENDMDL
MODEL 9
REMARK VINA RESULT:      -8.5      1.755      2.875
REMARK  Name = 
REMARK  4 active torsions:
REMARK  status: ('A' for Active; 'I' for Inactive)
REMARK    1  A    between atoms: C_2  and  C_20
REMARK    2  A    between atoms: N_3  and  C_4
REMARK    3  A    between atoms: C_4  and  C_5
REMARK    4  A    between atoms: C_5  and  C_6
REMARK                            x       y       z     vdW  Elec       q    Type
REMARK                         _______ _______ _______ _____ _____    ______ ____
ROOT
ATOM      1  C   UNL     1       3.037   4.540  19.543  0.00  0.00    +0.000 C 
ATOM      2  C   UNL     1       2.157   3.510  20.297  0.00  0.00    +0.000 C 
ATOM      3  C   UNL     1       0.936   3.289  19.401  0.00  0.00    +0.000 C 
ATOM      4  C   UNL     1       1.388   3.641  17.985  0.00  0.00    +0.000 C 
ATOM      5  C   UNL     1       2.874   3.962  18.111  0.00  0.00    +0.000 C 
ENDROOT
BRANCH   1   6
ATOM      6  C   UNL     1       2.536   5.996  19.685  0.00  0.00    +0.000 A 
ATOM      7  C   UNL     1       1.813   6.422  20.818  0.00  0.00    +0.000 A 
ATOM      8  C   UNL     1       1.279   7.715  20.902  0.00  0.00    +0.000 A 
ATOM      9  C   UNL     1       1.419   8.594  19.838  0.00  0.00    +0.000 A 
ATOM     10  C   UNL     1       2.158   8.215  18.720  0.00  0.00    +0.000 A 
ATOM     11  C   UNL     1       2.713   6.935  18.649  0.00  0.00    +0.000 A 
ATOM     12  O   UNL     1       2.344   9.024  17.626  0.00  0.00    +0.000 OA
ATOM     13  C   UNL     1       1.872  10.358  17.850  0.00  0.00    +0.000 C 
ATOM     14  C   UNL     1       0.568  10.354  18.631  0.00  0.00    +0.000 C 
ATOM     15  O   UNL     1       0.780   9.804  19.937  0.00  0.00    +0.000 OA
ENDBRANCH   1   6
BRANCH   1  16
ATOM     16  C   UNL     1       4.532   4.456  19.960  0.00  0.00    +0.000 C 
BRANCH  16  19
ATOM     17  O   UNL     1       7.198   5.349  20.424  0.00  0.00    +0.000 OA
ATOM     18  C   UNL     1       6.776   5.271  19.276  0.00  0.00    +0.000 C 
ATOM     19  N   UNL     1       5.467   4.940  18.956  0.00  0.00    +0.000 N 
ATOM     20  H   UNL     1       5.359   4.611  18.003  0.00  0.00    +0.000 HD
BRANCH  18  21
ATOM     21  C   UNL     1       7.607   5.634  18.025  0.00  0.00    +0.000 C 
ATOM     22  C   UNL     1       7.942   4.439  17.121  0.00  0.00    +0.000 C 
ATOM     23  C   UNL     1       6.909   4.636  16.074  0.00  0.00    +0.000 A 
ATOM     24  C   UNL     1       6.513   3.798  15.047  0.00  0.00    +0.000 A 
ATOM     25  C   UNL     1       5.503   4.241  14.187  0.00  0.00    +0.000 A 
ATOM     26  C   UNL     1       4.926   5.512  14.354  0.00  0.00    +0.000 A 
ATOM     27  C   UNL     1       5.362   6.359  15.372  0.00  0.00    +0.000 A 
ATOM     28  C   UNL     1       6.352   5.898  16.214  0.00  0.00    +0.000 A 
ATOM     29  O   UNL     1       6.882   6.623  17.247  0.00  0.00    +0.000 OA
ENDBRANCH  18  21
ENDBRANCH  16  19
ENDBRANCH   1  16
TORSDOF 4
ENDMDL
