MODEL 1
REMARK VINA RESULT:      -8.8      0.000      0.000
REMARK  Name = 
REMARK  5 active torsions:
REMARK  status: ('A' for Active; 'I' for Inactive)
REMARK    1  A    between atoms: C_1  and  C_2
REMARK    2  A    between atoms: C_5  and  C_6
REMARK    3  A    between atoms: C_11  and  C_12
REMARK    4  A    between atoms: C_24  and  S_25
REMARK    5  A    between atoms: S_25  and  C_26
REMARK                            x       y       z     vdW  Elec       q    Type
REMARK                         _______ _______ _______ _____ _____    ______ ____
ROOT
ATOM      1  C   UNL     1       2.234   8.015  18.278  0.00  0.00    +0.000 C 
ATOM      2  O   UNL     1       1.703   8.574  17.336  0.00  0.00    +0.000 OA
ATOM      3  N   UNL     1       1.958   8.213  19.626  0.00  0.00    +0.000 N 
ATOM      4  C   UNL     1       1.000   9.108  20.028  0.00  0.00    +0.000 A 
ATOM      5  N   UNL     1       0.030   9.643  19.339  0.00  0.00    +0.000 NA
ATOM      6  C   UNL     1      -0.662  10.549  20.117  0.00  0.00    +0.000 A 
ATOM      7  C   UNL     1      -0.167  10.713  21.395  0.00  0.00    +0.000 A 
ATOM      8  S   UNL     1       1.118   9.600  21.661  0.00  0.00    +0.000 S 
ATOM      9  H   UNL     1       2.567   7.860  20.348  0.00  0.00    +0.000 HD
ENDROOT
BRANCH   6  10
ATOM     10  C   UNL     1      -1.817  11.247  19.541  0.00  0.00    +0.000 A 
ATOM     11  C   UNL     1      -2.500  12.314  20.089  0.00  0.00    +0.000 A 
ATOM     12  N   UNL     1      -3.494  12.669  19.215  0.00  0.00    +0.000 N 
ATOM     13  C   UNL     1      -3.499  11.824  18.128  0.00  0.00    +0.000 A 
ATOM     14  C   UNL     1      -4.340  11.802  17.009  0.00  0.00    +0.000 A 
ATOM     15  C   UNL     1      -4.126  10.804  16.053  0.00  0.00    +0.000 A 
ATOM     16  C   UNL     1      -3.105   9.872  16.207  0.00  0.00    +0.000 A 
ATOM     17  C   UNL     1      -2.264   9.922  17.320  0.00  0.00    +0.000 A 
ATOM     18  C   UNL     1      -2.457  10.911  18.308  0.00  0.00    +0.000 A 
ATOM     19  H   UNL     1      -4.143  13.431  19.348  0.00  0.00    +0.000 HD
ENDBRANCH   6  10
BRANCH   1  24
ATOM     20  C   UNL     1       6.516   4.238  17.036  0.00  0.00    +0.000 C 
ATOM     21  C   UNL     1       5.386   5.166  17.389  0.00  0.00    +0.000 A 
ATOM     22  C   UNL     1       5.423   6.477  16.878  0.00  0.00    +0.000 A 
ATOM     23  C   UNL     1       4.405   7.399  17.161  0.00  0.00    +0.000 A 
ATOM     24  C   UNL     1       3.327   7.033  17.984  0.00  0.00    +0.000 A 
ATOM     25  C   UNL     1       3.269   5.726  18.476  0.00  0.00    +0.000 A 
ATOM     26  C   UNL     1       4.283   4.794  18.182  0.00  0.00    +0.000 A 
BRANCH  26  27
ATOM     27  S   UNL     1       4.096   3.150  18.880  0.00  0.00    +0.000 S 
ATOM     28  C   UNL     1       2.658   3.279  19.908  0.00  0.00    +0.000 C 
ATOM     29  O   UNL     1       3.811   2.214  17.815  0.00  0.00    +0.000 OA
ATOM     30  O   UNL     1       5.236   2.928  19.755  0.00  0.00    +0.000 OA
ENDBRANCH  26  27
ENDBRANCH   1  24
TORSDOF 3
ENDMDL
MODEL 2
REMARK VINA RESULT:      -8.8      2.976      9.176
REMARK  Name = 
REMARK  5 active torsions:
REMARK  status: ('A' for Active; 'I' for Inactive)
REMARK    1  A    between atoms: C_1  and  C_2
REMARK    2  A    between atoms: C_5  and  C_6
REMARK    3  A    between atoms: C_11  and  C_12
REMARK    4  A    between atoms: C_24  and  S_25
REMARK    5  A    between atoms: S_25  and  C_26
REMARK                            x       y       z     vdW  Elec       q    Type
REMARK                         _______ _______ _______ _____ _____    ______ ____
ROOT
ATOM      1  C   UNL     1       1.401   8.792  19.144  0.00  0.00    +0.000 C 
ATOM      2  O   UNL     1       2.179   8.982  18.226  0.00  0.00    +0.000 OA
ATOM      3  N   UNL     1       1.380   7.700  20.004  0.00  0.00    +0.000 N 
ATOM      4  C   UNL     1       2.296   6.687  19.883  0.00  0.00    +0.000 A 
ATOM      5  N   UNL     1       3.439   6.678  19.255  0.00  0.00    +0.000 NA
ATOM      6  C   UNL     1       4.012   5.425  19.327  0.00  0.00    +0.000 A 
ATOM      7  C   UNL     1       3.256   4.480  19.990  0.00  0.00    +0.000 A 
ATOM      8  S   UNL     1       1.853   5.226  20.652  0.00  0.00    +0.000 S 
ATOM      9  H   UNL     1       0.596   7.521  20.611  0.00  0.00    +0.000 HD
ENDROOT
BRANCH   6  10
ATOM     10  C   UNL     1       5.323   5.203  18.707  0.00  0.00    +0.000 A 
ATOM     11  C   UNL     1       6.555   5.253  19.328  0.00  0.00    +0.000 A 
ATOM     12  N   UNL     1       7.510   4.965  18.388  0.00  0.00    +0.000 N 
ATOM     13  C   UNL     1       6.926   4.772  17.157  0.00  0.00    +0.000 A 
ATOM     14  C   UNL     1       7.511   4.478  15.919  0.00  0.00    +0.000 A 
ATOM     15  C   UNL     1       6.666   4.354  14.812  0.00  0.00    +0.000 A 
ATOM     16  C   UNL     1       5.290   4.510  14.940  0.00  0.00    +0.000 A 
ATOM     17  C   UNL     1       4.722   4.784  16.186  0.00  0.00    +0.000 A 
ATOM     18  C   UNL     1       5.547   4.924  17.324  0.00  0.00    +0.000 A 
ATOM     19  H   UNL     1       8.503   4.913  18.563  0.00  0.00    +0.000 HD
ENDBRANCH   6  10
BRANCH   1  24
ATOM     20  C   UNL     1      -2.785  12.794  19.921  0.00  0.00    +0.000 C 
ATOM     21  C   UNL     1      -1.697  11.764  19.782  0.00  0.00    +0.000 A 
ATOM     22  C   UNL     1      -1.394  11.293  18.490  0.00  0.00    +0.000 A 
ATOM     23  C   UNL     1      -0.391  10.335  18.281  0.00  0.00    +0.000 A 
ATOM     24  C   UNL     1       0.324   9.808  19.369  0.00  0.00    +0.000 A 
ATOM     25  C   UNL     1       0.046  10.288  20.652  0.00  0.00    +0.000 A 
ATOM     26  C   UNL     1      -0.950  11.261  20.865  0.00  0.00    +0.000 A 
BRANCH  26  27
ATOM     27  S   UNL     1      -1.215  11.788  22.560  0.00  0.00    +0.000 S 
ATOM     28  C   UNL     1      -0.555  13.432  22.609  0.00  0.00    +0.000 C 
ATOM     29  O   UNL     1      -2.637  11.861  22.816  0.00  0.00    +0.000 OA
ATOM     30  O   UNL     1      -0.368  10.957  23.401  0.00  0.00    +0.000 OA
ENDBRANCH  26  27
ENDBRANCH   1  24
TORSDOF 3
ENDMDL
MODEL 3
REMARK VINA RESULT:      -8.8      3.688      9.389
REMARK  Name = 
REMARK  5 active torsions:
REMARK  status: ('A' for Active; 'I' for Inactive)
REMARK    1  A    between atoms: C_1  and  C_2
REMARK    2  A    between atoms: C_5  and  C_6
REMARK    3  A    between atoms: C_11  and  C_12
REMARK    4  A    between atoms: C_24  and  S_25
REMARK    5  A    between atoms: S_25  and  C_26
REMARK                            x       y       z     vdW  Elec       q    Type
REMARK                         _______ _______ _______ _____ _____    ______ ____
ROOT
ATOM      1  C   UNL     1       2.469   7.680  18.911  0.00  0.00    +0.000 C 
ATOM      2  O   UNL     1       3.060   8.332  18.069  0.00  0.00    +0.000 OA
ATOM      3  N   UNL     1       2.490   6.298  19.059  0.00  0.00    +0.000 N 
ATOM      4  C   UNL     1       3.231   5.508  18.218  0.00  0.00    +0.000 A 
ATOM      5  N   UNL     1       4.211   5.840  17.425  0.00  0.00    +0.000 NA
ATOM      6  C   UNL     1       4.629   4.742  16.700  0.00  0.00    +0.000 A 
ATOM      7  C   UNL     1       3.914   3.585  16.936  0.00  0.00    +0.000 A 
ATOM      8  S   UNL     1       2.778   3.859  18.199  0.00  0.00    +0.000 S 
ATOM      9  H   UNL     1       1.830   5.820  19.651  0.00  0.00    +0.000 HD
ENDROOT
BRANCH   6  10
ATOM     10  C   UNL     1       5.749   4.890  15.763  0.00  0.00    +0.000 A 
ATOM     11  C   UNL     1       6.940   5.549  15.991  0.00  0.00    +0.000 A 
ATOM     12  N   UNL     1       7.709   5.427  14.862  0.00  0.00    +0.000 N 
ATOM     13  C   UNL     1       7.022   4.737  13.889  0.00  0.00    +0.000 A 
ATOM     14  C   UNL     1       7.407   4.397  12.586  0.00  0.00    +0.000 A 
ATOM     15  C   UNL     1       6.486   3.700  11.797  0.00  0.00    +0.000 A 
ATOM     16  C   UNL     1       5.235   3.350  12.295  0.00  0.00    +0.000 A 
ATOM     17  C   UNL     1       4.877   3.681  13.603  0.00  0.00    +0.000 A 
ATOM     18  C   UNL     1       5.779   4.392  14.424  0.00  0.00    +0.000 A 
ATOM     19  H   UNL     1       8.641   5.798  14.749  0.00  0.00    +0.000 HD
ENDBRANCH   6  10
BRANCH   1  24
ATOM     20  C   UNL     1      -0.997  10.454  22.712  0.00  0.00    +0.000 C 
ATOM     21  C   UNL     1      -0.101   9.791  21.700  0.00  0.00    +0.000 A 
ATOM     22  C   UNL     1       0.246   8.443  21.906  0.00  0.00    +0.000 A 
ATOM     23  C   UNL     1       1.074   7.757  21.006  0.00  0.00    +0.000 A 
ATOM     24  C   UNL     1       1.592   8.416  19.878  0.00  0.00    +0.000 A 
ATOM     25  C   UNL     1       1.233   9.747  19.652  0.00  0.00    +0.000 A 
ATOM     26  C   UNL     1       0.390  10.434  20.547  0.00  0.00    +0.000 A 
BRANCH  26  27
ATOM     27  S   UNL     1       0.009  12.142  20.147  0.00  0.00    +0.000 S 
ATOM     28  C   UNL     1       0.908  12.447  18.651  0.00  0.00    +0.000 C 
ATOM     29  O   UNL     1      -1.404  12.257  19.859  0.00  0.00    +0.000 OA
ATOM     30  O   UNL     1       0.607  12.966  21.186  0.00  0.00    +0.000 OA
ENDBRANCH  26  27
ENDBRANCH   1  24
TORSDOF 3
ENDMDL
MODEL 4
REMARK VINA RESULT:      -8.6      2.964      9.151
REMARK  Name = 
REMARK  5 active torsions:
REMARK  status: ('A' for Active; 'I' for Inactive)
REMARK    1  A    between atoms: C_1  and  C_2
REMARK    2  A    between atoms: C_5  and  C_6
REMARK    3  A    between atoms: C_11  and  C_12
REMARK    4  A    between atoms: C_24  and  S_25
REMARK    5  A    between atoms: S_25  and  C_26
REMARK                            x       y       z     vdW  Elec       q    Type
REMARK                         _______ _______ _______ _____ _____    ______ ____
ROOT
ATOM      1  C   UNL     1       1.295   9.212  18.474  0.00  0.00    +0.000 C 
ATOM      2  O   UNL     1       1.872   9.497  17.439  0.00  0.00    +0.000 OA
ATOM      3  N   UNL     1       1.555   8.122  19.297  0.00  0.00    +0.000 N 
ATOM      4  C   UNL     1       2.548   7.227  18.994  0.00  0.00    +0.000 A 
ATOM      5  N   UNL     1       3.555   7.358  18.176  0.00  0.00    +0.000 NA
ATOM      6  C   UNL     1       4.276   6.183  18.117  0.00  0.00    +0.000 A 
ATOM      7  C   UNL     1       3.765   5.150  18.878  0.00  0.00    +0.000 A 
ATOM      8  S   UNL     1       2.422   5.720  19.791  0.00  0.00    +0.000 S 
ATOM      9  H   UNL     1       0.916   7.847  20.027  0.00  0.00    +0.000 HD
ENDROOT
BRANCH   6  10
ATOM     10  C   UNL     1       5.475   6.122  17.272  0.00  0.00    +0.000 A 
ATOM     11  C   UNL     1       6.654   6.816  17.454  0.00  0.00    +0.000 A 
ATOM     12  N   UNL     1       7.514   6.450  16.451  0.00  0.00    +0.000 N 
ATOM     13  C   UNL     1       6.901   5.564  15.595  0.00  0.00    +0.000 A 
ATOM     14  C   UNL     1       7.388   4.947  14.436  0.00  0.00    +0.000 A 
ATOM     15  C   UNL     1       6.526   4.095  13.740  0.00  0.00    +0.000 A 
ATOM     16  C   UNL     1       5.230   3.862  14.190  0.00  0.00    +0.000 A 
ATOM     17  C   UNL     1       4.768   4.471  15.358  0.00  0.00    +0.000 A 
ATOM     18  C   UNL     1       5.609   5.344  16.082  0.00  0.00    +0.000 A 
ATOM     19  H   UNL     1       8.459   6.788  16.342  0.00  0.00    +0.000 HD
ENDBRANCH   6  10
BRANCH   1  24
ATOM     20  C   UNL     1      -3.128  12.681  20.068  0.00  0.00    +0.000 C 
ATOM     21  C   UNL     1      -1.970  11.787  19.717  0.00  0.00    +0.000 A 
ATOM     22  C   UNL     1      -1.823  11.393  18.373  0.00  0.00    +0.000 A 
ATOM     23  C   UNL     1      -0.768  10.564  17.968  0.00  0.00    +0.000 A 
ATOM     24  C   UNL     1       0.162  10.090  18.909  0.00  0.00    +0.000 A 
ATOM     25  C   UNL     1       0.039  10.496  20.240  0.00  0.00    +0.000 A 
ATOM     26  C   UNL     1      -1.013  11.341  20.648  0.00  0.00    +0.000 A 
BRANCH  26  27
ATOM     27  S   UNL     1      -1.064  11.783  22.387  0.00  0.00    +0.000 S 
ATOM     28  C   UNL     1      -0.448  13.444  22.429  0.00  0.00    +0.000 C 
ATOM     29  O   UNL     1      -2.441  11.798  22.830  0.00  0.00    +0.000 OA
ATOM     30  O   UNL     1      -0.092  10.943  23.068  0.00  0.00    +0.000 OA
ENDBRANCH  26  27
ENDBRANCH   1  24
TORSDOF 3
ENDMDL
MODEL 5
REMARK VINA RESULT:      -8.6      3.246      9.345
REMARK  Name = 
REMARK  5 active torsions:
REMARK  status: ('A' for Active; 'I' for Inactive)
REMARK    1  A    between atoms: C_1  and  C_2
REMARK    2  A    between atoms: C_5  and  C_6
REMARK    3  A    between atoms: C_11  and  C_12
REMARK    4  A    between atoms: C_24  and  S_25
REMARK    5  A    between atoms: S_25  and  C_26
REMARK                            x       y       z     vdW  Elec       q    Type
REMARK                         _______ _______ _______ _____ _____    ______ ____
ROOT
ATOM      1  C   UNL     1       1.483   8.434  20.561  0.00  0.00    +0.000 C 
ATOM      2  O   UNL     1       2.302   8.884  19.780  0.00  0.00    +0.000 OA
ATOM      3  N   UNL     1       1.336   7.104  20.938  0.00  0.00    +0.000 N 
ATOM      4  C   UNL     1       2.159   6.131  20.433  0.00  0.00    +0.000 A 
ATOM      5  N   UNL     1       3.315   6.253  19.842  0.00  0.00    +0.000 NA
ATOM      6  C   UNL     1       3.770   5.018  19.426  0.00  0.00    +0.000 A 
ATOM      7  C   UNL     1       2.911   3.969  19.682  0.00  0.00    +0.000 A 
ATOM      8  S   UNL     1       1.562   4.536  20.588  0.00  0.00    +0.000 S 
ATOM      9  H   UNL     1       0.521   6.783  21.436  0.00  0.00    +0.000 HD
ENDROOT
BRANCH   6  10
ATOM     10  C   UNL     1       5.074   4.925  18.759  0.00  0.00    +0.000 A 
ATOM     11  C   UNL     1       6.315   5.097  19.336  0.00  0.00    +0.000 A 
ATOM     12  N   UNL     1       7.261   4.904  18.363  0.00  0.00    +0.000 N 
ATOM     13  C   UNL     1       6.655   4.652  17.152  0.00  0.00    +0.000 A 
ATOM     14  C   UNL     1       7.223   4.413  15.894  0.00  0.00    +0.000 A 
ATOM     15  C   UNL     1       6.355   4.205  14.818  0.00  0.00    +0.000 A 
ATOM     16  C   UNL     1       4.975   4.225  14.995  0.00  0.00    +0.000 A 
ATOM     17  C   UNL     1       4.428   4.445  16.261  0.00  0.00    +0.000 A 
ATOM     18  C   UNL     1       5.275   4.667  17.368  0.00  0.00    +0.000 A 
ATOM     19  H   UNL     1       8.260   4.950  18.502  0.00  0.00    +0.000 HD
ENDBRANCH   6  10
BRANCH   1  24
ATOM     20  C   UNL     1      -2.394  12.068  22.993  0.00  0.00    +0.000 C 
ATOM     21  C   UNL     1      -1.404  11.162  22.313  0.00  0.00    +0.000 A 
ATOM     22  C   UNL     1      -0.782  10.163  23.086  0.00  0.00    +0.000 A 
ATOM     23  C   UNL     1       0.148   9.278  22.522  0.00  0.00    +0.000 A 
ATOM     24  C   UNL     1       0.496   9.386  21.165  0.00  0.00    +0.000 A 
ATOM     25  C   UNL     1      -0.135  10.358  20.384  0.00  0.00    +0.000 A 
ATOM     26  C   UNL     1      -1.081  11.239  20.944  0.00  0.00    +0.000 A 
BRANCH  26  27
ATOM     27  S   UNL     1      -1.814  12.447  19.837  0.00  0.00    +0.000 S 
ATOM     28  C   UNL     1      -1.153  12.031  18.246  0.00  0.00    +0.000 C 
ATOM     29  O   UNL     1      -3.246  12.247  19.800  0.00  0.00    +0.000 OA
ATOM     30  O   UNL     1      -1.272  13.745  20.205  0.00  0.00    +0.000 OA
ENDBRANCH  26  27
ENDBRANCH   1  24
TORSDOF 3
ENDMDL
MODEL 6
REMARK VINA RESULT:      -8.6      2.217      3.025
REMARK  Name = 
REMARK  5 active torsions:
REMARK  status: ('A' for Active; 'I' for Inactive)
REMARK    1  A    between atoms: C_1  and  C_2
REMARK    2  A    between atoms: C_5  and  C_6
REMARK    3  A    between atoms: C_11  and  C_12
REMARK    4  A    between atoms: C_24  and  S_25
REMARK    5  A    between atoms: S_25  and  C_26
REMARK                            x       y       z     vdW  Elec       q    Type
REMARK                         _______ _______ _______ _____ _____    ______ ____
ROOT
ATOM      1  C   UNL     1       2.365   8.302  18.405  0.00  0.00    +0.000 C 
ATOM      2  O   UNL     1       2.409   9.303  17.712  0.00  0.00    +0.000 OA
ATOM      3  N   UNL     1       1.734   8.170  19.636  0.00  0.00    +0.000 N 
ATOM      4  C   UNL     1       1.062   9.223  20.203  0.00  0.00    +0.000 A 
ATOM      5  N   UNL     1       0.628  10.320  19.648  0.00  0.00    +0.000 NA
ATOM      6  C   UNL     1       0.067  11.145  20.600  0.00  0.00    +0.000 A 
ATOM      7  C   UNL     1       0.124  10.662  21.892  0.00  0.00    +0.000 A 
ATOM      8  S   UNL     1       0.781   9.071  21.883  0.00  0.00    +0.000 S 
ATOM      9  H   UNL     1       1.903   7.377  20.234  0.00  0.00    +0.000 HD
ENDROOT
BRANCH   6  10
ATOM     10  C   UNL     1      -0.513  12.427  20.182  0.00  0.00    +0.000 A 
ATOM     11  C   UNL     1      -1.852  12.755  20.130  0.00  0.00    +0.000 A 
ATOM     12  N   UNL     1      -1.950  14.054  19.705  0.00  0.00    +0.000 N 
ATOM     13  C   UNL     1      -0.700  14.564  19.436  0.00  0.00    +0.000 A 
ATOM     14  C   UNL     1      -0.325  15.829  18.967  0.00  0.00    +0.000 A 
ATOM     15  C   UNL     1       1.037  16.070  18.761  0.00  0.00    +0.000 A 
ATOM     16  C   UNL     1       1.986  15.087  19.022  0.00  0.00    +0.000 A 
ATOM     17  C   UNL     1       1.595  13.838  19.508  0.00  0.00    +0.000 A 
ATOM     18  C   UNL     1       0.228  13.558  19.719  0.00  0.00    +0.000 A 
ATOM     19  H   UNL     1      -2.812  14.567  19.590  0.00  0.00    +0.000 HD
ENDBRANCH   6  10
BRANCH   1  24
ATOM     20  C   UNL     1       5.215   3.602  16.422  0.00  0.00    +0.000 C 
ATOM     21  C   UNL     1       4.444   4.775  16.964  0.00  0.00    +0.000 A 
ATOM     22  C   UNL     1       4.848   6.067  16.578  0.00  0.00    +0.000 A 
ATOM     23  C   UNL     1       4.177   7.208  17.040  0.00  0.00    +0.000 A 
ATOM     24  C   UNL     1       3.088   7.083  17.920  0.00  0.00    +0.000 A 
ATOM     25  C   UNL     1       2.665   5.803  18.288  0.00  0.00    +0.000 A 
ATOM     26  C   UNL     1       3.328   4.654  17.814  0.00  0.00    +0.000 A 
BRANCH  26  27
ATOM     27  S   UNL     1       2.690   3.069  18.367  0.00  0.00    +0.000 S 
ATOM     28  C   UNL     1       1.320   3.493  19.406  0.00  0.00    +0.000 C 
ATOM     29  O   UNL     1       2.185   2.339  17.225  0.00  0.00    +0.000 OA
ATOM     30  O   UNL     1       3.710   2.473  19.215  0.00  0.00    +0.000 OA
ENDBRANCH  26  27
ENDBRANCH   1  24
TORSDOF 3
ENDMDL
MODEL 7
REMARK VINA RESULT:      -8.6      1.639      2.647
REMARK  Name = 
REMARK  5 active torsions:
REMARK  status: ('A' for Active; 'I' for Inactive)
REMARK    1  A    between atoms: C_1  and  C_2
REMARK    2  A    between atoms: C_5  and  C_6
REMARK    3  A    between atoms: C_11  and  C_12
REMARK    4  A    between atoms: C_24  and  S_25
REMARK    5  A    between atoms: S_25  and  C_26
REMARK                            x       y       z     vdW  Elec       q    Type
REMARK                         _______ _______ _______ _____ _____    ______ ____
ROOT
ATOM      1  C   UNL     1       2.192   8.111  18.550  0.00  0.00    +0.000 C 
ATOM      2  O   UNL     1       1.808   8.957  17.762  0.00  0.00    +0.000 OA
ATOM      3  N   UNL     1       1.886   8.036  19.904  0.00  0.00    +0.000 N 
ATOM      4  C   UNL     1       1.071   8.964  20.498  0.00  0.00    +0.000 A 
ATOM      5  N   UNL     1       0.239   9.804  19.947  0.00  0.00    +0.000 NA
ATOM      6  C   UNL     1      -0.331  10.611  20.911  0.00  0.00    +0.000 A 
ATOM      7  C   UNL     1       0.121  10.385  22.196  0.00  0.00    +0.000 A 
ATOM      8  S   UNL     1       1.188   9.035  22.202  0.00  0.00    +0.000 S 
ATOM      9  H   UNL     1       2.391   7.424  20.526  0.00  0.00    +0.000 HD
ENDROOT
BRANCH   6  10
ATOM     10  C   UNL     1      -1.324  11.613  20.507  0.00  0.00    +0.000 A 
ATOM     11  C   UNL     1      -1.507  12.138  19.244  0.00  0.00    +0.000 A 
ATOM     12  N   UNL     1      -2.551  13.024  19.306  0.00  0.00    +0.000 N 
ATOM     13  C   UNL     1      -3.022  13.119  20.596  0.00  0.00    +0.000 A 
ATOM     14  C   UNL     1      -4.054  13.905  21.123  0.00  0.00    +0.000 A 
ATOM     15  C   UNL     1      -4.306  13.814  22.495  0.00  0.00    +0.000 A 
ATOM     16  C   UNL     1      -3.562  12.964  23.306  0.00  0.00    +0.000 A 
ATOM     17  C   UNL     1      -2.549  12.173  22.760  0.00  0.00    +0.000 A 
ATOM     18  C   UNL     1      -2.262  12.246  21.379  0.00  0.00    +0.000 A 
ATOM     19  H   UNL     1      -2.919  13.547  18.524  0.00  0.00    +0.000 HD
ENDBRANCH   6  10
BRANCH   1  24
ATOM     20  C   UNL     1       5.812   4.024  16.466  0.00  0.00    +0.000 C 
ATOM     21  C   UNL     1       4.858   5.035  17.042  0.00  0.00    +0.000 A 
ATOM     22  C   UNL     1       4.869   6.337  16.506  0.00  0.00    +0.000 A 
ATOM     23  C   UNL     1       4.008   7.332  16.989  0.00  0.00    +0.000 A 
ATOM     24  C   UNL     1       3.119   7.050  18.041  0.00  0.00    +0.000 A 
ATOM     25  C   UNL     1       3.083   5.755  18.562  0.00  0.00    +0.000 A 
ATOM     26  C   UNL     1       3.938   4.748  18.070  0.00  0.00    +0.000 A 
BRANCH  26  27
ATOM     27  S   UNL     1       3.798   3.128  18.829  0.00  0.00    +0.000 S 
ATOM     28  C   UNL     1       2.428   3.288  19.941  0.00  0.00    +0.000 C 
ATOM     29  O   UNL     1       3.448   2.159  17.813  0.00  0.00    +0.000 OA
ATOM     30  O   UNL     1       4.991   2.933  19.637  0.00  0.00    +0.000 OA
ENDBRANCH  26  27
ENDBRANCH   1  24
TORSDOF 3
ENDMDL
MODEL 8
REMARK VINA RESULT:      -8.6      3.368      9.428
REMARK  Name = 
REMARK  5 active torsions:
REMARK  status: ('A' for Active; 'I' for Inactive)
REMARK    1  A    between atoms: C_1  and  C_2
REMARK    2  A    between atoms: C_5  and  C_6
REMARK    3  A    between atoms: C_11  and  C_12
REMARK    4  A    between atoms: C_24  and  S_25
REMARK    5  A    between atoms: S_25  and  C_26
REMARK                            x       y       z     vdW  Elec       q    Type
REMARK                         _______ _______ _______ _____ _____    ______ ____
ROOT
ATOM      1  C   UNL     1       2.291   8.062  18.380  0.00  0.00    +0.000 C 
ATOM      2  O   UNL     1       2.865   8.601  17.450  0.00  0.00    +0.000 OA
ATOM      3  N   UNL     1       2.371   6.722  18.741  0.00  0.00    +0.000 N 
ATOM      4  C   UNL     1       3.158   5.846  18.040  0.00  0.00    +0.000 A 
ATOM      5  N   UNL     1       4.135   6.095  17.212  0.00  0.00    +0.000 NA
ATOM      6  C   UNL     1       4.612   4.918  16.671  0.00  0.00    +0.000 A 
ATOM      7  C   UNL     1       3.945   3.780  17.079  0.00  0.00    +0.000 A 
ATOM      8  S   UNL     1       2.780   4.195  18.276  0.00  0.00    +0.000 S 
ATOM      9  H   UNL     1       1.725   6.312  19.396  0.00  0.00    +0.000 HD
ENDROOT
BRANCH   6  10
ATOM     10  C   UNL     1       5.738   4.969  15.731  0.00  0.00    +0.000 A 
ATOM     11  C   UNL     1       6.956   5.586  15.928  0.00  0.00    +0.000 A 
ATOM     12  N   UNL     1       7.719   5.374  14.810  0.00  0.00    +0.000 N 
ATOM     13  C   UNL     1       7.003   4.668  13.869  0.00  0.00    +0.000 A 
ATOM     14  C   UNL     1       7.373   4.247  12.586  0.00  0.00    +0.000 A 
ATOM     15  C   UNL     1       6.422   3.554  11.829  0.00  0.00    +0.000 A 
ATOM     16  C   UNL     1       5.157   3.285  12.341  0.00  0.00    +0.000 A 
ATOM     17  C   UNL     1       4.813   3.696  13.630  0.00  0.00    +0.000 A 
ATOM     18  C   UNL     1       5.746   4.405  14.418  0.00  0.00    +0.000 A 
ATOM     19  H   UNL     1       8.667   5.697  14.680  0.00  0.00    +0.000 HD
ENDBRANCH   6  10
BRANCH   1  24
ATOM     20  C   UNL     1      -1.305  11.245  21.708  0.00  0.00    +0.000 C 
ATOM     21  C   UNL     1      -0.402  10.453  20.801  0.00  0.00    +0.000 A 
ATOM     22  C   UNL     1       0.477   9.525  21.390  0.00  0.00    +0.000 A 
ATOM     23  C   UNL     1       1.346   8.749  20.610  0.00  0.00    +0.000 A 
ATOM     24  C   UNL     1       1.369   8.898  19.213  0.00  0.00    +0.000 A 
ATOM     25  C   UNL     1       0.482   9.799  18.618  0.00  0.00    +0.000 A 
ATOM     26  C   UNL     1      -0.403  10.570  19.398  0.00  0.00    +0.000 A 
BRANCH  26  27
ATOM     27  S   UNL     1      -1.486  11.696  18.514  0.00  0.00    +0.000 S 
ATOM     28  C   UNL     1      -0.514  13.164  18.315  0.00  0.00    +0.000 C 
ATOM     29  O   UNL     1      -1.762  11.153  17.202  0.00  0.00    +0.000 OA
ATOM     30  O   UNL     1      -2.584  12.021  19.411  0.00  0.00    +0.000 OA
ENDBRANCH  26  27
ENDBRANCH   1  24
TORSDOF 3
ENDMDL
MODEL 9
REMARK VINA RESULT:      -8.5      2.394      3.746
REMARK  Name = 
REMARK  5 active torsions:
REMARK  status: ('A' for Active; 'I' for Inactive)
REMARK    1  A    between atoms: C_1  and  C_2
REMARK    2  A    between atoms: C_5  and  C_6
REMARK    3  A    between atoms: C_11  and  C_12
REMARK    4  A    between atoms: C_24  and  S_25
REMARK    5  A    between atoms: S_25  and  C_26
REMARK                            x       y       z     vdW  Elec       q    Type
REMARK                         _______ _______ _______ _____ _____    ______ ____
ROOT
ATOM      1  C   UNL     1       1.783   7.684  20.018  0.00  0.00    +0.000 C 
ATOM      2  O   UNL     1       2.049   8.511  19.163  0.00  0.00    +0.000 OA
ATOM      3  N   UNL     1       0.996   7.880  21.147  0.00  0.00    +0.000 N 
ATOM      4  C   UNL     1       0.415   9.095  21.403  0.00  0.00    +0.000 A 
ATOM      5  N   UNL     1       0.208  10.097  20.595  0.00  0.00    +0.000 NA
ATOM      6  C   UNL     1      -0.342  11.158  21.284  0.00  0.00    +0.000 A 
ATOM      7  C   UNL     1      -0.509  10.946  22.638  0.00  0.00    +0.000 A 
ATOM      8  S   UNL     1      -0.084   9.324  23.022  0.00  0.00    +0.000 S 
ATOM      9  H   UNL     1       0.979   7.211  21.901  0.00  0.00    +0.000 HD
ENDROOT
BRANCH   6  10
ATOM     10  C   UNL     1      -0.683  12.385  20.553  0.00  0.00    +0.000 A 
ATOM     11  C   UNL     1      -1.948  12.841  20.242  0.00  0.00    +0.000 A 
ATOM     12  N   UNL     1      -1.811  14.030  19.573  0.00  0.00    +0.000 N 
ATOM     13  C   UNL     1      -0.479  14.333  19.405  0.00  0.00    +0.000 A 
ATOM     14  C   UNL     1       0.122  15.428  18.772  0.00  0.00    +0.000 A 
ATOM     15  C   UNL     1       1.519  15.470  18.731  0.00  0.00    +0.000 A 
ATOM     16  C   UNL     1       2.284  14.462  19.309  0.00  0.00    +0.000 A 
ATOM     17  C   UNL     1       1.667  13.388  19.954  0.00  0.00    +0.000 A 
ATOM     18  C   UNL     1       0.258  13.310  20.006  0.00  0.00    +0.000 A 
ATOM     19  H   UNL     1      -2.573  14.601  19.237  0.00  0.00    +0.000 HD
ENDBRANCH   6  10
BRANCH   1  24
ATOM     20  C   UNL     1       4.081   2.330  19.583  0.00  0.00    +0.000 C 
ATOM     21  C   UNL     1       3.531   3.729  19.654  0.00  0.00    +0.000 A 
ATOM     22  C   UNL     1       2.426   3.963  20.494  0.00  0.00    +0.000 A 
ATOM     23  C   UNL     1       1.860   5.240  20.616  0.00  0.00    +0.000 A 
ATOM     24  C   UNL     1       2.381   6.318  19.880  0.00  0.00    +0.000 A 
ATOM     25  C   UNL     1       3.494   6.101  19.063  0.00  0.00    +0.000 A 
ATOM     26  C   UNL     1       4.073   4.821  18.950  0.00  0.00    +0.000 A 
BRANCH  26  27
ATOM     27  S   UNL     1       5.494   4.672  17.863  0.00  0.00    +0.000 S 
ATOM     28  C   UNL     1       5.707   6.304  17.205  0.00  0.00    +0.000 C 
ATOM     29  O   UNL     1       6.660   4.345  18.653  0.00  0.00    +0.000 OA
ATOM     30  O   UNL     1       5.098   3.809  16.762  0.00  0.00    +0.000 OA
ENDBRANCH  26  27
ENDBRANCH   1  24
TORSDOF 3
ENDMDL
