MODEL 1
REMARK VINA RESULT:      -8.7      0.000      0.000
REMARK  Name = 
REMARK  5 active torsions:
REMARK  status: ('A' for Active; 'I' for Inactive)
REMARK    1  A    between atoms: C_2  and  C_16
REMARK    2  A    between atoms: N_3  and  C_4
REMARK    3  A    between atoms: C_4  and  C_5
REMARK    4  A    between atoms: C_5  and  C_6
REMARK    5  A    between atoms: C_16  and  C_17
REMARK                            x       y       z     vdW  Elec       q    Type
REMARK                         _______ _______ _______ _____ _____    ______ ____
ROOT
ATOM      1  O   UNL     1       2.339   6.699  20.112  0.00  0.00    +0.000 OA
ATOM      2  C   UNL     1       2.800   6.299  19.042  0.00  0.00    +0.000 C 
ATOM      3  N   UNL     1       2.906   7.139  17.952  0.00  0.00    +0.000 N 
ATOM      4  H   UNL     1       3.342   6.817  17.100  0.00  0.00    +0.000 HD
ENDROOT
BRANCH   2   5
ATOM      5  C   UNL     1       3.217   4.811  18.815  0.00  0.00    +0.000 C 
ATOM      6  C   UNL     1       2.165   4.205  17.836  0.00  0.00    +0.000 C 
ATOM      7  C   UNL     1       2.256   2.690  17.747  0.00  0.00    +0.000 C 
ATOM      8  O   UNL     1       2.067   2.112  19.035  0.00  0.00    +0.000 OA
ATOM      9  C   UNL     1       3.089   2.505  19.943  0.00  0.00    +0.000 C 
ATOM     10  C   UNL     1       3.083   4.019  20.147  0.00  0.00    +0.000 C 
BRANCH   5  11
ATOM     11  C   UNL     1       4.634   4.790  18.190  0.00  0.00    +0.000 A 
ATOM     12  C   UNL     1       4.876   4.451  16.847  0.00  0.00    +0.000 A 
ATOM     13  C   UNL     1       6.169   4.453  16.314  0.00  0.00    +0.000 A 
ATOM     14  C   UNL     1       7.257   4.771  17.118  0.00  0.00    +0.000 A 
ATOM     15  C   UNL     1       7.051   5.088  18.456  0.00  0.00    +0.000 A 
ATOM     16  C   UNL     1       5.757   5.098  18.985  0.00  0.00    +0.000 A 
ENDBRANCH   5  11
ENDBRANCH   2   5
BRANCH   3  17
ATOM     17  C   UNL     1       2.584   8.550  18.071  0.00  0.00    +0.000 C 
BRANCH  17  18
ATOM     18  C   UNL     1       1.204   8.903  17.512  0.00  0.00    +0.000 C 
BRANCH  18  19
ATOM     19  C   UNL     1       0.450   9.890  18.355  0.00  0.00    +0.000 A 
ATOM     20  C   UNL     1       0.924  10.538  19.481  0.00  0.00    +0.000 A 
ATOM     21  N   UNL     1      -0.066  11.350  19.965  0.00  0.00    +0.000 N 
ATOM     22  C   UNL     1      -1.189  11.245  19.183  0.00  0.00    +0.000 A 
ATOM     23  C   UNL     1      -2.434  11.876  19.302  0.00  0.00    +0.000 A 
ATOM     24  C   UNL     1      -3.401  11.562  18.349  0.00  0.00    +0.000 A 
ATOM     25  F   UNL     1      -4.605  12.143  18.431  0.00  0.00    +0.000 F 
ATOM     26  C   UNL     1      -3.154  10.664  17.320  0.00  0.00    +0.000 A 
ATOM     27  C   UNL     1      -1.905  10.042  17.214  0.00  0.00    +0.000 A 
ATOM     28  C   UNL     1      -0.901  10.336  18.162  0.00  0.00    +0.000 A 
ATOM     29  H   UNL     1       0.012  11.940  20.784  0.00  0.00    +0.000 HD
ENDBRANCH  18  19
ENDBRANCH  17  18
ENDBRANCH   3  17
TORSDOF 5
ENDMDL
MODEL 2
REMARK VINA RESULT:      -8.6      1.125      1.547
REMARK  Name = 
REMARK  5 active torsions:
REMARK  status: ('A' for Active; 'I' for Inactive)
REMARK    1  A    between atoms: C_2  and  C_16
REMARK    2  A    between atoms: N_3  and  C_4
REMARK    3  A    between atoms: C_4  and  C_5
REMARK    4  A    between atoms: C_5  and  C_6
REMARK    5  A    between atoms: C_16  and  C_17
REMARK                            x       y       z     vdW  Elec       q    Type
REMARK                         _______ _______ _______ _____ _____    ______ ____
ROOT
ATOM      1  O   UNL     1       3.613   7.708  17.426  0.00  0.00    +0.000 OA
ATOM      2  C   UNL     1       3.004   7.063  18.279  0.00  0.00    +0.000 C 
ATOM      3  N   UNL     1       2.111   7.676  19.134  0.00  0.00    +0.000 N 
ATOM      4  H   UNL     1       1.570   7.128  19.787  0.00  0.00    +0.000 HD
ENDROOT
BRANCH   2   5
ATOM      5  C   UNL     1       3.251   5.538  18.510  0.00  0.00    +0.000 C 
ATOM      6  C   UNL     1       2.133   4.787  17.724  0.00  0.00    +0.000 C 
ATOM      7  C   UNL     1       2.054   3.313  18.086  0.00  0.00    +0.000 C 
ATOM      8  O   UNL     1       1.809   3.164  19.482  0.00  0.00    +0.000 OA
ATOM      9  C   UNL     1       2.873   3.695  20.262  0.00  0.00    +0.000 C 
ATOM     10  C   UNL     1       3.037   5.194  20.011  0.00  0.00    +0.000 C 
BRANCH   5  11
ATOM     11  C   UNL     1       4.654   5.181  17.959  0.00  0.00    +0.000 A 
ATOM     12  C   UNL     1       5.836   5.346  18.702  0.00  0.00    +0.000 A 
ATOM     13  C   UNL     1       7.085   5.002  18.175  0.00  0.00    +0.000 A 
ATOM     14  C   UNL     1       7.186   4.507  16.880  0.00  0.00    +0.000 A 
ATOM     15  C   UNL     1       6.037   4.355  16.113  0.00  0.00    +0.000 A 
ATOM     16  C   UNL     1       4.788   4.687  16.645  0.00  0.00    +0.000 A 
ENDBRANCH   5  11
ENDBRANCH   2   5
BRANCH   3  17
ATOM     17  C   UNL     1       1.780   9.082  18.975  0.00  0.00    +0.000 C 
BRANCH  17  18
ATOM     18  C   UNL     1       0.691   9.330  17.929  0.00  0.00    +0.000 C 
BRANCH  18  19
ATOM     19  C   UNL     1      -0.428  10.199  18.423  0.00  0.00    +0.000 A 
ATOM     20  C   UNL     1      -0.453  10.910  19.609  0.00  0.00    +0.000 A 
ATOM     21  N   UNL     1      -1.647  11.572  19.696  0.00  0.00    +0.000 N 
ATOM     22  C   UNL     1      -2.417  11.304  18.591  0.00  0.00    +0.000 A 
ATOM     23  C   UNL     1      -3.703  11.750  18.258  0.00  0.00    +0.000 A 
ATOM     24  C   UNL     1      -4.241  11.298  17.055  0.00  0.00    +0.000 A 
ATOM     25  F   UNL     1      -5.470  11.700  16.703  0.00  0.00    +0.000 F 
ATOM     26  C   UNL     1      -3.545  10.444  16.212  0.00  0.00    +0.000 A 
ATOM     27  C   UNL     1      -2.261  10.008  16.559  0.00  0.00    +0.000 A 
ATOM     28  C   UNL     1      -1.683  10.445  17.770  0.00  0.00    +0.000 A 
ATOM     29  H   UNL     1      -1.930  12.167  20.464  0.00  0.00    +0.000 HD
ENDBRANCH  18  19
ENDBRANCH  17  18
ENDBRANCH   3  17
TORSDOF 5
ENDMDL
MODEL 3
REMARK VINA RESULT:      -8.6      2.549      3.976
REMARK  Name = 
REMARK  5 active torsions:
REMARK  status: ('A' for Active; 'I' for Inactive)
REMARK    1  A    between atoms: C_2  and  C_16
REMARK    2  A    between atoms: N_3  and  C_4
REMARK    3  A    between atoms: C_4  and  C_5
REMARK    4  A    between atoms: C_5  and  C_6
REMARK    5  A    between atoms: C_16  and  C_17
REMARK                            x       y       z     vdW  Elec       q    Type
REMARK                         _______ _______ _______ _____ _____    ______ ____
ROOT
ATOM      1  O   UNL     1       4.261   7.454  16.159  0.00  0.00    +0.000 OA
ATOM      2  C   UNL     1       4.220   6.608  17.053  0.00  0.00    +0.000 C 
ATOM      3  N   UNL     1       3.417   6.782  18.162  0.00  0.00    +0.000 N 
ATOM      4  H   UNL     1       3.343   6.054  18.858  0.00  0.00    +0.000 HD
ENDROOT
BRANCH   2   5
ATOM      5  C   UNL     1       5.120   5.332  17.040  0.00  0.00    +0.000 C 
ATOM      6  C   UNL     1       6.400   5.690  17.856  0.00  0.00    +0.000 C 
ATOM      7  C   UNL     1       7.505   4.660  17.690  0.00  0.00    +0.000 C 
ATOM      8  O   UNL     1       7.859   4.539  16.315  0.00  0.00    +0.000 OA
ATOM      9  C   UNL     1       6.771   4.065  15.532  0.00  0.00    +0.000 C 
ATOM     10  C   UNL     1       5.594   5.038  15.589  0.00  0.00    +0.000 C 
BRANCH   5  11
ATOM     11  C   UNL     1       4.338   4.176  17.712  0.00  0.00    +0.000 A 
ATOM     12  C   UNL     1       3.281   3.496  17.081  0.00  0.00    +0.000 A 
ATOM     13  C   UNL     1       2.604   2.449  17.715  0.00  0.00    +0.000 A 
ATOM     14  C   UNL     1       2.952   2.070  19.006  0.00  0.00    +0.000 A 
ATOM     15  C   UNL     1       3.978   2.739  19.663  0.00  0.00    +0.000 A 
ATOM     16  C   UNL     1       4.662   3.778  19.025  0.00  0.00    +0.000 A 
ENDBRANCH   5  11
ENDBRANCH   2   5
BRANCH   3  17
ATOM     17  C   UNL     1       2.511   7.914  18.251  0.00  0.00    +0.000 C 
BRANCH  17  18
ATOM     18  C   UNL     1       1.891   8.083  19.639  0.00  0.00    +0.000 C 
BRANCH  18  19
ATOM     19  C   UNL     1       1.031   9.307  19.767  0.00  0.00    +0.000 A 
ATOM     20  C   UNL     1       0.785  10.243  18.779  0.00  0.00    +0.000 A 
ATOM     21  N   UNL     1      -0.041  11.208  19.289  0.00  0.00    +0.000 N 
ATOM     22  C   UNL     1      -0.338  10.930  20.600  0.00  0.00    +0.000 A 
ATOM     23  C   UNL     1      -1.130  11.638  21.514  0.00  0.00    +0.000 A 
ATOM     24  C   UNL     1      -1.244  11.110  22.799  0.00  0.00    +0.000 A 
ATOM     25  F   UNL     1      -1.991  11.759  23.703  0.00  0.00    +0.000 F 
ATOM     26  C   UNL     1      -0.607   9.934  23.170  0.00  0.00    +0.000 A 
ATOM     27  C   UNL     1       0.180   9.239  22.244  0.00  0.00    +0.000 A 
ATOM     28  C   UNL     1       0.318   9.744  20.933  0.00  0.00    +0.000 A 
ATOM     29  H   UNL     1      -0.380  12.014  18.780  0.00  0.00    +0.000 HD
ENDBRANCH  18  19
ENDBRANCH  17  18
ENDBRANCH   3  17
TORSDOF 5
ENDMDL
MODEL 4
REMARK VINA RESULT:      -8.5      2.109      2.802
REMARK  Name = 
REMARK  5 active torsions:
REMARK  status: ('A' for Active; 'I' for Inactive)
REMARK    1  A    between atoms: C_2  and  C_16
REMARK    2  A    between atoms: N_3  and  C_4
REMARK    3  A    between atoms: C_4  and  C_5
REMARK    4  A    between atoms: C_5  and  C_6
REMARK    5  A    between atoms: C_16  and  C_17
REMARK                            x       y       z     vdW  Elec       q    Type
REMARK                         _______ _______ _______ _____ _____    ______ ____
ROOT
ATOM      1  O   UNL     1       1.584   5.303  17.642  0.00  0.00    +0.000 OA
ATOM      2  C   UNL     1       2.711   5.342  18.136  0.00  0.00    +0.000 C 
ATOM      3  N   UNL     1       3.255   6.531  18.580  0.00  0.00    +0.000 N 
ATOM      4  H   UNL     1       4.153   6.541  19.040  0.00  0.00    +0.000 HD
ENDROOT
BRANCH   2   5
ATOM      5  C   UNL     1       3.632   4.084  18.222  0.00  0.00    +0.000 C 
ATOM      6  C   UNL     1       2.797   2.890  17.665  0.00  0.00    +0.000 C 
ATOM      7  C   UNL     1       3.440   1.543  17.954  0.00  0.00    +0.000 C 
ATOM      8  O   UNL     1       3.603   1.370  19.359  0.00  0.00    +0.000 OA
ATOM      9  C   UNL     1       4.483   2.341  19.910  0.00  0.00    +0.000 C 
ATOM     10  C   UNL     1       3.929   3.752  19.712  0.00  0.00    +0.000 C 
BRANCH   5  11
ATOM     11  C   UNL     1       4.889   4.336  17.353  0.00  0.00    +0.000 A 
ATOM     12  C   UNL     1       6.160   4.590  17.897  0.00  0.00    +0.000 A 
ATOM     13  C   UNL     1       7.275   4.803  17.081  0.00  0.00    +0.000 A 
ATOM     14  C   UNL     1       7.143   4.793  15.697  0.00  0.00    +0.000 A 
ATOM     15  C   UNL     1       5.893   4.568  15.130  0.00  0.00    +0.000 A 
ATOM     16  C   UNL     1       4.781   4.343  15.947  0.00  0.00    +0.000 A 
ENDBRANCH   5  11
ENDBRANCH   2   5
BRANCH   3  17
ATOM     17  C   UNL     1       2.465   7.751  18.582  0.00  0.00    +0.000 C 
BRANCH  17  18
ATOM     18  C   UNL     1       1.804   8.039  19.931  0.00  0.00    +0.000 C 
BRANCH  18  19
ATOM     19  C   UNL     1       0.985   9.297  19.941  0.00  0.00    +0.000 A 
ATOM     20  C   UNL     1       0.823  10.178  18.887  0.00  0.00    +0.000 A 
ATOM     21  N   UNL     1       0.009  11.200  19.295  0.00  0.00    +0.000 N 
ATOM     22  C   UNL     1      -0.363  11.014  20.603  0.00  0.00    +0.000 A 
ATOM     23  C   UNL     1      -1.172  11.802  21.432  0.00  0.00    +0.000 A 
ATOM     24  C   UNL     1      -1.370  11.358  22.738  0.00  0.00    +0.000 A 
ATOM     25  F   UNL     1      -2.135  12.087  23.562  0.00  0.00    +0.000 F 
ATOM     26  C   UNL     1      -0.795  10.187  23.211  0.00  0.00    +0.000 A 
ATOM     27  C   UNL     1       0.010   9.410  22.371  0.00  0.00    +0.000 A 
ATOM     28  C   UNL     1       0.232   9.828  21.041  0.00  0.00    +0.000 A 
ATOM     29  H   UNL     1      -0.275  11.984  18.722  0.00  0.00    +0.000 HD
ENDBRANCH  18  19
ENDBRANCH  17  18
ENDBRANCH   3  17
TORSDOF 5
ENDMDL
MODEL 5
REMARK VINA RESULT:      -8.4      2.109      2.360
REMARK  Name = 
REMARK  5 active torsions:
REMARK  status: ('A' for Active; 'I' for Inactive)
REMARK    1  A    between atoms: C_2  and  C_16
REMARK    2  A    between atoms: N_3  and  C_4
REMARK    3  A    between atoms: C_4  and  C_5
REMARK    4  A    between atoms: C_5  and  C_6
REMARK    5  A    between atoms: C_16  and  C_17
REMARK                            x       y       z     vdW  Elec       q    Type
REMARK                         _______ _______ _______ _____ _____    ______ ____
ROOT
ATOM      1  O   UNL     1       2.546   6.586  19.795  0.00  0.00    +0.000 OA
ATOM      2  C   UNL     1       3.045   6.169  18.749  0.00  0.00    +0.000 C 
ATOM      3  N   UNL     1       3.251   7.009  17.673  0.00  0.00    +0.000 N 
ATOM      4  H   UNL     1       3.718   6.670  16.844  0.00  0.00    +0.000 HD
ENDROOT
BRANCH   2   5
ATOM      5  C   UNL     1       3.400   4.664  18.533  0.00  0.00    +0.000 C 
ATOM      6  C   UNL     1       2.241   4.056  17.686  0.00  0.00    +0.000 C 
ATOM      7  C   UNL     1       2.285   2.537  17.640  0.00  0.00    +0.000 C 
ATOM      8  O   UNL     1       2.213   2.006  18.960  0.00  0.00    +0.000 OA
ATOM      9  C   UNL     1       3.330   2.400  19.747  0.00  0.00    +0.000 C 
ATOM     10  C   UNL     1       3.381   3.919  19.898  0.00  0.00    +0.000 C 
BRANCH   5  11
ATOM     11  C   UNL     1       4.746   4.584  17.771  0.00  0.00    +0.000 A 
ATOM     12  C   UNL     1       4.838   4.257  16.407  0.00  0.00    +0.000 A 
ATOM     13  C   UNL     1       6.071   4.204  15.749  0.00  0.00    +0.000 A 
ATOM     14  C   UNL     1       7.247   4.453  16.445  0.00  0.00    +0.000 A 
ATOM     15  C   UNL     1       7.190   4.756  17.800  0.00  0.00    +0.000 A 
ATOM     16  C   UNL     1       5.956   4.821  18.455  0.00  0.00    +0.000 A 
ENDBRANCH   5  11
ENDBRANCH   2   5
BRANCH   3  17
ATOM     17  C   UNL     1       2.993   8.434  17.785  0.00  0.00    +0.000 C 
BRANCH  17  18
ATOM     18  C   UNL     1       1.502   8.778  17.782  0.00  0.00    +0.000 C 
BRANCH  18  19
ATOM     19  C   UNL     1       1.149   9.926  18.682  0.00  0.00    +0.000 A 
ATOM     20  C   UNL     1       1.345  11.269  18.414  0.00  0.00    +0.000 A 
ATOM     21  N   UNL     1       0.898  11.996  19.483  0.00  0.00    +0.000 N 
ATOM     22  C   UNL     1       0.417  11.157  20.457  0.00  0.00    +0.000 A 
ATOM     23  C   UNL     1      -0.126  11.453  21.714  0.00  0.00    +0.000 A 
ATOM     24  C   UNL     1      -0.528  10.377  22.503  0.00  0.00    +0.000 A 
ATOM     25  F   UNL     1      -1.050  10.619  23.713  0.00  0.00    +0.000 F 
ATOM     26  C   UNL     1      -0.403   9.063  22.074  0.00  0.00    +0.000 A 
ATOM     27  C   UNL     1       0.141   8.784  20.815  0.00  0.00    +0.000 A 
ATOM     28  C   UNL     1       0.559   9.850  19.988  0.00  0.00    +0.000 A 
ATOM     29  H   UNL     1       0.922  13.005  19.552  0.00  0.00    +0.000 HD
ENDBRANCH  18  19
ENDBRANCH  17  18
ENDBRANCH   3  17
TORSDOF 5
ENDMDL
MODEL 6
REMARK VINA RESULT:      -8.3      1.285      3.145
REMARK  Name = 
REMARK  5 active torsions:
REMARK  status: ('A' for Active; 'I' for Inactive)
REMARK    1  A    between atoms: C_2  and  C_16
REMARK    2  A    between atoms: N_3  and  C_4
REMARK    3  A    between atoms: C_4  and  C_5
REMARK    4  A    between atoms: C_5  and  C_6
REMARK    5  A    between atoms: C_16  and  C_17
REMARK                            x       y       z     vdW  Elec       q    Type
REMARK                         _______ _______ _______ _____ _____    ______ ____
ROOT
ATOM      1  O   UNL     1       2.232   7.061  19.861  0.00  0.00    +0.000 OA
ATOM      2  C   UNL     1       2.872   6.832  18.835  0.00  0.00    +0.000 C 
ATOM      3  N   UNL     1       2.939   7.759  17.814  0.00  0.00    +0.000 N 
ATOM      4  H   UNL     1       3.518   7.586  17.005  0.00  0.00    +0.000 HD
ENDROOT
BRANCH   2   5
ATOM      5  C   UNL     1       3.579   5.464  18.577  0.00  0.00    +0.000 C 
ATOM      6  C   UNL     1       4.930   5.513  19.354  0.00  0.00    +0.000 C 
ATOM      7  C   UNL     1       5.869   4.381  18.968  0.00  0.00    +0.000 C 
ATOM      8  O   UNL     1       6.143   4.429  17.571  0.00  0.00    +0.000 OA
ATOM      9  C   UNL     1       4.967   4.235  16.796  0.00  0.00    +0.000 C 
ATOM     10  C   UNL     1       3.946   5.338  17.071  0.00  0.00    +0.000 C 
BRANCH   5  11
ATOM     11  C   UNL     1       2.669   4.333  19.117  0.00  0.00    +0.000 A 
ATOM     12  C   UNL     1       2.749   3.846  20.434  0.00  0.00    +0.000 A 
ATOM     13  C   UNL     1       1.903   2.831  20.891  0.00  0.00    +0.000 A 
ATOM     14  C   UNL     1       0.970   2.259  20.034  0.00  0.00    +0.000 A 
ATOM     15  C   UNL     1       0.882   2.704  18.720  0.00  0.00    +0.000 A 
ATOM     16  C   UNL     1       1.720   3.727  18.268  0.00  0.00    +0.000 A 
ENDBRANCH   5  11
ENDBRANCH   2   5
BRANCH   3  17
ATOM     17  C   UNL     1       2.351   9.078  17.972  0.00  0.00    +0.000 C 
BRANCH  17  18
ATOM     18  C   UNL     1       0.868   9.125  17.599  0.00  0.00    +0.000 C 
BRANCH  18  19
ATOM     19  C   UNL     1       0.080  10.122  18.396  0.00  0.00    +0.000 A 
ATOM     20  C   UNL     1       0.540  10.859  19.472  0.00  0.00    +0.000 A 
ATOM     21  N   UNL     1      -0.481  11.649  19.928  0.00  0.00    +0.000 N 
ATOM     22  C   UNL     1      -1.611  11.441  19.176  0.00  0.00    +0.000 A 
ATOM     23  C   UNL     1      -2.884  12.016  19.284  0.00  0.00    +0.000 A 
ATOM     24  C   UNL     1      -3.850  11.598  18.372  0.00  0.00    +0.000 A 
ATOM     25  F   UNL     1      -5.081  12.122  18.444  0.00  0.00    +0.000 F 
ATOM     26  C   UNL     1      -3.577  10.652  17.393  0.00  0.00    +0.000 A 
ATOM     27  C   UNL     1      -2.300  10.088  17.298  0.00  0.00    +0.000 A 
ATOM     28  C   UNL     1      -1.295  10.488  18.205  0.00  0.00    +0.000 A 
ATOM     29  H   UNL     1      -0.418  12.290  20.708  0.00  0.00    +0.000 HD
ENDBRANCH  18  19
ENDBRANCH  17  18
ENDBRANCH   3  17
TORSDOF 5
ENDMDL
MODEL 7
REMARK VINA RESULT:      -8.2      1.946      2.294
REMARK  Name = 
REMARK  5 active torsions:
REMARK  status: ('A' for Active; 'I' for Inactive)
REMARK    1  A    between atoms: C_2  and  C_16
REMARK    2  A    between atoms: N_3  and  C_4
REMARK    3  A    between atoms: C_4  and  C_5
REMARK    4  A    between atoms: C_5  and  C_6
REMARK    5  A    between atoms: C_16  and  C_17
REMARK                            x       y       z     vdW  Elec       q    Type
REMARK                         _______ _______ _______ _____ _____    ______ ____
ROOT
ATOM      1  O   UNL     1       2.381   7.046  18.081  0.00  0.00    +0.000 OA
ATOM      2  C   UNL     1       2.495   6.272  19.032  0.00  0.00    +0.000 C 
ATOM      3  N   UNL     1       2.221   6.681  20.322  0.00  0.00    +0.000 N 
ATOM      4  H   UNL     1       2.257   6.022  21.086  0.00  0.00    +0.000 HD
ENDROOT
BRANCH   2   5
ATOM      5  C   UNL     1       3.030   4.814  18.866  0.00  0.00    +0.000 C 
ATOM      6  C   UNL     1       2.042   4.092  17.899  0.00  0.00    +0.000 C 
ATOM      7  C   UNL     1       2.252   2.586  17.867  0.00  0.00    +0.000 C 
ATOM      8  O   UNL     1       2.091   2.043  19.174  0.00  0.00    +0.000 OA
ATOM      9  C   UNL     1       3.065   2.548  20.078  0.00  0.00    +0.000 C 
ATOM     10  C   UNL     1       2.939   4.063  20.225  0.00  0.00    +0.000 C 
BRANCH   5  11
ATOM     11  C   UNL     1       4.453   4.881  18.259  0.00  0.00    +0.000 A 
ATOM     12  C   UNL     1       4.718   4.653  16.897  0.00  0.00    +0.000 A 
ATOM     13  C   UNL     1       6.015   4.732  16.381  0.00  0.00    +0.000 A 
ATOM     14  C   UNL     1       7.086   5.018  17.220  0.00  0.00    +0.000 A 
ATOM     15  C   UNL     1       6.858   5.226  18.575  0.00  0.00    +0.000 A 
ATOM     16  C   UNL     1       5.559   5.158  19.088  0.00  0.00    +0.000 A 
ENDBRANCH   5  11
ENDBRANCH   2   5
BRANCH   3  17
ATOM     17  C   UNL     1       1.679   8.004  20.579  0.00  0.00    +0.000 C 
BRANCH  17  18
ATOM     18  C   UNL     1       0.304   7.973  21.249  0.00  0.00    +0.000 C 
BRANCH  18  19
ATOM     19  C   UNL     1      -0.147   9.312  21.755  0.00  0.00    +0.000 A 
ATOM     20  C   UNL     1      -0.408   9.646  23.072  0.00  0.00    +0.000 A 
ATOM     21  N   UNL     1      -0.800  10.957  23.120  0.00  0.00    +0.000 N 
ATOM     22  C   UNL     1      -0.809  11.493  21.857  0.00  0.00    +0.000 A 
ATOM     23  C   UNL     1      -1.148  12.783  21.427  0.00  0.00    +0.000 A 
ATOM     24  C   UNL     1      -1.069  13.040  20.060  0.00  0.00    +0.000 A 
ATOM     25  F   UNL     1      -1.388  14.261  19.610  0.00  0.00    +0.000 F 
ATOM     26  C   UNL     1      -0.673  12.069  19.151  0.00  0.00    +0.000 A 
ATOM     27  C   UNL     1      -0.337  10.785  19.596  0.00  0.00    +0.000 A 
ATOM     28  C   UNL     1      -0.405  10.489  20.975  0.00  0.00    +0.000 A 
ATOM     29  H   UNL     1      -1.052  11.459  23.961  0.00  0.00    +0.000 HD
ENDBRANCH  18  19
ENDBRANCH  17  18
ENDBRANCH   3  17
TORSDOF 5
ENDMDL
MODEL 8
REMARK VINA RESULT:      -8.2      1.477      2.925
REMARK  Name = 
REMARK  5 active torsions:
REMARK  status: ('A' for Active; 'I' for Inactive)
REMARK    1  A    between atoms: C_2  and  C_16
REMARK    2  A    between atoms: N_3  and  C_4
REMARK    3  A    between atoms: C_4  and  C_5
REMARK    4  A    between atoms: C_5  and  C_6
REMARK    5  A    between atoms: C_16  and  C_17
REMARK                            x       y       z     vdW  Elec       q    Type
REMARK                         _______ _______ _______ _____ _____    ______ ____
ROOT
ATOM      1  O   UNL     1       2.880   6.196  20.022  0.00  0.00    +0.000 OA
ATOM      2  C   UNL     1       3.301   6.487  18.902  0.00  0.00    +0.000 C 
ATOM      3  N   UNL     1       2.795   7.568  18.208  0.00  0.00    +0.000 N 
ATOM      4  H   UNL     1       3.191   7.835  17.319  0.00  0.00    +0.000 HD
ENDROOT
BRANCH   2   5
ATOM      5  C   UNL     1       4.366   5.622  18.157  0.00  0.00    +0.000 C 
ATOM      6  C   UNL     1       5.718   5.855  18.897  0.00  0.00    +0.000 C 
ATOM      7  C   UNL     1       6.910   5.319  18.120  0.00  0.00    +0.000 C 
ATOM      8  O   UNL     1       6.978   5.940  16.840  0.00  0.00    +0.000 OA
ATOM      9  C   UNL     1       5.836   5.640  16.048  0.00  0.00    +0.000 C 
ATOM     10  C   UNL     1       4.561   6.160  16.711  0.00  0.00    +0.000 C 
BRANCH   5  11
ATOM     11  C   UNL     1       3.935   4.136  18.241  0.00  0.00    +0.000 A 
ATOM     12  C   UNL     1       3.016   3.552  17.352  0.00  0.00    +0.000 A 
ATOM     13  C   UNL     1       2.658   2.204  17.452  0.00  0.00    +0.000 A 
ATOM     14  C   UNL     1       3.191   1.411  18.460  0.00  0.00    +0.000 A 
ATOM     15  C   UNL     1       4.085   1.966  19.368  0.00  0.00    +0.000 A 
ATOM     16  C   UNL     1       4.452   3.311  19.260  0.00  0.00    +0.000 A 
ENDBRANCH   5  11
ENDBRANCH   2   5
BRANCH   3  17
ATOM     17  C   UNL     1       1.831   8.461  18.830  0.00  0.00    +0.000 C 
BRANCH  17  18
ATOM     18  C   UNL     1       1.457   9.653  17.947  0.00  0.00    +0.000 C 
BRANCH  18  19
ATOM     19  C   UNL     1       0.326  10.474  18.496  0.00  0.00    +0.000 A 
ATOM     20  C   UNL     1       0.401  11.377  19.541  0.00  0.00    +0.000 A 
ATOM     21  N   UNL     1      -0.842  11.915  19.741  0.00  0.00    +0.000 N 
ATOM     22  C   UNL     1      -1.738  11.377  18.851  0.00  0.00    +0.000 A 
ATOM     23  C   UNL     1      -3.109  11.620  18.694  0.00  0.00    +0.000 A 
ATOM     24  C   UNL     1      -3.771  10.909  17.695  0.00  0.00    +0.000 A 
ATOM     25  F   UNL     1      -5.083  11.111  17.516  0.00  0.00    +0.000 F 
ATOM     26  C   UNL     1      -3.113   9.996  16.883  0.00  0.00    +0.000 A 
ATOM     27  C   UNL     1      -1.743   9.765  17.052  0.00  0.00    +0.000 A 
ATOM     28  C   UNL     1      -1.039  10.468  18.054  0.00  0.00    +0.000 A 
ATOM     29  H   UNL     1      -1.072  12.604  20.445  0.00  0.00    +0.000 HD
ENDBRANCH  18  19
ENDBRANCH  17  18
ENDBRANCH   3  17
TORSDOF 5
ENDMDL
MODEL 9
REMARK VINA RESULT:      -8.1      2.142      3.644
REMARK  Name = 
REMARK  5 active torsions:
REMARK  status: ('A' for Active; 'I' for Inactive)
REMARK    1  A    between atoms: C_2  and  C_16
REMARK    2  A    between atoms: N_3  and  C_4
REMARK    3  A    between atoms: C_4  and  C_5
REMARK    4  A    between atoms: C_5  and  C_6
REMARK    5  A    between atoms: C_16  and  C_17
REMARK                            x       y       z     vdW  Elec       q    Type
REMARK                         _______ _______ _______ _____ _____    ______ ____
ROOT
ATOM      1  O   UNL     1       4.026   7.566  16.922  0.00  0.00    +0.000 OA
ATOM      2  C   UNL     1       4.041   6.573  17.650  0.00  0.00    +0.000 C 
ATOM      3  N   UNL     1       3.284   6.523  18.804  0.00  0.00    +0.000 N 
ATOM      4  H   UNL     1       3.255   5.680  19.359  0.00  0.00    +0.000 HD
ENDROOT
BRANCH   2   5
ATOM      5  C   UNL     1       4.966   5.346  17.374  0.00  0.00    +0.000 C 
ATOM      6  C   UNL     1       6.300   5.621  18.135  0.00  0.00    +0.000 C 
ATOM      7  C   UNL     1       7.411   4.667  17.729  0.00  0.00    +0.000 C 
ATOM      8  O   UNL     1       7.655   4.767  16.329  0.00  0.00    +0.000 OA
ATOM      9  C   UNL     1       6.519   4.380  15.568  0.00  0.00    +0.000 C 
ATOM     10  C   UNL     1       5.329   5.291  15.863  0.00  0.00    +0.000 C 
BRANCH   5  11
ATOM     11  C   UNL     1       4.268   4.075  17.918  0.00  0.00    +0.000 A 
ATOM     12  C   UNL     1       4.638   3.452  19.123  0.00  0.00    +0.000 A 
ATOM     13  C   UNL     1       3.978   2.310  19.589  0.00  0.00    +0.000 A 
ATOM     14  C   UNL     1       2.946   1.747  18.848  0.00  0.00    +0.000 A 
ATOM     15  C   UNL     1       2.573   2.328  17.641  0.00  0.00    +0.000 A 
ATOM     16  C   UNL     1       3.226   3.476  17.182  0.00  0.00    +0.000 A 
ENDBRANCH   5  11
ENDBRANCH   2   5
BRANCH   3  17
ATOM     17  C   UNL     1       2.359   7.595  19.129  0.00  0.00    +0.000 C 
BRANCH  17  18
ATOM     18  C   UNL     1       1.670   7.407  20.482  0.00  0.00    +0.000 C 
BRANCH  18  19
ATOM     19  C   UNL     1       1.010   8.653  20.997  0.00  0.00    +0.000 A 
ATOM     20  C   UNL     1       0.982   9.083  22.311  0.00  0.00    +0.000 A 
ATOM     21  N   UNL     1       0.278  10.256  22.370  0.00  0.00    +0.000 N 
ATOM     22  C   UNL     1      -0.167  10.604  21.119  0.00  0.00    +0.000 A 
ATOM     23  C   UNL     1      -0.927  11.706  20.706  0.00  0.00    +0.000 A 
ATOM     24  C   UNL     1      -1.239  11.792  19.351  0.00  0.00    +0.000 A 
ATOM     25  F   UNL     1      -1.967  12.831  18.918  0.00  0.00    +0.000 F 
ATOM     26  C   UNL     1      -0.821  10.835  18.438  0.00  0.00    +0.000 A 
ATOM     27  C   UNL     1      -0.062   9.739  18.866  0.00  0.00    +0.000 A 
ATOM     28  C   UNL     1       0.274   9.619  20.232  0.00  0.00    +0.000 A 
ATOM     29  H   UNL     1       0.104  10.789  23.212  0.00  0.00    +0.000 HD
ENDBRANCH  18  19
ENDBRANCH  17  18
ENDBRANCH   3  17
TORSDOF 5
ENDMDL
