MODEL 1
REMARK VINA RESULT:      -9.9      0.000      0.000
REMARK  Name = 
REMARK  3 active torsions:
REMARK  status: ('A' for Active; 'I' for Inactive)
REMARK    1  A    between atoms: C_1  and  C_2
REMARK    2  A    between atoms: C_6  and  C_7
REMARK    3  A    between atoms: C_11  and  C_12
REMARK                            x       y       z     vdW  Elec       q    Type
REMARK                         _______ _______ _______ _____ _____    ______ ____
ROOT
ATOM      1  C   UNL     1       3.245   4.236  17.363  0.00  0.00    +0.000 C 
ATOM      2  O   UNL     1       2.469   3.587  16.667  0.00  0.00    +0.000 OA
ATOM      3  N   UNL     1       4.571   4.509  16.985  0.00  0.00    +0.000 N 
ATOM      4  C   UNL     1       5.028   3.945  15.713  0.00  0.00    +0.000 C 
ATOM      5  C   UNL     1       6.555   3.851  15.626  0.00  0.00    +0.000 C 
ATOM      6  C   UNL     1       7.245   5.163  16.011  0.00  0.00    +0.000 C 
ATOM      7  C   UNL     1       6.738   5.654  17.366  0.00  0.00    +0.000 C 
ATOM      8  C   UNL     1       5.216   5.777  17.362  0.00  0.00    +0.000 C 
ATOM      9  N   UNL     1       7.250   4.824  18.444  0.00  0.00    +0.000 N 
ATOM     10  C   UNL     1       8.142   5.502  19.236  0.00  0.00    +0.000 C 
ATOM     11  O   UNL     1       8.819   5.003  20.114  0.00  0.00    +0.000 OA
ATOM     12  N   UNL     1       8.143   6.802  18.865  0.00  0.00    +0.000 N 
ATOM     13  C   UNL     1       7.359   6.992  17.772  0.00  0.00    +0.000 C 
ATOM     14  O   UNL     1       7.191   8.063  17.206  0.00  0.00    +0.000 OA
ATOM     15  H   UNL     1       7.138   3.819  18.517  0.00  0.00    +0.000 HD
ATOM     16  H   UNL     1       8.689   7.516  19.316  0.00  0.00    +0.000 HD
ENDROOT
BRANCH   1  21
ATOM     17  C   UNL     1       1.848   6.584  20.021  0.00  0.00    +0.000 A 
ATOM     18  C   UNL     1       1.744   5.673  21.090  0.00  0.00    +0.000 A 
ATOM     19  C   UNL     1       2.175   4.347  20.972  0.00  0.00    +0.000 A 
ATOM     20  C   UNL     1       2.686   3.881  19.763  0.00  0.00    +0.000 A 
ATOM     21  C   UNL     1       2.760   4.751  18.673  0.00  0.00    +0.000 A 
ATOM     22  C   UNL     1       2.393   6.096  18.820  0.00  0.00    +0.000 A 
BRANCH  17  28
ATOM     23  C   UNL     1      -0.306  10.256  22.723  0.00  0.00    +0.000 C 
ATOM     24  C   UNL     1       0.356   9.800  21.456  0.00  0.00    +0.000 A 
ATOM     25  C   UNL     1       0.518  10.675  20.382  0.00  0.00    +0.000 A 
ATOM     26  C   UNL     1       1.113  10.231  19.206  0.00  0.00    +0.000 A 
ATOM     27  C   UNL     1       1.543   8.905  19.090  0.00  0.00    +0.000 A 
ATOM     28  C   UNL     1       1.399   7.991  20.148  0.00  0.00    +0.000 A 
ATOM     29  C   UNL     1       0.805   8.473  21.331  0.00  0.00    +0.000 A 
ENDBRANCH  17  28
ENDBRANCH   1  21
TORSDOF 2
ENDMDL
MODEL 2
REMARK VINA RESULT:      -9.5      0.322      1.329
REMARK  Name = 
REMARK  3 active torsions:
REMARK  status: ('A' for Active; 'I' for Inactive)
REMARK    1  A    between atoms: C_1  and  C_2
REMARK    2  A    between atoms: C_6  and  C_7
REMARK    3  A    between atoms: C_11  and  C_12
REMARK                            x       y       z     vdW  Elec       q    Type
REMARK                         _______ _______ _______ _____ _____    ______ ____
ROOT
ATOM      1  C   UNL     1       3.241   4.201  17.355  0.00  0.00    +0.000 C 
ATOM      2  O   UNL     1       2.470   3.555  16.649  0.00  0.00    +0.000 OA
ATOM      3  N   UNL     1       4.561   4.499  16.977  0.00  0.00    +0.000 N 
ATOM      4  C   UNL     1       5.020   3.967  15.692  0.00  0.00    +0.000 C 
ATOM      5  C   UNL     1       6.547   3.895  15.595  0.00  0.00    +0.000 C 
ATOM      6  C   UNL     1       7.222   5.208  16.004  0.00  0.00    +0.000 C 
ATOM      7  C   UNL     1       6.715   5.665  17.371  0.00  0.00    +0.000 C 
ATOM      8  C   UNL     1       5.192   5.767  17.376  0.00  0.00    +0.000 C 
ATOM      9  N   UNL     1       7.243   4.820  18.429  0.00  0.00    +0.000 N 
ATOM     10  C   UNL     1       8.130   5.493  19.230  0.00  0.00    +0.000 C 
ATOM     11  O   UNL     1       8.818   4.986  20.095  0.00  0.00    +0.000 OA
ATOM     12  N   UNL     1       8.112   6.801  18.886  0.00  0.00    +0.000 N 
ATOM     13  C   UNL     1       7.320   7.002  17.801  0.00  0.00    +0.000 C 
ATOM     14  O   UNL     1       7.135   8.083  17.258  0.00  0.00    +0.000 OA
ATOM     15  H   UNL     1       7.145   3.813  18.482  0.00  0.00    +0.000 HD
ATOM     16  H   UNL     1       8.651   7.513  19.349  0.00  0.00    +0.000 HD
ENDROOT
BRANCH   1  21
ATOM     17  C   UNL     1       1.897   6.495  20.086  0.00  0.00    +0.000 A 
ATOM     18  C   UNL     1       1.738   5.548  21.115  0.00  0.00    +0.000 A 
ATOM     19  C   UNL     1       2.117   4.211  20.950  0.00  0.00    +0.000 A 
ATOM     20  C   UNL     1       2.628   3.773  19.730  0.00  0.00    +0.000 A 
ATOM     21  C   UNL     1       2.756   4.682  18.677  0.00  0.00    +0.000 A 
ATOM     22  C   UNL     1       2.441   6.035  18.874  0.00  0.00    +0.000 A 
BRANCH  17  28
ATOM     23  C   UNL     1       1.489  11.176  18.256  0.00  0.00    +0.000 C 
ATOM     24  C   UNL     1       1.289  10.205  19.383  0.00  0.00    +0.000 A 
ATOM     25  C   UNL     1       0.773  10.631  20.607  0.00  0.00    +0.000 A 
ATOM     26  C   UNL     1       0.616   9.724  21.649  0.00  0.00    +0.000 A 
ATOM     27  C   UNL     1       0.981   8.384  21.480  0.00  0.00    +0.000 A 
ATOM     28  C   UNL     1       1.503   7.914  20.263  0.00  0.00    +0.000 A 
ATOM     29  C   UNL     1       1.639   8.854  19.221  0.00  0.00    +0.000 A 
ENDBRANCH  17  28
ENDBRANCH   1  21
TORSDOF 2
ENDMDL
MODEL 3
REMARK VINA RESULT:      -9.0      2.670      7.743
REMARK  Name = 
REMARK  3 active torsions:
REMARK  status: ('A' for Active; 'I' for Inactive)
REMARK    1  A    between atoms: C_1  and  C_2
REMARK    2  A    between atoms: C_6  and  C_7
REMARK    3  A    between atoms: C_11  and  C_12
REMARK                            x       y       z     vdW  Elec       q    Type
REMARK                         _______ _______ _______ _____ _____    ______ ____
ROOT
ATOM      1  C   UNL     1       4.250   6.890  18.079  0.00  0.00    +0.000 C 
ATOM      2  O   UNL     1       4.332   8.092  17.841  0.00  0.00    +0.000 OA
ATOM      3  N   UNL     1       3.181   6.319  18.791  0.00  0.00    +0.000 N 
ATOM      4  C   UNL     1       2.153   7.235  19.292  0.00  0.00    +0.000 C 
ATOM      5  C   UNL     1       1.340   6.635  20.443  0.00  0.00    +0.000 C 
ATOM      6  C   UNL     1       0.822   5.229  20.124  0.00  0.00    +0.000 C 
ATOM      7  C   UNL     1       1.967   4.335  19.651  0.00  0.00    +0.000 C 
ATOM      8  C   UNL     1       2.696   4.968  18.469  0.00  0.00    +0.000 C 
ATOM      9  N   UNL     1       2.846   3.988  20.756  0.00  0.00    +0.000 N 
ATOM     10  C   UNL     1       2.769   2.656  21.075  0.00  0.00    +0.000 C 
ATOM     11  O   UNL     1       3.290   2.136  22.043  0.00  0.00    +0.000 OA
ATOM     12  N   UNL     1       2.015   2.033  20.141  0.00  0.00    +0.000 N 
ATOM     13  C   UNL     1       1.491   2.932  19.268  0.00  0.00    +0.000 C 
ATOM     14  O   UNL     1       0.752   2.654  18.333  0.00  0.00    +0.000 OA
ATOM     15  H   UNL     1       3.318   4.648  21.362  0.00  0.00    +0.000 HD
ATOM     16  H   UNL     1       1.835   1.044  20.130  0.00  0.00    +0.000 HD
ENDROOT
BRANCH   1  21
ATOM     17  C   UNL     1       6.539   4.925  15.749  0.00  0.00    +0.000 A 
ATOM     18  C   UNL     1       7.448   4.424  16.699  0.00  0.00    +0.000 A 
ATOM     19  C   UNL     1       7.288   4.663  18.069  0.00  0.00    +0.000 A 
ATOM     20  C   UNL     1       6.232   5.450  18.524  0.00  0.00    +0.000 A 
ATOM     21  C   UNL     1       5.340   5.996  17.599  0.00  0.00    +0.000 A 
ATOM     22  C   UNL     1       5.466   5.692  16.236  0.00  0.00    +0.000 A 
BRANCH  17  28
ATOM     23  C   UNL     1       5.283   2.344  11.603  0.00  0.00    +0.000 C 
ATOM     24  C   UNL     1       6.096   3.420  12.260  0.00  0.00    +0.000 A 
ATOM     25  C   UNL     1       7.033   4.152  11.530  0.00  0.00    +0.000 A 
ATOM     26  C   UNL     1       7.796   5.130  12.159  0.00  0.00    +0.000 A 
ATOM     27  C   UNL     1       7.635   5.379  13.526  0.00  0.00    +0.000 A 
ATOM     28  C   UNL     1       6.703   4.665  14.298  0.00  0.00    +0.000 A 
ATOM     29  C   UNL     1       5.935   3.689  13.631  0.00  0.00    +0.000 A 
ENDBRANCH  17  28
ENDBRANCH   1  21
TORSDOF 2
ENDMDL
MODEL 4
REMARK VINA RESULT:      -9.0      0.939      1.247
REMARK  Name = 
REMARK  3 active torsions:
REMARK  status: ('A' for Active; 'I' for Inactive)
REMARK    1  A    between atoms: C_1  and  C_2
REMARK    2  A    between atoms: C_6  and  C_7
REMARK    3  A    between atoms: C_11  and  C_12
REMARK                            x       y       z     vdW  Elec       q    Type
REMARK                         _______ _______ _______ _____ _____    ______ ____
ROOT
ATOM      1  C   UNL     1       2.893   4.807  17.529  0.00  0.00    +0.000 C 
ATOM      2  O   UNL     1       2.049   4.163  16.911  0.00  0.00    +0.000 OA
ATOM      3  N   UNL     1       4.263   4.775  17.217  0.00  0.00    +0.000 N 
ATOM      4  C   UNL     1       4.675   3.891  16.123  0.00  0.00    +0.000 C 
ATOM      5  C   UNL     1       6.163   3.533  16.184  0.00  0.00    +0.000 C 
ATOM      6  C   UNL     1       7.055   4.766  16.360  0.00  0.00    +0.000 C 
ATOM      7  C   UNL     1       6.578   5.603  17.545  0.00  0.00    +0.000 C 
ATOM      8  C   UNL     1       5.104   5.970  17.390  0.00  0.00    +0.000 C 
ATOM      9  N   UNL     1       6.882   4.942  18.804  0.00  0.00    +0.000 N 
ATOM     10  C   UNL     1       7.841   5.615  19.519  0.00  0.00    +0.000 C 
ATOM     11  O   UNL     1       8.376   5.205  20.532  0.00  0.00    +0.000 OA
ATOM     12  N   UNL     1       8.090   6.792  18.902  0.00  0.00    +0.000 N 
ATOM     13  C   UNL     1       7.406   6.876  17.732  0.00  0.00    +0.000 C 
ATOM     14  O   UNL     1       7.458   7.819  16.954  0.00  0.00    +0.000 OA
ATOM     15  H   UNL     1       6.591   4.007  19.063  0.00  0.00    +0.000 HD
ATOM     16  H   UNL     1       8.731   7.485  19.248  0.00  0.00    +0.000 HD
ENDROOT
BRANCH   1  21
ATOM     17  C   UNL     1       1.705   7.828  19.526  0.00  0.00    +0.000 A 
ATOM     18  C   UNL     1       1.492   7.203  20.770  0.00  0.00    +0.000 A 
ATOM     19  C   UNL     1       1.787   5.850  20.974  0.00  0.00    +0.000 A 
ATOM     20  C   UNL     1       2.266   5.071  19.923  0.00  0.00    +0.000 A 
ATOM     21  C   UNL     1       2.445   5.654  18.667  0.00  0.00    +0.000 A 
ATOM     22  C   UNL     1       2.215   7.026  18.489  0.00  0.00    +0.000 A 
BRANCH  17  28
ATOM     23  C   UNL     1      -1.035  11.921  20.602  0.00  0.00    +0.000 C 
ATOM     24  C   UNL     1       0.078  11.276  19.830  0.00  0.00    +0.000 A 
ATOM     25  C   UNL     1       0.802  12.000  18.883  0.00  0.00    +0.000 A 
ATOM     26  C   UNL     1       1.814  11.381  18.158  0.00  0.00    +0.000 A 
ATOM     27  C   UNL     1       2.106  10.029  18.367  0.00  0.00    +0.000 A 
ATOM     28  C   UNL     1       1.401   9.263  19.311  0.00  0.00    +0.000 A 
ATOM     29  C   UNL     1       0.389   9.921  20.040  0.00  0.00    +0.000 A 
ENDBRANCH  17  28
ENDBRANCH   1  21
TORSDOF 2
ENDMDL
MODEL 5
REMARK VINA RESULT:      -8.7      1.155      1.957
REMARK  Name = 
REMARK  3 active torsions:
REMARK  status: ('A' for Active; 'I' for Inactive)
REMARK    1  A    between atoms: C_1  and  C_2
REMARK    2  A    between atoms: C_6  and  C_7
REMARK    3  A    between atoms: C_11  and  C_12
REMARK                            x       y       z     vdW  Elec       q    Type
REMARK                         _______ _______ _______ _____ _____    ______ ____
ROOT
ATOM      1  C   UNL     1       2.739   5.052  17.653  0.00  0.00    +0.000 C 
ATOM      2  O   UNL     1       1.851   4.444  17.061  0.00  0.00    +0.000 OA
ATOM      3  N   UNL     1       4.102   4.928  17.329  0.00  0.00    +0.000 N 
ATOM      4  C   UNL     1       4.446   3.992  16.256  0.00  0.00    +0.000 C 
ATOM      5  C   UNL     1       5.911   3.546  16.312  0.00  0.00    +0.000 C 
ATOM      6  C   UNL     1       6.878   4.726  16.446  0.00  0.00    +0.000 C 
ATOM      7  C   UNL     1       6.466   5.622  17.613  0.00  0.00    +0.000 C 
ATOM      8  C   UNL     1       5.015   6.074  17.462  0.00  0.00    +0.000 C 
ATOM      9  N   UNL     1       6.743   4.978  18.886  0.00  0.00    +0.000 N 
ATOM     10  C   UNL     1       7.749   5.609  19.573  0.00  0.00    +0.000 C 
ATOM     11  O   UNL     1       8.269   5.195  20.592  0.00  0.00    +0.000 OA
ATOM     12  N   UNL     1       8.062   6.752  18.922  0.00  0.00    +0.000 N 
ATOM     13  C   UNL     1       7.371   6.847  17.756  0.00  0.00    +0.000 C 
ATOM     14  O   UNL     1       7.472   7.764  16.953  0.00  0.00    +0.000 OA
ATOM     15  H   UNL     1       6.399   4.070  19.173  0.00  0.00    +0.000 HD
ATOM     16  H   UNL     1       8.748   7.413  19.243  0.00  0.00    +0.000 HD
ENDROOT
BRANCH   1  21
ATOM     17  C   UNL     1       1.554   8.136  19.553  0.00  0.00    +0.000 A 
ATOM     18  C   UNL     1       1.526   7.599  20.854  0.00  0.00    +0.000 A 
ATOM     19  C   UNL     1       1.942   6.289  21.119  0.00  0.00    +0.000 A 
ATOM     20  C   UNL     1       2.360   5.463  20.079  0.00  0.00    +0.000 A 
ATOM     21  C   UNL     1       2.356   5.955  18.772  0.00  0.00    +0.000 A 
ATOM     22  C   UNL     1       2.006   7.290  18.524  0.00  0.00    +0.000 A 
BRANCH  17  28
ATOM     23  C   UNL     1       2.621  12.817  18.012  0.00  0.00    +0.000 C 
ATOM     24  C   UNL     1       1.622  11.816  18.514  0.00  0.00    +0.000 A 
ATOM     25  C   UNL     1       0.300  12.190  18.757  0.00  0.00    +0.000 A 
ATOM     26  C   UNL     1      -0.608  11.257  19.246  0.00  0.00    +0.000 A 
ATOM     27  C   UNL     1      -0.201   9.944  19.504  0.00  0.00    +0.000 A 
ATOM     28  C   UNL     1       1.121   9.526  19.272  0.00  0.00    +0.000 A 
ATOM     29  C   UNL     1       2.015  10.490  18.765  0.00  0.00    +0.000 A 
ENDBRANCH  17  28
ENDBRANCH   1  21
TORSDOF 2
ENDMDL
MODEL 6
REMARK VINA RESULT:      -8.5      4.904      8.774
REMARK  Name = 
REMARK  3 active torsions:
REMARK  status: ('A' for Active; 'I' for Inactive)
REMARK    1  A    between atoms: C_1  and  C_2
REMARK    2  A    between atoms: C_6  and  C_7
REMARK    3  A    between atoms: C_11  and  C_12
REMARK                            x       y       z     vdW  Elec       q    Type
REMARK                         _______ _______ _______ _____ _____    ______ ____
ROOT
ATOM      1  C   UNL     1       0.780   9.558  21.631  0.00  0.00    +0.000 C 
ATOM      2  O   UNL     1       1.036   9.267  22.797  0.00  0.00    +0.000 OA
ATOM      3  N   UNL     1      -0.040  10.641  21.272  0.00  0.00    +0.000 N 
ATOM      4  C   UNL     1      -0.634  11.415  22.365  0.00  0.00    +0.000 C 
ATOM      5  C   UNL     1      -1.866  12.210  21.922  0.00  0.00    +0.000 C 
ATOM      6  C   UNL     1      -1.612  13.023  20.649  0.00  0.00    +0.000 C 
ATOM      7  C   UNL     1      -1.033  12.129  19.554  0.00  0.00    +0.000 C 
ATOM      8  C   UNL     1       0.221  11.412  20.047  0.00  0.00    +0.000 C 
ATOM      9  N   UNL     1      -2.047  11.228  19.028  0.00  0.00    +0.000 N 
ATOM     10  C   UNL     1      -2.382  11.532  17.733  0.00  0.00    +0.000 C 
ATOM     11  O   UNL     1      -3.298  11.029  17.110  0.00  0.00    +0.000 OA
ATOM     12  N   UNL     1      -1.534  12.483  17.281  0.00  0.00    +0.000 N 
ATOM     13  C   UNL     1      -0.711  12.905  18.275  0.00  0.00    +0.000 C 
ATOM     14  O   UNL     1       0.142  13.775  18.159  0.00  0.00    +0.000 OA
ATOM     15  H   UNL     1      -2.597  10.578  19.576  0.00  0.00    +0.000 HD
ATOM     16  H   UNL     1      -1.549  12.853  16.346  0.00  0.00    +0.000 HD
ENDROOT
BRANCH   1  21
ATOM     17  C   UNL     1       2.095   6.528  19.730  0.00  0.00    +0.000 A 
ATOM     18  C   UNL     1       2.331   7.132  18.481  0.00  0.00    +0.000 A 
ATOM     19  C   UNL     1       2.130   8.503  18.277  0.00  0.00    +0.000 A 
ATOM     20  C   UNL     1       1.644   9.301  19.311  0.00  0.00    +0.000 A 
ATOM     21  C   UNL     1       1.360   8.719  20.548  0.00  0.00    +0.000 A 
ATOM     22  C   UNL     1       1.632   7.360  20.765  0.00  0.00    +0.000 A 
BRANCH  17  28
ATOM     23  C   UNL     1       3.316   1.974  17.940  0.00  0.00    +0.000 C 
ATOM     24  C   UNL     1       2.918   2.847  19.095  0.00  0.00    +0.000 A 
ATOM     25  C   UNL     1       2.715   2.302  20.363  0.00  0.00    +0.000 A 
ATOM     26  C   UNL     1       2.323   3.120  21.417  0.00  0.00    +0.000 A 
ATOM     27  C   UNL     1       2.122   4.489  21.211  0.00  0.00    +0.000 A 
ATOM     28  C   UNL     1       2.316   5.077  19.950  0.00  0.00    +0.000 A 
ATOM     29  C   UNL     1       2.726   4.226  18.904  0.00  0.00    +0.000 A 
ENDBRANCH  17  28
ENDBRANCH   1  21
TORSDOF 2
ENDMDL
MODEL 7
REMARK VINA RESULT:      -8.4      2.934      7.891
REMARK  Name = 
REMARK  3 active torsions:
REMARK  status: ('A' for Active; 'I' for Inactive)
REMARK    1  A    between atoms: C_1  and  C_2
REMARK    2  A    between atoms: C_6  and  C_7
REMARK    3  A    between atoms: C_11  and  C_12
REMARK                            x       y       z     vdW  Elec       q    Type
REMARK                         _______ _______ _______ _____ _____    ______ ____
ROOT
ATOM      1  C   UNL     1       4.329   6.525  16.890  0.00  0.00    +0.000 C 
ATOM      2  O   UNL     1       4.168   7.725  16.687  0.00  0.00    +0.000 OA
ATOM      3  N   UNL     1       3.578   5.798  17.830  0.00  0.00    +0.000 N 
ATOM      4  C   UNL     1       2.594   6.547  18.615  0.00  0.00    +0.000 C 
ATOM      5  C   UNL     1       2.206   5.830  19.913  0.00  0.00    +0.000 C 
ATOM      6  C   UNL     1       1.835   4.362  19.681  0.00  0.00    +0.000 C 
ATOM      7  C   UNL     1       2.935   3.652  18.894  0.00  0.00    +0.000 C 
ATOM      8  C   UNL     1       3.229   4.389  17.590  0.00  0.00    +0.000 C 
ATOM      9  N   UNL     1       4.112   3.442  19.720  0.00  0.00    +0.000 N 
ATOM     10  C   UNL     1       4.318   2.114  19.994  0.00  0.00    +0.000 C 
ATOM     11  O   UNL     1       5.144   1.679  20.775  0.00  0.00    +0.000 OA
ATOM     12  N   UNL     1       3.446   1.384  19.262  0.00  0.00    +0.000 N 
ATOM     13  C   UNL     1       2.587   2.193  18.590  0.00  0.00    +0.000 C 
ATOM     14  O   UNL     1       1.678   1.807  17.868  0.00  0.00    +0.000 OA
ATOM     15  H   UNL     1       4.624   4.166  20.210  0.00  0.00    +0.000 HD
ATOM     16  H   UNL     1       3.417   0.379  19.259  0.00  0.00    +0.000 HD
ENDROOT
BRANCH   1  21
ATOM     17  C   UNL     1       6.004   4.422  14.189  0.00  0.00    +0.000 A 
ATOM     18  C   UNL     1       7.345   4.570  14.590  0.00  0.00    +0.000 A 
ATOM     19  C   UNL     1       7.694   5.280  15.744  0.00  0.00    +0.000 A 
ATOM     20  C   UNL     1       6.709   5.901  16.509  0.00  0.00    +0.000 A 
ATOM     21  C   UNL     1       5.374   5.807  16.110  0.00  0.00    +0.000 A 
ATOM     22  C   UNL     1       5.026   5.034  14.993  0.00  0.00    +0.000 A 
BRANCH  17  28
ATOM     23  C   UNL     1       2.966   3.740  10.223  0.00  0.00    +0.000 C 
ATOM     24  C   UNL     1       4.164   3.319  11.022  0.00  0.00    +0.000 A 
ATOM     25  C   UNL     1       4.908   2.198  10.654  0.00  0.00    +0.000 A 
ATOM     26  C   UNL     1       6.002   1.807  11.419  0.00  0.00    +0.000 A 
ATOM     27  C   UNL     1       6.356   2.528  12.564  0.00  0.00    +0.000 A 
ATOM     28  C   UNL     1       5.633   3.662  12.970  0.00  0.00    +0.000 A 
ATOM     29  C   UNL     1       4.538   4.042  12.168  0.00  0.00    +0.000 A 
ENDBRANCH  17  28
ENDBRANCH   1  21
TORSDOF 2
ENDMDL
MODEL 8
REMARK VINA RESULT:      -8.3      4.677      8.623
REMARK  Name = 
REMARK  3 active torsions:
REMARK  status: ('A' for Active; 'I' for Inactive)
REMARK    1  A    between atoms: C_1  and  C_2
REMARK    2  A    between atoms: C_6  and  C_7
REMARK    3  A    between atoms: C_11  and  C_12
REMARK                            x       y       z     vdW  Elec       q    Type
REMARK                         _______ _______ _______ _____ _____    ______ ____
ROOT
ATOM      1  C   UNL     1       0.847   9.437  21.429  0.00  0.00    +0.000 C 
ATOM      2  O   UNL     1       1.109   9.095  22.579  0.00  0.00    +0.000 OA
ATOM      3  N   UNL     1      -0.005  10.513  21.123  0.00  0.00    +0.000 N 
ATOM      4  C   UNL     1      -0.623  11.211  22.252  0.00  0.00    +0.000 C 
ATOM      5  C   UNL     1      -1.878  11.992  21.846  0.00  0.00    +0.000 C 
ATOM      6  C   UNL     1      -1.645  12.875  20.616  0.00  0.00    +0.000 C 
ATOM      7  C   UNL     1      -1.039  12.056  19.479  0.00  0.00    +0.000 C 
ATOM      8  C   UNL     1       0.236  11.352  19.939  0.00  0.00    +0.000 C 
ATOM      9  N   UNL     1      -2.024  11.154  18.905  0.00  0.00    +0.000 N 
ATOM     10  C   UNL     1      -2.367  11.513  17.626  0.00  0.00    +0.000 C 
ATOM     11  O   UNL     1      -3.266  11.015  16.976  0.00  0.00    +0.000 OA
ATOM     12  N   UNL     1      -1.546  12.510  17.226  0.00  0.00    +0.000 N 
ATOM     13  C   UNL     1      -0.737  12.905  18.243  0.00  0.00    +0.000 C 
ATOM     14  O   UNL     1       0.089  13.805  18.173  0.00  0.00    +0.000 OA
ATOM     15  H   UNL     1      -2.556  10.460  19.418  0.00  0.00    +0.000 HD
ATOM     16  H   UNL     1      -1.571  12.927  16.311  0.00  0.00    +0.000 HD
ENDROOT
BRANCH   1  21
ATOM     17  C   UNL     1       2.361   6.574  19.420  0.00  0.00    +0.000 A 
ATOM     18  C   UNL     1       2.474   7.212  18.171  0.00  0.00    +0.000 A 
ATOM     19  C   UNL     1       2.128   8.558  17.998  0.00  0.00    +0.000 A 
ATOM     20  C   UNL     1       1.617   9.292  19.066  0.00  0.00    +0.000 A 
ATOM     21  C   UNL     1       1.453   8.672  20.306  0.00  0.00    +0.000 A 
ATOM     22  C   UNL     1       1.869   7.345  20.488  0.00  0.00    +0.000 A 
BRANCH  17  28
ATOM     23  C   UNL     1       1.828   2.202  21.875  0.00  0.00    +0.000 C 
ATOM     24  C   UNL     1       2.482   3.004  20.789  0.00  0.00    +0.000 A 
ATOM     25  C   UNL     1       3.465   2.437  19.978  0.00  0.00    +0.000 A 
ATOM     26  C   UNL     1       4.079   3.201  18.991  0.00  0.00    +0.000 A 
ATOM     27  C   UNL     1       3.721   4.541  18.811  0.00  0.00    +0.000 A 
ATOM     28  C   UNL     1       2.735   5.150  19.606  0.00  0.00    +0.000 A 
ATOM     29  C   UNL     1       2.122   4.348  20.589  0.00  0.00    +0.000 A 
ENDBRANCH  17  28
ENDBRANCH   1  21
TORSDOF 2
ENDMDL
MODEL 9
REMARK VINA RESULT:      -8.3      3.004      7.488
REMARK  Name = 
REMARK  3 active torsions:
REMARK  status: ('A' for Active; 'I' for Inactive)
REMARK    1  A    between atoms: C_1  and  C_2
REMARK    2  A    between atoms: C_6  and  C_7
REMARK    3  A    between atoms: C_11  and  C_12
REMARK                            x       y       z     vdW  Elec       q    Type
REMARK                         _______ _______ _______ _____ _____    ______ ____
ROOT
ATOM      1  C   UNL     1       3.760   6.726  17.891  0.00  0.00    +0.000 C 
ATOM      2  O   UNL     1       3.297   7.862  17.832  0.00  0.00    +0.000 OA
ATOM      3  N   UNL     1       3.112   5.666  18.549  0.00  0.00    +0.000 N 
ATOM      4  C   UNL     1       1.846   5.975  19.217  0.00  0.00    +0.000 C 
ATOM      5  C   UNL     1       1.483   4.948  20.295  0.00  0.00    +0.000 C 
ATOM      6  C   UNL     1       1.587   3.506  19.788  0.00  0.00    +0.000 C 
ATOM      7  C   UNL     1       2.951   3.264  19.145  0.00  0.00    +0.000 C 
ATOM      8  C   UNL     1       3.220   4.288  18.046  0.00  0.00    +0.000 C 
ATOM      9  N   UNL     1       3.997   3.207  20.154  0.00  0.00    +0.000 N 
ATOM     10  C   UNL     1       4.529   1.948  20.273  0.00  0.00    +0.000 C 
ATOM     11  O   UNL     1       5.313   1.596  21.133  0.00  0.00    +0.000 OA
ATOM     12  N   UNL     1       4.025   1.174  19.284  0.00  0.00    +0.000 N 
ATOM     13  C   UNL     1       3.086   1.851  18.575  0.00  0.00    +0.000 C 
ATOM     14  O   UNL     1       2.448   1.391  17.637  0.00  0.00    +0.000 OA
ATOM     15  H   UNL     1       4.199   3.930  20.834  0.00  0.00    +0.000 HD
ATOM     16  H   UNL     1       4.285   0.215  19.132  0.00  0.00    +0.000 HD
ENDROOT
BRANCH   1  21
ATOM     17  C   UNL     1       6.364   5.586  15.352  0.00  0.00    +0.000 A 
ATOM     18  C   UNL     1       7.522   6.078  15.984  0.00  0.00    +0.000 A 
ATOM     19  C   UNL     1       7.468   6.708  17.233  0.00  0.00    +0.000 A 
ATOM     20  C   UNL     1       6.243   6.901  17.868  0.00  0.00    +0.000 A 
ATOM     21  C   UNL     1       5.074   6.462  17.244  0.00  0.00    +0.000 A 
ATOM     22  C   UNL     1       5.143   5.769  16.027  0.00  0.00    +0.000 A 
BRANCH  17  28
ATOM     23  C   UNL     1       4.127   2.899  11.719  0.00  0.00    +0.000 C 
ATOM     24  C   UNL     1       5.342   3.607  12.243  0.00  0.00    +0.000 A 
ATOM     25  C   UNL     1       6.535   3.604  11.521  0.00  0.00    +0.000 A 
ATOM     26  C   UNL     1       7.659   4.244  12.031  0.00  0.00    +0.000 A 
ATOM     27  C   UNL     1       7.603   4.886  13.273  0.00  0.00    +0.000 A 
ATOM     28  C   UNL     1       6.421   4.912  14.032  0.00  0.00    +0.000 A 
ATOM     29  C   UNL     1       5.295   4.267  13.484  0.00  0.00    +0.000 A 
ENDBRANCH  17  28
ENDBRANCH   1  21
TORSDOF 2
ENDMDL
