MODEL 1
REMARK VINA RESULT:      -9.3      0.000      0.000
REMARK  Name = 
REMARK  5 active torsions:
REMARK  status: ('A' for Active; 'I' for Inactive)
REMARK    1  A    between atoms: C_2  and  C_4
REMARK    2  A    between atoms: C_8  and  C_10
REMARK    3  A    between atoms: C_10  and  C_11
REMARK    4  A    between atoms: C_11  and  C_12
REMARK    5  A    between atoms: C_13  and  C_14
REMARK                            x       y       z     vdW  Elec       q    Type
REMARK                         _______ _______ _______ _____ _____    ______ ____
ROOT
ATOM      1  C   UNL     1       3.315   4.935  18.320  0.00  0.00    +0.000 A 
ATOM      2  C   UNL     1       4.442   4.234  17.881  0.00  0.00    +0.000 A 
ATOM      3  N   UNL     1       4.597   3.170  18.748  0.00  0.00    +0.000 N 
ATOM      4  C   UNL     1       3.640   3.160  19.727  0.00  0.00    +0.000 A 
ATOM      5  C   UNL     1       3.445   2.261  20.783  0.00  0.00    +0.000 A 
ATOM      6  C   UNL     1       2.367   2.495  21.638  0.00  0.00    +0.000 A 
ATOM      7  C   UNL     1       1.525   3.585  21.440  0.00  0.00    +0.000 A 
ATOM      8  C   UNL     1       1.737   4.471  20.374  0.00  0.00    +0.000 A 
ATOM      9  C   UNL     1       2.820   4.257  19.494  0.00  0.00    +0.000 A 
ATOM     10  H   UNL     1       5.313   2.464  18.661  0.00  0.00    +0.000 HD
ENDROOT
BRANCH   2  11
ATOM     11  C   UNL     1       5.357   4.377  16.735  0.00  0.00    +0.000 A 
ATOM     12  C   UNL     1       4.944   4.007  15.441  0.00  0.00    +0.000 A 
ATOM     13  C   UNL     1       5.743   4.274  14.326  0.00  0.00    +0.000 A 
ATOM     14  C   UNL     1       6.972   4.895  14.496  0.00  0.00    +0.000 A 
ATOM     15  F   UNL     1       7.725   5.183  13.428  0.00  0.00    +0.000 F 
ATOM     16  C   UNL     1       7.425   5.229  15.762  0.00  0.00    +0.000 A 
ATOM     17  C   UNL     1       6.620   4.968  16.874  0.00  0.00    +0.000 A 
ENDBRANCH   2  11
BRANCH   1  18
ATOM     18  C   UNL     1       2.682   6.172  17.729  0.00  0.00    +0.000 C 
BRANCH  18  19
ATOM     19  C   UNL     1       3.062   7.434  18.506  0.00  0.00    +0.000 C 
BRANCH  19  24
ATOM     20  C   UNL     1      -0.399   9.795  20.838  0.00  0.00    +0.000 C 
ATOM     21  C   UNL     1       0.025   8.420  21.362  0.00  0.00    +0.000 C 
ATOM     22  C   UNL     1       1.419   8.242  20.785  0.00  0.00    +0.000 C 
ATOM     23  N   UNL     1       1.314   8.858  19.474  0.00  0.00    +0.000 N 
ATOM     24  C   UNL     1       2.066   8.569  18.350  0.00  0.00    +0.000 C 
ATOM     25  O   UNL     1       1.922   9.184  17.295  0.00  0.00    +0.000 OA
ATOM     26  C   UNL     1       0.295   9.900  19.476  0.00  0.00    +0.000 C 
BRANCH  20  28
ATOM     27  N   UNL     1       0.458  12.051  21.183  0.00  0.00    +0.000 N 
ATOM     28  C   UNL     1       0.012  10.911  21.782  0.00  0.00    +0.000 C 
ATOM     29  O   UNL     1      -0.074  10.848  23.003  0.00  0.00    +0.000 OA
ATOM     30  H   UNL     1       0.690  12.830  21.787  0.00  0.00    +0.000 HD
ATOM     31  H   UNL     1       0.460  12.200  20.183  0.00  0.00    +0.000 HD
ENDBRANCH  20  28
ENDBRANCH  19  24
ENDBRANCH  18  19
ENDBRANCH   1  18
TORSDOF 5
ENDMDL
MODEL 2
REMARK VINA RESULT:      -8.8      1.550      1.940
REMARK  Name = 
REMARK  5 active torsions:
REMARK  status: ('A' for Active; 'I' for Inactive)
REMARK    1  A    between atoms: C_2  and  C_4
REMARK    2  A    between atoms: C_8  and  C_10
REMARK    3  A    between atoms: C_10  and  C_11
REMARK    4  A    between atoms: C_11  and  C_12
REMARK    5  A    between atoms: C_13  and  C_14
REMARK                            x       y       z     vdW  Elec       q    Type
REMARK                         _______ _______ _______ _____ _____    ______ ____
ROOT
ATOM      1  C   UNL     1       3.202   4.722  18.463  0.00  0.00    +0.000 A 
ATOM      2  C   UNL     1       4.378   4.090  18.049  0.00  0.00    +0.000 A 
ATOM      3  N   UNL     1       4.579   3.039  18.923  0.00  0.00    +0.000 N 
ATOM      4  C   UNL     1       3.604   2.973  19.882  0.00  0.00    +0.000 A 
ATOM      5  C   UNL     1       3.442   2.067  20.937  0.00  0.00    +0.000 A 
ATOM      6  C   UNL     1       2.335   2.236  21.769  0.00  0.00    +0.000 A 
ATOM      7  C   UNL     1       1.432   3.273  21.549  0.00  0.00    +0.000 A 
ATOM      8  C   UNL     1       1.612   4.167  20.485  0.00  0.00    +0.000 A 
ATOM      9  C   UNL     1       2.724   4.018  19.628  0.00  0.00    +0.000 A 
ATOM     10  H   UNL     1       5.339   2.379  18.853  0.00  0.00    +0.000 HD
ENDROOT
BRANCH   2  11
ATOM     11  C   UNL     1       5.307   4.286  16.922  0.00  0.00    +0.000 A 
ATOM     12  C   UNL     1       4.870   4.100  15.597  0.00  0.00    +0.000 A 
ATOM     13  C   UNL     1       5.692   4.425  14.515  0.00  0.00    +0.000 A 
ATOM     14  C   UNL     1       6.967   4.919  14.748  0.00  0.00    +0.000 A 
ATOM     15  F   UNL     1       7.746   5.264  13.715  0.00  0.00    +0.000 F 
ATOM     16  C   UNL     1       7.441   5.071  16.041  0.00  0.00    +0.000 A 
ATOM     17  C   UNL     1       6.613   4.753  17.121  0.00  0.00    +0.000 A 
ENDBRANCH   2  11
BRANCH   1  18
ATOM     18  C   UNL     1       2.507   5.917  17.855  0.00  0.00    +0.000 C 
BRANCH  18  19
ATOM     19  C   UNL     1       2.997   7.232  18.463  0.00  0.00    +0.000 C 
BRANCH  19  24
ATOM     20  C   UNL     1       0.441  11.227  19.168  0.00  0.00    +0.000 C 
ATOM     21  C   UNL     1       1.629  11.283  18.202  0.00  0.00    +0.000 C 
ATOM     22  C   UNL     1       1.826   9.829  17.808  0.00  0.00    +0.000 C 
ATOM     23  N   UNL     1       1.528   9.112  19.036  0.00  0.00    +0.000 N 
ATOM     24  C   UNL     1       2.003   7.871  19.417  0.00  0.00    +0.000 C 
ATOM     25  O   UNL     1       1.652   7.333  20.465  0.00  0.00    +0.000 OA
ATOM     26  C   UNL     1       0.591   9.867  19.858  0.00  0.00    +0.000 C 
BRANCH  20  28
ATOM     27  N   UNL     1      -1.061  12.526  17.754  0.00  0.00    +0.000 N 
ATOM     28  C   UNL     1      -0.885  11.362  18.440  0.00  0.00    +0.000 C 
ATOM     29  O   UNL     1      -1.748  10.493  18.414  0.00  0.00    +0.000 OA
ATOM     30  H   UNL     1      -1.915  12.621  17.217  0.00  0.00    +0.000 HD
ATOM     31  H   UNL     1      -0.351  13.237  17.657  0.00  0.00    +0.000 HD
ENDBRANCH  20  28
ENDBRANCH  19  24
ENDBRANCH  18  19
ENDBRANCH   1  18
TORSDOF 5
ENDMDL
MODEL 3
REMARK VINA RESULT:      -8.7      0.733      1.178
REMARK  Name = 
REMARK  5 active torsions:
REMARK  status: ('A' for Active; 'I' for Inactive)
REMARK    1  A    between atoms: C_2  and  C_4
REMARK    2  A    between atoms: C_8  and  C_10
REMARK    3  A    between atoms: C_10  and  C_11
REMARK    4  A    between atoms: C_11  and  C_12
REMARK    5  A    between atoms: C_13  and  C_14
REMARK                            x       y       z     vdW  Elec       q    Type
REMARK                         _______ _______ _______ _____ _____    ______ ____
ROOT
ATOM      1  C   UNL     1       3.246   5.032  18.394  0.00  0.00    +0.000 A 
ATOM      2  C   UNL     1       4.366   4.409  17.834  0.00  0.00    +0.000 A 
ATOM      3  N   UNL     1       4.634   3.311  18.629  0.00  0.00    +0.000 N 
ATOM      4  C   UNL     1       3.757   3.206  19.674  0.00  0.00    +0.000 A 
ATOM      5  C   UNL     1       3.685   2.246  20.692  0.00  0.00    +0.000 A 
ATOM      6  C   UNL     1       2.667   2.384  21.637  0.00  0.00    +0.000 A 
ATOM      7  C   UNL     1       1.764   3.441  21.562  0.00  0.00    +0.000 A 
ATOM      8  C   UNL     1       1.854   4.389  20.533  0.00  0.00    +0.000 A 
ATOM      9  C   UNL     1       2.874   4.272  19.563  0.00  0.00    +0.000 A 
ATOM     10  H   UNL     1       5.372   2.647  18.450  0.00  0.00    +0.000 HD
ENDROOT
BRANCH   2  11
ATOM     11  C   UNL     1       5.182   4.654  16.632  0.00  0.00    +0.000 A 
ATOM     12  C   UNL     1       6.458   5.239  16.743  0.00  0.00    +0.000 A 
ATOM     13  C   UNL     1       7.302   5.341  15.634  0.00  0.00    +0.000 A 
ATOM     14  C   UNL     1       6.870   4.878  14.399  0.00  0.00    +0.000 A 
ATOM     15  F   UNL     1       7.688   4.943  13.342  0.00  0.00    +0.000 F 
ATOM     16  C   UNL     1       5.602   4.340  14.251  0.00  0.00    +0.000 A 
ATOM     17  C   UNL     1       4.764   4.232  15.364  0.00  0.00    +0.000 A 
ENDBRANCH   2  11
BRANCH   1  18
ATOM     18  C   UNL     1       2.515   6.265  17.920  0.00  0.00    +0.000 C 
BRANCH  18  19
ATOM     19  C   UNL     1       2.679   7.434  18.893  0.00  0.00    +0.000 C 
BRANCH  19  24
ATOM     20  C   UNL     1      -0.427  10.721  20.488  0.00  0.00    +0.000 C 
ATOM     21  C   UNL     1      -0.313   9.396  21.248  0.00  0.00    +0.000 C 
ATOM     22  C   UNL     1       1.060   8.882  20.849  0.00  0.00    +0.000 C 
ATOM     23  N   UNL     1       1.170   9.285  19.457  0.00  0.00    +0.000 N 
ATOM     24  C   UNL     1       1.932   8.688  18.471  0.00  0.00    +0.000 C 
ATOM     25  O   UNL     1       1.986   9.137  17.328  0.00  0.00    +0.000 OA
ATOM     26  C   UNL     1       0.371  10.477  19.203  0.00  0.00    +0.000 C 
BRANCH  20  28
ATOM     27  N   UNL     1      -0.730  12.404  22.225  0.00  0.00    +0.000 N 
ATOM     28  C   UNL     1       0.120  11.885  21.294  0.00  0.00    +0.000 C 
ATOM     29  O   UNL     1       1.255  12.333  21.177  0.00  0.00    +0.000 OA
ATOM     30  H   UNL     1      -0.373  13.147  22.813  0.00  0.00    +0.000 HD
ATOM     31  H   UNL     1      -1.639  12.017  22.437  0.00  0.00    +0.000 HD
ENDBRANCH  20  28
ENDBRANCH  19  24
ENDBRANCH  18  19
ENDBRANCH   1  18
TORSDOF 5
ENDMDL
MODEL 4
REMARK VINA RESULT:      -8.6      2.512      4.987
REMARK  Name = 
REMARK  5 active torsions:
REMARK  status: ('A' for Active; 'I' for Inactive)
REMARK    1  A    between atoms: C_2  and  C_4
REMARK    2  A    between atoms: C_8  and  C_10
REMARK    3  A    between atoms: C_10  and  C_11
REMARK    4  A    between atoms: C_11  and  C_12
REMARK    5  A    between atoms: C_13  and  C_14
REMARK                            x       y       z     vdW  Elec       q    Type
REMARK                         _______ _______ _______ _____ _____    ______ ____
ROOT
ATOM      1  C   UNL     1       3.539   5.339  17.558  0.00  0.00    +0.000 A 
ATOM      2  C   UNL     1       3.627   4.143  18.277  0.00  0.00    +0.000 A 
ATOM      3  N   UNL     1       4.764   3.503  17.823  0.00  0.00    +0.000 N 
ATOM      4  C   UNL     1       5.400   4.217  16.844  0.00  0.00    +0.000 A 
ATOM      5  C   UNL     1       6.572   3.922  16.135  0.00  0.00    +0.000 A 
ATOM      6  C   UNL     1       7.000   4.847  15.183  0.00  0.00    +0.000 A 
ATOM      7  C   UNL     1       6.280   6.017  14.953  0.00  0.00    +0.000 A 
ATOM      8  C   UNL     1       5.112   6.293  15.676  0.00  0.00    +0.000 A 
ATOM      9  C   UNL     1       4.657   5.374  16.646  0.00  0.00    +0.000 A 
ATOM     10  H   UNL     1       5.106   2.626  18.186  0.00  0.00    +0.000 HD
ENDROOT
BRANCH   2  11
ATOM     11  C   UNL     1       2.840   3.542  19.367  0.00  0.00    +0.000 A 
ATOM     12  C   UNL     1       3.484   2.901  20.443  0.00  0.00    +0.000 A 
ATOM     13  C   UNL     1       2.761   2.458  21.555  0.00  0.00    +0.000 A 
ATOM     14  C   UNL     1       1.386   2.633  21.591  0.00  0.00    +0.000 A 
ATOM     15  F   UNL     1       0.694   2.241  22.668  0.00  0.00    +0.000 F 
ATOM     16  C   UNL     1       0.719   3.219  20.527  0.00  0.00    +0.000 A 
ATOM     17  C   UNL     1       1.446   3.668  19.421  0.00  0.00    +0.000 A 
ENDBRANCH   2  11
BRANCH   1  18
ATOM     18  C   UNL     1       2.501   6.431  17.663  0.00  0.00    +0.000 C 
BRANCH  18  19
ATOM     19  C   UNL     1       3.092   7.729  18.213  0.00  0.00    +0.000 C 
BRANCH  19  24
ATOM     20  C   UNL     1      -0.394   9.372  21.065  0.00  0.00    +0.000 C 
ATOM     21  C   UNL     1       0.053   7.916  21.225  0.00  0.00    +0.000 C 
ATOM     22  C   UNL     1       1.447   7.911  20.622  0.00  0.00    +0.000 C 
ATOM     23  N   UNL     1       1.327   8.837  19.509  0.00  0.00    +0.000 N 
ATOM     24  C   UNL     1       2.078   8.852  18.349  0.00  0.00    +0.000 C 
ATOM     25  O   UNL     1       1.921   9.710  17.483  0.00  0.00    +0.000 OA
ATOM     26  C   UNL     1       0.292   9.828  19.774  0.00  0.00    +0.000 C 
BRANCH  20  28
ATOM     27  N   UNL     1      -0.086   9.604  23.473  0.00  0.00    +0.000 N 
ATOM     28  C   UNL     1       0.004  10.220  22.261  0.00  0.00    +0.000 C 
ATOM     29  O   UNL     1       0.420  11.370  22.182  0.00  0.00    +0.000 OA
ATOM     30  H   UNL     1       0.222  10.129  24.282  0.00  0.00    +0.000 HD
ATOM     31  H   UNL     1      -0.328   8.631  23.594  0.00  0.00    +0.000 HD
ENDBRANCH  20  28
ENDBRANCH  19  24
ENDBRANCH  18  19
ENDBRANCH   1  18
TORSDOF 5
ENDMDL
MODEL 5
REMARK VINA RESULT:      -8.6      2.807      5.332
REMARK  Name = 
REMARK  5 active torsions:
REMARK  status: ('A' for Active; 'I' for Inactive)
REMARK    1  A    between atoms: C_2  and  C_4
REMARK    2  A    between atoms: C_8  and  C_10
REMARK    3  A    between atoms: C_10  and  C_11
REMARK    4  A    between atoms: C_11  and  C_12
REMARK    5  A    between atoms: C_13  and  C_14
REMARK                            x       y       z     vdW  Elec       q    Type
REMARK                         _______ _______ _______ _____ _____    ______ ____
ROOT
ATOM      1  C   UNL     1       3.592   5.332  17.525  0.00  0.00    +0.000 A 
ATOM      2  C   UNL     1       3.574   4.091  18.169  0.00  0.00    +0.000 A 
ATOM      3  N   UNL     1       4.581   3.342  17.590  0.00  0.00    +0.000 N 
ATOM      4  C   UNL     1       5.231   4.031  16.602  0.00  0.00    +0.000 A 
ATOM      5  C   UNL     1       6.298   3.636  15.785  0.00  0.00    +0.000 A 
ATOM      6  C   UNL     1       6.773   4.559  14.853  0.00  0.00    +0.000 A 
ATOM      7  C   UNL     1       6.199   5.823  14.747  0.00  0.00    +0.000 A 
ATOM      8  C   UNL     1       5.133   6.198  15.577  0.00  0.00    +0.000 A 
ATOM      9  C   UNL     1       4.634   5.283  16.529  0.00  0.00    +0.000 A 
ATOM     10  H   UNL     1       4.830   2.407  17.875  0.00  0.00    +0.000 HD
ENDROOT
BRANCH   2  11
ATOM     11  C   UNL     1       2.797   3.525  19.285  0.00  0.00    +0.000 A 
ATOM     12  C   UNL     1       3.451   2.917  20.374  0.00  0.00    +0.000 A 
ATOM     13  C   UNL     1       2.739   2.510  21.506  0.00  0.00    +0.000 A 
ATOM     14  C   UNL     1       1.364   2.688  21.551  0.00  0.00    +0.000 A 
ATOM     15  F   UNL     1       0.683   2.331  22.646  0.00  0.00    +0.000 F 
ATOM     16  C   UNL     1       0.688   3.242  20.476  0.00  0.00    +0.000 A 
ATOM     17  C   UNL     1       1.404   3.655  19.349  0.00  0.00    +0.000 A 
ENDBRANCH   2  11
BRANCH   1  18
ATOM     18  C   UNL     1       2.717   6.538  17.774  0.00  0.00    +0.000 C 
BRANCH  18  19
ATOM     19  C   UNL     1       3.074   7.241  19.084  0.00  0.00    +0.000 C 
BRANCH  19  24
ATOM     20  C   UNL     1       0.182  11.065  19.139  0.00  0.00    +0.000 C 
ATOM     21  C   UNL     1       1.528  11.180  18.418  0.00  0.00    +0.000 C 
ATOM     22  C   UNL     1       1.889   9.735  18.122  0.00  0.00    +0.000 C 
ATOM     23  N   UNL     1       1.405   9.027  19.295  0.00  0.00    +0.000 N 
ATOM     24  C   UNL     1       1.875   7.832  19.806  0.00  0.00    +0.000 C 
ATOM     25  O   UNL     1       1.363   7.297  20.786  0.00  0.00    +0.000 OA
ATOM     26  C   UNL     1       0.281   9.736  19.894  0.00  0.00    +0.000 C 
BRANCH  20  28
ATOM     27  N   UNL     1      -1.317  12.319  17.681  0.00  0.00    +0.000 N 
ATOM     28  C   UNL     1      -0.985  11.090  18.166  0.00  0.00    +0.000 C 
ATOM     29  O   UNL     1      -1.588  10.093  17.787  0.00  0.00    +0.000 OA
ATOM     30  H   UNL     1      -2.057  12.359  16.991  0.00  0.00    +0.000 HD
ATOM     31  H   UNL     1      -0.798  13.164  17.879  0.00  0.00    +0.000 HD
ENDBRANCH  20  28
ENDBRANCH  19  24
ENDBRANCH  18  19
ENDBRANCH   1  18
TORSDOF 5
ENDMDL
MODEL 6
REMARK VINA RESULT:      -8.6      2.487      5.022
REMARK  Name = 
REMARK  5 active torsions:
REMARK  status: ('A' for Active; 'I' for Inactive)
REMARK    1  A    between atoms: C_2  and  C_4
REMARK    2  A    between atoms: C_8  and  C_10
REMARK    3  A    between atoms: C_10  and  C_11
REMARK    4  A    between atoms: C_11  and  C_12
REMARK    5  A    between atoms: C_13  and  C_14
REMARK                            x       y       z     vdW  Elec       q    Type
REMARK                         _______ _______ _______ _____ _____    ______ ____
ROOT
ATOM      1  C   UNL     1       4.234   5.349  17.902  0.00  0.00    +0.000 A 
ATOM      2  C   UNL     1       3.763   4.068  18.208  0.00  0.00    +0.000 A 
ATOM      3  N   UNL     1       4.303   3.222  17.260  0.00  0.00    +0.000 N 
ATOM      4  C   UNL     1       5.082   3.892  16.355  0.00  0.00    +0.000 A 
ATOM      5  C   UNL     1       5.801   3.407  15.255  0.00  0.00    +0.000 A 
ATOM      6  C   UNL     1       6.523   4.331  14.499  0.00  0.00    +0.000 A 
ATOM      7  C   UNL     1       6.521   5.682  14.834  0.00  0.00    +0.000 A 
ATOM      8  C   UNL     1       5.796   6.145  15.941  0.00  0.00    +0.000 A 
ATOM      9  C   UNL     1       5.057   5.231  16.723  0.00  0.00    +0.000 A 
ATOM     10  H   UNL     1       4.166   2.222  17.245  0.00  0.00    +0.000 HD
ENDROOT
BRANCH   2  11
ATOM     11  C   UNL     1       2.934   3.511  19.292  0.00  0.00    +0.000 A 
ATOM     12  C   UNL     1       3.536   2.919  20.418  0.00  0.00    +0.000 A 
ATOM     13  C   UNL     1       2.771   2.522  21.519  0.00  0.00    +0.000 A 
ATOM     14  C   UNL     1       1.395   2.694  21.494  0.00  0.00    +0.000 A 
ATOM     15  F   UNL     1       0.662   2.347  22.559  0.00  0.00    +0.000 F 
ATOM     16  C   UNL     1       0.770   3.232  20.381  0.00  0.00    +0.000 A 
ATOM     17  C   UNL     1       1.539   3.636  19.286  0.00  0.00    +0.000 A 
ENDBRANCH   2  11
BRANCH   1  18
ATOM     18  C   UNL     1       3.970   6.650  18.623  0.00  0.00    +0.000 C 
BRANCH  18  19
ATOM     19  C   UNL     1       2.477   6.977  18.681  0.00  0.00    +0.000 C 
BRANCH  19  24
ATOM     20  C   UNL     1       0.083  10.954  19.880  0.00  0.00    +0.000 C 
ATOM     21  C   UNL     1      -0.252   9.652  20.614  0.00  0.00    +0.000 C 
ATOM     22  C   UNL     1       0.993   8.807  20.411  0.00  0.00    +0.000 C 
ATOM     23  N   UNL     1       1.409   9.152  19.063  0.00  0.00    +0.000 N 
ATOM     24  C   UNL     1       2.139   8.372  18.186  0.00  0.00    +0.000 C 
ATOM     25  O   UNL     1       2.475   8.781  17.076  0.00  0.00    +0.000 OA
ATOM     26  C   UNL     1       0.981  10.504  18.723  0.00  0.00    +0.000 C 
BRANCH  20  28
ATOM     27  N   UNL     1       1.789  12.662  20.220  0.00  0.00    +0.000 N 
ATOM     28  C   UNL     1       0.774  11.954  20.791  0.00  0.00    +0.000 C 
ATOM     29  O   UNL     1       0.447  12.170  21.952  0.00  0.00    +0.000 OA
ATOM     30  H   UNL     1       2.234  13.372  20.789  0.00  0.00    +0.000 HD
ATOM     31  H   UNL     1       2.041  12.600  19.244  0.00  0.00    +0.000 HD
ENDBRANCH  20  28
ENDBRANCH  19  24
ENDBRANCH  18  19
ENDBRANCH   1  18
TORSDOF 5
ENDMDL
MODEL 7
REMARK VINA RESULT:      -8.5      2.371      4.881
REMARK  Name = 
REMARK  5 active torsions:
REMARK  status: ('A' for Active; 'I' for Inactive)
REMARK    1  A    between atoms: C_2  and  C_4
REMARK    2  A    between atoms: C_8  and  C_10
REMARK    3  A    between atoms: C_10  and  C_11
REMARK    4  A    between atoms: C_11  and  C_12
REMARK    5  A    between atoms: C_13  and  C_14
REMARK                            x       y       z     vdW  Elec       q    Type
REMARK                         _______ _______ _______ _____ _____    ______ ____
ROOT
ATOM      1  C   UNL     1       3.677   5.443  17.556  0.00  0.00    +0.000 A 
ATOM      2  C   UNL     1       3.815   4.348  18.415  0.00  0.00    +0.000 A 
ATOM      3  N   UNL     1       4.969   3.696  18.026  0.00  0.00    +0.000 N 
ATOM      4  C   UNL     1       5.569   4.305  16.957  0.00  0.00    +0.000 A 
ATOM      5  C   UNL     1       6.742   3.964  16.272  0.00  0.00    +0.000 A 
ATOM      6  C   UNL     1       7.126   4.780  15.207  0.00  0.00    +0.000 A 
ATOM      7  C   UNL     1       6.364   5.887  14.847  0.00  0.00    +0.000 A 
ATOM      8  C   UNL     1       5.194   6.211  15.548  0.00  0.00    +0.000 A 
ATOM      9  C   UNL     1       4.783   5.403  16.630  0.00  0.00    +0.000 A 
ATOM     10  H   UNL     1       5.345   2.882  18.488  0.00  0.00    +0.000 HD
ENDROOT
BRANCH   2  11
ATOM     11  C   UNL     1       3.061   3.859  19.582  0.00  0.00    +0.000 A 
ATOM     12  C   UNL     1       1.739   4.287  19.809  0.00  0.00    +0.000 A 
ATOM     13  C   UNL     1       0.963   3.720  20.824  0.00  0.00    +0.000 A 
ATOM     14  C   UNL     1       1.508   2.736  21.635  0.00  0.00    +0.000 A 
ATOM     15  F   UNL     1       0.758   2.167  22.586  0.00  0.00    +0.000 F 
ATOM     16  C   UNL     1       2.821   2.327  21.465  0.00  0.00    +0.000 A 
ATOM     17  C   UNL     1       3.592   2.890  20.444  0.00  0.00    +0.000 A 
ENDBRANCH   2  11
BRANCH   1  18
ATOM     18  C   UNL     1       2.602   6.504  17.542  0.00  0.00    +0.000 C 
BRANCH  18  19
ATOM     19  C   UNL     1       2.933   7.663  18.482  0.00  0.00    +0.000 C 
BRANCH  19  24
ATOM     20  C   UNL     1      -0.511   9.961  20.902  0.00  0.00    +0.000 C 
ATOM     21  C   UNL     1      -0.123   8.549  21.350  0.00  0.00    +0.000 C 
ATOM     22  C   UNL     1       1.275   8.374  20.783  0.00  0.00    +0.000 C 
ATOM     23  N   UNL     1       1.202   9.067  19.508  0.00  0.00    +0.000 N 
ATOM     24  C   UNL     1       1.963   8.828  18.380  0.00  0.00    +0.000 C 
ATOM     25  O   UNL     1       1.847   9.505  17.360  0.00  0.00    +0.000 OA
ATOM     26  C   UNL     1       0.205  10.130  19.557  0.00  0.00    +0.000 C 
BRANCH  20  28
ATOM     27  N   UNL     1       0.439  12.152  21.390  0.00  0.00    +0.000 N 
ATOM     28  C   UNL     1      -0.090  11.011  21.915  0.00  0.00    +0.000 C 
ATOM     29  O   UNL     1      -0.234  10.898  23.126  0.00  0.00    +0.000 OA
ATOM     30  H   UNL     1       0.680  12.891  22.040  0.00  0.00    +0.000 HD
ATOM     31  H   UNL     1       0.494  12.346  20.400  0.00  0.00    +0.000 HD
ENDBRANCH  20  28
ENDBRANCH  19  24
ENDBRANCH  18  19
ENDBRANCH   1  18
TORSDOF 5
ENDMDL
MODEL 8
REMARK VINA RESULT:      -8.2      2.195      2.428
REMARK  Name = 
REMARK  5 active torsions:
REMARK  status: ('A' for Active; 'I' for Inactive)
REMARK    1  A    between atoms: C_2  and  C_4
REMARK    2  A    between atoms: C_8  and  C_10
REMARK    3  A    between atoms: C_10  and  C_11
REMARK    4  A    between atoms: C_11  and  C_12
REMARK    5  A    between atoms: C_13  and  C_14
REMARK                            x       y       z     vdW  Elec       q    Type
REMARK                         _______ _______ _______ _____ _____    ______ ____
ROOT
ATOM      1  C   UNL     1       3.349   5.295  18.071  0.00  0.00    +0.000 A 
ATOM      2  C   UNL     1       4.713   5.071  18.281  0.00  0.00    +0.000 A 
ATOM      3  N   UNL     1       4.839   3.733  18.601  0.00  0.00    +0.000 N 
ATOM      4  C   UNL     1       3.630   3.093  18.623  0.00  0.00    +0.000 A 
ATOM      5  C   UNL     1       3.328   1.753  18.896  0.00  0.00    +0.000 A 
ATOM      6  C   UNL     1       1.988   1.368  18.839  0.00  0.00    +0.000 A 
ATOM      7  C   UNL     1       0.996   2.292  18.523  0.00  0.00    +0.000 A 
ATOM      8  C   UNL     1       1.321   3.628  18.250  0.00  0.00    +0.000 A 
ATOM      9  C   UNL     1       2.669   4.043  18.300  0.00  0.00    +0.000 A 
ATOM     10  H   UNL     1       5.719   3.271  18.774  0.00  0.00    +0.000 HD
ENDROOT
BRANCH   2  11
ATOM     11  C   UNL     1       5.920   5.908  18.164  0.00  0.00    +0.000 A 
ATOM     12  C   UNL     1       5.954   6.989  17.263  0.00  0.00    +0.000 A 
ATOM     13  C   UNL     1       7.032   7.880  17.247  0.00  0.00    +0.000 A 
ATOM     14  C   UNL     1       8.093   7.685  18.118  0.00  0.00    +0.000 A 
ATOM     15  F   UNL     1       9.111   8.555  18.130  0.00  0.00    +0.000 F 
ATOM     16  C   UNL     1       8.108   6.605  18.985  0.00  0.00    +0.000 A 
ATOM     17  C   UNL     1       7.026   5.721  19.004  0.00  0.00    +0.000 A 
ENDBRANCH   2  11
BRANCH   1  18
ATOM     18  C   UNL     1       2.650   6.576  17.680  0.00  0.00    +0.000 C 
BRANCH  18  19
ATOM     19  C   UNL     1       2.548   7.551  18.853  0.00  0.00    +0.000 C 
BRANCH  19  24
ATOM     20  C   UNL     1      -0.539  10.744  20.661  0.00  0.00    +0.000 C 
ATOM     21  C   UNL     1      -0.436   9.370  21.330  0.00  0.00    +0.000 C 
ATOM     22  C   UNL     1       0.934   8.874  20.900  0.00  0.00    +0.000 C 
ATOM     23  N   UNL     1       1.051   9.370  19.539  0.00  0.00    +0.000 N 
ATOM     24  C   UNL     1       1.812   8.836  18.516  0.00  0.00    +0.000 C 
ATOM     25  O   UNL     1       1.872   9.362  17.406  0.00  0.00    +0.000 OA
ATOM     26  C   UNL     1       0.262  10.583  19.364  0.00  0.00    +0.000 C 
BRANCH  20  28
ATOM     27  N   UNL     1      -0.765  12.190  22.611  0.00  0.00    +0.000 N 
ATOM     28  C   UNL     1       0.014  11.847  21.547  0.00  0.00    +0.000 C 
ATOM     29  O   UNL     1       1.099  12.389  21.376  0.00  0.00    +0.000 OA
ATOM     30  H   UNL     1      -0.397  12.886  23.248  0.00  0.00    +0.000 HD
ATOM     31  H   UNL     1      -1.621  11.714  22.861  0.00  0.00    +0.000 HD
ENDBRANCH  20  28
ENDBRANCH  19  24
ENDBRANCH  18  19
ENDBRANCH   1  18
TORSDOF 5
ENDMDL
MODEL 9
REMARK VINA RESULT:      -8.2      2.798      5.221
REMARK  Name = 
REMARK  5 active torsions:
REMARK  status: ('A' for Active; 'I' for Inactive)
REMARK    1  A    between atoms: C_2  and  C_4
REMARK    2  A    between atoms: C_8  and  C_10
REMARK    3  A    between atoms: C_10  and  C_11
REMARK    4  A    between atoms: C_11  and  C_12
REMARK    5  A    between atoms: C_13  and  C_14
REMARK                            x       y       z     vdW  Elec       q    Type
REMARK                         _______ _______ _______ _____ _____    ______ ____
ROOT
ATOM      1  C   UNL     1       4.234   5.475  17.741  0.00  0.00    +0.000 A 
ATOM      2  C   UNL     1       3.794   4.236  18.218  0.00  0.00    +0.000 A 
ATOM      3  N   UNL     1       4.321   3.286  17.365  0.00  0.00    +0.000 N 
ATOM      4  C   UNL     1       5.061   3.849  16.360  0.00  0.00    +0.000 A 
ATOM      5  C   UNL     1       5.755   3.240  15.307  0.00  0.00    +0.000 A 
ATOM      6  C   UNL     1       6.439   4.072  14.420  0.00  0.00    +0.000 A 
ATOM      7  C   UNL     1       6.424   5.455  14.585  0.00  0.00    +0.000 A 
ATOM      8  C   UNL     1       5.724   6.042  15.648  0.00  0.00    +0.000 A 
ATOM      9  C   UNL     1       5.024   5.223  16.560  0.00  0.00    +0.000 A 
ATOM     10  H   UNL     1       4.200   2.290  17.478  0.00  0.00    +0.000 HD
ENDROOT
BRANCH   2  11
ATOM     11  C   UNL     1       3.008   3.808  19.387  0.00  0.00    +0.000 A 
ATOM     12  C   UNL     1       1.621   4.045  19.441  0.00  0.00    +0.000 A 
ATOM     13  C   UNL     1       0.839   3.515  20.471  0.00  0.00    +0.000 A 
ATOM     14  C   UNL     1       1.439   2.761  21.468  0.00  0.00    +0.000 A 
ATOM     15  F   UNL     1       0.689   2.223  22.438  0.00  0.00    +0.000 F 
ATOM     16  C   UNL     1       2.809   2.549  21.467  0.00  0.00    +0.000 A 
ATOM     17  C   UNL     1       3.586   3.073  20.431  0.00  0.00    +0.000 A 
ENDBRANCH   2  11
BRANCH   1  18
ATOM     18  C   UNL     1       3.970   6.852  18.303  0.00  0.00    +0.000 C 
BRANCH  18  19
ATOM     19  C   UNL     1       2.524   7.294  18.071  0.00  0.00    +0.000 C 
BRANCH  19  24
ATOM     20  C   UNL     1       0.895  11.528  19.624  0.00  0.00    +0.000 C 
ATOM     21  C   UNL     1       1.824  11.507  18.406  0.00  0.00    +0.000 C 
ATOM     22  C   UNL     1       1.682  10.087  17.884  0.00  0.00    +0.000 C 
ATOM     23  N   UNL     1       1.556   9.301  19.099  0.00  0.00    +0.000 N 
ATOM     24  C   UNL     1       1.893   7.972  19.275  0.00  0.00    +0.000 C 
ATOM     25  O   UNL     1       1.706   7.388  20.341  0.00  0.00    +0.000 OA
ATOM     26  C   UNL     1       0.970  10.098  20.169  0.00  0.00    +0.000 C 
BRANCH  20  28
ATOM     27  N   UNL     1      -1.486  11.011  19.540  0.00  0.00    +0.000 N 
ATOM     28  C   UNL     1      -0.522  11.928  19.247  0.00  0.00    +0.000 C 
ATOM     29  O   UNL     1      -0.825  13.006  18.750  0.00  0.00    +0.000 OA
ATOM     30  H   UNL     1      -2.446  11.272  19.347  0.00  0.00    +0.000 HD
ATOM     31  H   UNL     1      -1.314  10.148  20.037  0.00  0.00    +0.000 HD
ENDBRANCH  20  28
ENDBRANCH  19  24
ENDBRANCH  18  19
ENDBRANCH   1  18
TORSDOF 5
ENDMDL
