MODEL 1
REMARK VINA RESULT:      -8.3      0.000      0.000
REMARK  Name = 
REMARK  6 active torsions:
REMARK  status: ('A' for Active; 'I' for Inactive)
REMARK    1  A    between atoms: C_1  and  N_2
REMARK    2  A    between atoms: C_6  and  C_7
REMARK    3  A    between atoms: C_7  and  C_8
REMARK    4  A    between atoms: C_8  and  C_9
REMARK    5  A    between atoms: C_13  and  N_14
REMARK    6  A    between atoms: C_19  and  C_20
REMARK                            x       y       z     vdW  Elec       q    Type
REMARK                         _______ _______ _______ _____ _____    ______ ____
ROOT
ATOM      1  C   UNL     1       2.232   5.173  19.586  0.00  0.00    +0.000 A 
ATOM      2  C   UNL     1       2.311   5.771  18.307  0.00  0.00    +0.000 A 
ATOM      3  C   UNL     1       2.433   7.139  18.139  0.00  0.00    +0.000 A 
ATOM      4  C   UNL     1       2.285   7.951  19.237  0.00  0.00    +0.000 A 
ATOM      5  C   UNL     1       1.801   7.399  20.422  0.00  0.00    +0.000 A 
ATOM      6  C   UNL     1       1.956   6.035  20.664  0.00  0.00    +0.000 A 
ENDROOT
BRANCH   5   7
ATOM      7  N   UNL     1       0.865   8.162  21.178  0.00  0.00    +0.000 N 
ATOM      8  C   UNL     1      -0.481   8.332  20.601  0.00  0.00    +0.000 C 
ATOM      9  C   UNL     1      -0.462   9.777  20.334  0.00  0.00    +0.000 A 
ATOM     10  C   UNL     1       0.535  10.383  21.130  0.00  0.00    +0.000 A 
ATOM     11  C   UNL     1       0.850  11.719  21.245  0.00  0.00    +0.000 A 
ATOM     12  C   UNL     1       0.209  12.566  20.376  0.00  0.00    +0.000 A 
ATOM     13  C   UNL     1      -0.646  11.959  19.459  0.00  0.00    +0.000 A 
ATOM     14  C   UNL     1      -1.054  10.612  19.372  0.00  0.00    +0.000 A 
ATOM     15  C   UNL     1      -1.991  10.377  18.225  0.00  0.00    +0.000 C 
ATOM     16  C   UNL     1      -2.096  11.762  17.541  0.00  0.00    +0.000 C 
ATOM     17  C   UNL     1      -1.234  12.762  18.332  0.00  0.00    +0.000 C 
ATOM     18  C   UNL     1       1.328   9.345  21.778  0.00  0.00    +0.000 C 
ATOM     19  O   UNL     1       2.267   9.427  22.562  0.00  0.00    +0.000 OA
BRANCH  12  20
ATOM     20  C   UNL     1       0.466  14.036  20.387  0.00  0.00    +0.000 C 
ATOM     21  F   UNL     1       1.664  14.369  19.835  0.00  0.00    +0.000 F 
ENDBRANCH  12  20
ENDBRANCH   5   7
BRANCH   1  22
ATOM     22  C   UNL     1       2.409   3.586  19.736  0.00  0.00    +0.000 C 
ATOM     23  C   UNL     1       2.636   3.062  21.188  0.00  0.00    +0.000 C 
ATOM     24  O   UNL     1       1.405   2.311  21.177  0.00  0.00    +0.000 OA
ATOM     25  C   UNL     1       1.099   2.758  19.841  0.00  0.00    +0.000 C 
BRANCH  22  26
ATOM     26  C   UNL     1       3.373   3.032  18.669  0.00  0.00    +0.000 C 
BRANCH  26  32
ATOM     27  C   UNL     1       4.887   4.220  16.134  0.00  0.00    +0.000 C 
ATOM     28  N   UNL     1       5.311   4.243  17.508  0.00  0.00    +0.000 N 
ATOM     29  C   UNL     1       6.506   4.751  17.946  0.00  0.00    +0.000 A 
ATOM     30  N   UNL     1       6.570   4.640  19.249  0.00  0.00    +0.000 NA
ATOM     31  N   UNL     1       5.433   4.008  19.672  0.00  0.00    +0.000 NA
ATOM     32  C   UNL     1       4.675   3.761  18.621  0.00  0.00    +0.000 A 
ENDBRANCH  26  32
ENDBRANCH  22  26
ENDBRANCH   1  22
TORSDOF 5
ENDMDL
MODEL 2
REMARK VINA RESULT:      -8.0      6.371      9.079
REMARK  Name = 
REMARK  6 active torsions:
REMARK  status: ('A' for Active; 'I' for Inactive)
REMARK    1  A    between atoms: C_1  and  N_2
REMARK    2  A    between atoms: C_6  and  C_7
REMARK    3  A    between atoms: C_7  and  C_8
REMARK    4  A    between atoms: C_8  and  C_9
REMARK    5  A    between atoms: C_13  and  N_14
REMARK    6  A    between atoms: C_19  and  C_20
REMARK                            x       y       z     vdW  Elec       q    Type
REMARK                         _______ _______ _______ _____ _____    ______ ____
ROOT
ATOM      1  C   UNL     1      -2.380  11.215  18.276  0.00  0.00    +0.000 A 
ATOM      2  C   UNL     1      -2.156  10.157  17.364  0.00  0.00    +0.000 A 
ATOM      3  C   UNL     1      -2.972   9.944  16.267  0.00  0.00    +0.000 A 
ATOM      4  C   UNL     1      -4.135  10.666  16.165  0.00  0.00    +0.000 A 
ATOM      5  C   UNL     1      -4.565  11.411  17.262  0.00  0.00    +0.000 A 
ATOM      6  C   UNL     1      -3.639  11.842  18.210  0.00  0.00    +0.000 A 
ENDROOT
BRANCH   5   7
ATOM      7  N   UNL     1      -5.957  11.407  17.566  0.00  0.00    +0.000 N 
ATOM      8  C   UNL     1      -6.663  12.699  17.485  0.00  0.00    +0.000 C 
ATOM      9  C   UNL     1      -6.988  12.900  18.904  0.00  0.00    +0.000 A 
ATOM     10  C   UNL     1      -6.933  11.658  19.574  0.00  0.00    +0.000 A 
ATOM     11  C   UNL     1      -7.227  11.376  20.890  0.00  0.00    +0.000 A 
ATOM     12  C   UNL     1      -7.478  12.457  21.696  0.00  0.00    +0.000 A 
ATOM     13  C   UNL     1      -7.358  13.706  21.089  0.00  0.00    +0.000 A 
ATOM     14  C   UNL     1      -7.144  14.024  19.732  0.00  0.00    +0.000 A 
ATOM     15  C   UNL     1      -7.077  15.504  19.501  0.00  0.00    +0.000 C 
ATOM     16  C   UNL     1      -7.228  16.109  20.919  0.00  0.00    +0.000 C 
ATOM     17  C   UNL     1      -7.403  14.956  21.924  0.00  0.00    +0.000 C 
ATOM     18  C   UNL     1      -6.376  10.653  18.676  0.00  0.00    +0.000 C 
ATOM     19  O   UNL     1      -6.175   9.455  18.840  0.00  0.00    +0.000 OA
BRANCH  12  20
ATOM     20  C   UNL     1      -7.800  12.294  23.144  0.00  0.00    +0.000 C 
ATOM     21  F   UNL     1      -6.698  12.337  23.940  0.00  0.00    +0.000 F 
ENDBRANCH  12  20
ENDBRANCH   5   7
BRANCH   1  22
ATOM     22  C   UNL     1      -1.242  11.608  19.336  0.00  0.00    +0.000 C 
ATOM     23  C   UNL     1      -0.922  10.532  20.419  0.00  0.00    +0.000 C 
ATOM     24  O   UNL     1       0.430  10.367  19.945  0.00  0.00    +0.000 OA
ATOM     25  C   UNL     1       0.224  11.336  18.899  0.00  0.00    +0.000 C 
BRANCH  22  26
ATOM     26  C   UNL     1      -1.445  13.043  19.860  0.00  0.00    +0.000 C 
BRANCH  26  32
ATOM     27  C   UNL     1      -3.794  12.760  21.990  0.00  0.00    +0.000 C 
ATOM     28  N   UNL     1      -2.403  13.032  22.238  0.00  0.00    +0.000 N 
ATOM     29  C   UNL     1      -1.866  13.276  23.474  0.00  0.00    +0.000 A 
ATOM     30  N   UNL     1      -0.575  13.461  23.355  0.00  0.00    +0.000 NA
ATOM     31  N   UNL     1      -0.263  13.390  22.026  0.00  0.00    +0.000 NA
ATOM     32  C   UNL     1      -1.367  13.139  21.348  0.00  0.00    +0.000 A 
ENDBRANCH  26  32
ENDBRANCH  22  26
ENDBRANCH   1  22
TORSDOF 5
ENDMDL
MODEL 3
REMARK VINA RESULT:      -8.0      0.710      1.172
REMARK  Name = 
REMARK  6 active torsions:
REMARK  status: ('A' for Active; 'I' for Inactive)
REMARK    1  A    between atoms: C_1  and  N_2
REMARK    2  A    between atoms: C_6  and  C_7
REMARK    3  A    between atoms: C_7  and  C_8
REMARK    4  A    between atoms: C_8  and  C_9
REMARK    5  A    between atoms: C_13  and  N_14
REMARK    6  A    between atoms: C_19  and  C_20
REMARK                            x       y       z     vdW  Elec       q    Type
REMARK                         _______ _______ _______ _____ _____    ______ ____
ROOT
ATOM      1  C   UNL     1       2.177   5.238  19.502  0.00  0.00    +0.000 A 
ATOM      2  C   UNL     1       2.358   5.913  18.273  0.00  0.00    +0.000 A 
ATOM      3  C   UNL     1       2.544   7.282  18.204  0.00  0.00    +0.000 A 
ATOM      4  C   UNL     1       2.362   8.027  19.344  0.00  0.00    +0.000 A 
ATOM      5  C   UNL     1       1.785   7.422  20.459  0.00  0.00    +0.000 A 
ATOM      6  C   UNL     1       1.870   6.040  20.618  0.00  0.00    +0.000 A 
ENDROOT
BRANCH   5   7
ATOM      7  N   UNL     1       0.835   8.175  21.208  0.00  0.00    +0.000 N 
ATOM      8  C   UNL     1      -0.503   8.346  20.613  0.00  0.00    +0.000 C 
ATOM      9  C   UNL     1      -0.484   9.794  20.360  0.00  0.00    +0.000 A 
ATOM     10  C   UNL     1       0.499  10.396  21.177  0.00  0.00    +0.000 A 
ATOM     11  C   UNL     1       0.809  11.732  21.308  0.00  0.00    +0.000 A 
ATOM     12  C   UNL     1       0.178  12.584  20.439  0.00  0.00    +0.000 A 
ATOM     13  C   UNL     1      -0.662  11.984  19.503  0.00  0.00    +0.000 A 
ATOM     14  C   UNL     1      -1.064  10.636  19.398  0.00  0.00    +0.000 A 
ATOM     15  C   UNL     1      -1.984  10.409  18.235  0.00  0.00    +0.000 C 
ATOM     16  C   UNL     1      -2.083  11.801  17.563  0.00  0.00    +0.000 C 
ATOM     17  C   UNL     1      -1.236  12.796  18.376  0.00  0.00    +0.000 C 
ATOM     18  C   UNL     1       1.286   9.354  21.827  0.00  0.00    +0.000 C 
ATOM     19  O   UNL     1       2.213   9.431  22.625  0.00  0.00    +0.000 OA
BRANCH  12  20
ATOM     20  C   UNL     1       0.430  14.055  20.467  0.00  0.00    +0.000 C 
ATOM     21  F   UNL     1       1.356  14.452  19.553  0.00  0.00    +0.000 F 
ENDBRANCH  12  20
ENDBRANCH   5   7
BRANCH   1  22
ATOM     22  C   UNL     1       2.281   3.638  19.556  0.00  0.00    +0.000 C 
ATOM     23  C   UNL     1       1.326   2.928  20.565  0.00  0.00    +0.000 C 
ATOM     24  O   UNL     1       0.623   2.240  19.511  0.00  0.00    +0.000 OA
ATOM     25  C   UNL     1       1.443   2.862  18.503  0.00  0.00    +0.000 C 
BRANCH  22  26
ATOM     26  C   UNL     1       3.752   3.180  19.594  0.00  0.00    +0.000 C 
BRANCH  26  32
ATOM     27  C   UNL     1       6.092   5.325  19.371  0.00  0.00    +0.000 C 
ATOM     28  N   UNL     1       5.515   4.533  18.318  0.00  0.00    +0.000 N 
ATOM     29  C   UNL     1       5.861   4.626  16.996  0.00  0.00    +0.000 A 
ATOM     30  N   UNL     1       5.169   3.754  16.307  0.00  0.00    +0.000 NA
ATOM     31  N   UNL     1       4.322   3.115  17.170  0.00  0.00    +0.000 NA
ATOM     32  C   UNL     1       4.524   3.589  18.385  0.00  0.00    +0.000 A 
ENDBRANCH  26  32
ENDBRANCH  22  26
ENDBRANCH   1  22
TORSDOF 5
ENDMDL
MODEL 4
REMARK VINA RESULT:      -7.9      2.023      2.926
REMARK  Name = 
REMARK  6 active torsions:
REMARK  status: ('A' for Active; 'I' for Inactive)
REMARK    1  A    between atoms: C_1  and  N_2
REMARK    2  A    between atoms: C_6  and  C_7
REMARK    3  A    between atoms: C_7  and  C_8
REMARK    4  A    between atoms: C_8  and  C_9
REMARK    5  A    between atoms: C_13  and  N_14
REMARK    6  A    between atoms: C_19  and  C_20
REMARK                            x       y       z     vdW  Elec       q    Type
REMARK                         _______ _______ _______ _____ _____    ______ ____
ROOT
ATOM      1  C   UNL     1       2.652   4.480  19.061  0.00  0.00    +0.000 A 
ATOM      2  C   UNL     1       2.247   4.121  20.368  0.00  0.00    +0.000 A 
ATOM      3  C   UNL     1       1.399   4.913  21.121  0.00  0.00    +0.000 A 
ATOM      4  C   UNL     1       1.092   6.169  20.658  0.00  0.00    +0.000 A 
ATOM      5  C   UNL     1       1.810   6.684  19.580  0.00  0.00    +0.000 A 
ATOM      6  C   UNL     1       2.425   5.816  18.680  0.00  0.00    +0.000 A 
ENDROOT
BRANCH   5   7
ATOM      7  N   UNL     1       2.189   8.057  19.627  0.00  0.00    +0.000 N 
ATOM      8  C   UNL     1       2.140   8.720  20.943  0.00  0.00    +0.000 C 
ATOM      9  C   UNL     1       1.046   9.672  20.706  0.00  0.00    +0.000 A 
ATOM     10  C   UNL     1       0.885   9.860  19.315  0.00  0.00    +0.000 A 
ATOM     11  C   UNL     1       0.025  10.710  18.655  0.00  0.00    +0.000 A 
ATOM     12  C   UNL     1      -0.892  11.365  19.436  0.00  0.00    +0.000 A 
ATOM     13  C   UNL     1      -0.865  11.052  20.794  0.00  0.00    +0.000 A 
ATOM     14  C   UNL     1       0.053  10.257  21.510  0.00  0.00    +0.000 A 
ATOM     15  C   UNL     1      -0.284  10.177  22.969  0.00  0.00    +0.000 C 
ATOM     16  C   UNL     1      -1.592  10.998  23.093  0.00  0.00    +0.000 C 
ATOM     17  C   UNL     1      -1.955  11.548  21.703  0.00  0.00    +0.000 C 
ATOM     18  C   UNL     1       1.715   8.895  18.603  0.00  0.00    +0.000 C 
ATOM     19  O   UNL     1       1.892   8.723  17.402  0.00  0.00    +0.000 OA
BRANCH  12  20
ATOM     20  C   UNL     1      -1.888  12.307  18.847  0.00  0.00    +0.000 C 
ATOM     21  F   UNL     1      -2.886  11.672  18.177  0.00  0.00    +0.000 F 
ENDBRANCH  12  20
ENDBRANCH   5   7
BRANCH   1  22
ATOM     22  C   UNL     1       3.369   3.394  18.122  0.00  0.00    +0.000 C 
ATOM     23  C   UNL     1       4.111   2.239  18.863  0.00  0.00    +0.000 C 
ATOM     24  O   UNL     1       3.231   1.237  18.315  0.00  0.00    +0.000 OA
ATOM     25  C   UNL     1       2.471   2.236  17.607  0.00  0.00    +0.000 C 
BRANCH  22  26
ATOM     26  C   UNL     1       4.159   4.077  16.989  0.00  0.00    +0.000 C 
BRANCH  26  32
ATOM     27  C   UNL     1       6.673   4.287  15.048  0.00  0.00    +0.000 C 
ATOM     28  N   UNL     1       6.652   4.396  16.482  0.00  0.00    +0.000 N 
ATOM     29  C   UNL     1       7.762   4.558  17.267  0.00  0.00    +0.000 A 
ATOM     30  N   UNL     1       7.396   4.646  18.521  0.00  0.00    +0.000 NA
ATOM     31  N   UNL     1       6.038   4.490  18.572  0.00  0.00    +0.000 NA
ATOM     32  C   UNL     1       5.587   4.331  17.342  0.00  0.00    +0.000 A 
ENDBRANCH  26  32
ENDBRANCH  22  26
ENDBRANCH   1  22
TORSDOF 5
ENDMDL
MODEL 5
REMARK VINA RESULT:      -7.8      2.818      3.883
REMARK  Name = 
REMARK  6 active torsions:
REMARK  status: ('A' for Active; 'I' for Inactive)
REMARK    1  A    between atoms: C_1  and  N_2
REMARK    2  A    between atoms: C_6  and  C_7
REMARK    3  A    between atoms: C_7  and  C_8
REMARK    4  A    between atoms: C_8  and  C_9
REMARK    5  A    between atoms: C_13  and  N_14
REMARK    6  A    between atoms: C_19  and  C_20
REMARK                            x       y       z     vdW  Elec       q    Type
REMARK                         _______ _______ _______ _____ _____    ______ ____
ROOT
ATOM      1  C   UNL     1       2.344   7.359  19.098  0.00  0.00    +0.000 A 
ATOM      2  C   UNL     1       2.332   7.384  20.512  0.00  0.00    +0.000 A 
ATOM      3  C   UNL     1       1.330   8.011  21.230  0.00  0.00    +0.000 A 
ATOM      4  C   UNL     1       0.424   8.789  20.551  0.00  0.00    +0.000 A 
ATOM      5  C   UNL     1       0.673   9.101  19.215  0.00  0.00    +0.000 A 
ATOM      6  C   UNL     1       1.483   8.265  18.449  0.00  0.00    +0.000 A 
ENDROOT
BRANCH   5   7
ATOM      7  N   UNL     1       0.387  10.426  18.776  0.00  0.00    +0.000 N 
ATOM      8  C   UNL     1       0.763  11.526  19.682  0.00  0.00    +0.000 C 
ATOM      9  C   UNL     1      -0.572  12.024  20.043  0.00  0.00    +0.000 A 
ATOM     10  C   UNL     1      -1.504  11.601  19.070  0.00  0.00    +0.000 A 
ATOM     11  C   UNL     1      -2.848  11.894  18.980  0.00  0.00    +0.000 A 
ATOM     12  C   UNL     1      -3.388  12.574  20.042  0.00  0.00    +0.000 A 
ATOM     13  C   UNL     1      -2.517  12.842  21.096  0.00  0.00    +0.000 A 
ATOM     14  C   UNL     1      -1.125  12.633  21.181  0.00  0.00    +0.000 A 
ATOM     15  C   UNL     1      -0.568  13.064  22.505  0.00  0.00    +0.000 C 
ATOM     16  C   UNL     1      -1.812  13.540  23.295  0.00  0.00    +0.000 C 
ATOM     17  C   UNL     1      -3.049  13.392  22.390  0.00  0.00    +0.000 C 
ATOM     18  C   UNL     1      -0.860  10.653  18.169  0.00  0.00    +0.000 C 
ATOM     19  O   UNL     1      -1.291  10.064  17.183  0.00  0.00    +0.000 OA
BRANCH  12  20
ATOM     20  C   UNL     1      -4.833  12.946  20.077  0.00  0.00    +0.000 C 
ATOM     21  F   UNL     1      -5.600  12.030  20.728  0.00  0.00    +0.000 F 
ENDBRANCH  12  20
ENDBRANCH   5   7
BRANCH   1  22
ATOM     22  C   UNL     1       3.337   6.364  18.326  0.00  0.00    +0.000 C 
ATOM     23  C   UNL     1       4.362   5.600  19.220  0.00  0.00    +0.000 C 
ATOM     24  O   UNL     1       3.795   4.318  18.883  0.00  0.00    +0.000 OA
ATOM     25  C   UNL     1       2.796   4.935  18.049  0.00  0.00    +0.000 C 
BRANCH  22  26
ATOM     26  C   UNL     1       3.919   7.030  17.064  0.00  0.00    +0.000 C 
BRANCH  26  32
ATOM     27  C   UNL     1       5.041   4.461  15.556  0.00  0.00    +0.000 C 
ATOM     28  N   UNL     1       5.791   5.526  16.168  0.00  0.00    +0.000 N 
ATOM     29  C   UNL     1       7.158   5.570  16.246  0.00  0.00    +0.000 A 
ATOM     30  N   UNL     1       7.520   6.680  16.839  0.00  0.00    +0.000 NA
ATOM     31  N   UNL     1       6.385   7.351  17.201  0.00  0.00    +0.000 NA
ATOM     32  C   UNL     1       5.339   6.652  16.804  0.00  0.00    +0.000 A 
ENDBRANCH  26  32
ENDBRANCH  22  26
ENDBRANCH   1  22
TORSDOF 5
ENDMDL
MODEL 6
REMARK VINA RESULT:      -7.8      3.052      4.300
REMARK  Name = 
REMARK  6 active torsions:
REMARK  status: ('A' for Active; 'I' for Inactive)
REMARK    1  A    between atoms: C_1  and  N_2
REMARK    2  A    between atoms: C_6  and  C_7
REMARK    3  A    between atoms: C_7  and  C_8
REMARK    4  A    between atoms: C_8  and  C_9
REMARK    5  A    between atoms: C_13  and  N_14
REMARK    6  A    between atoms: C_19  and  C_20
REMARK                            x       y       z     vdW  Elec       q    Type
REMARK                         _______ _______ _______ _____ _____    ______ ____
ROOT
ATOM      1  C   UNL     1       2.161   7.329  19.238  0.00  0.00    +0.000 A 
ATOM      2  C   UNL     1       2.278   7.394  20.646  0.00  0.00    +0.000 A 
ATOM      3  C   UNL     1       1.378   8.096  21.428  0.00  0.00    +0.000 A 
ATOM      4  C   UNL     1       0.457   8.902  20.806  0.00  0.00    +0.000 A 
ATOM      5  C   UNL     1       0.600   9.161  19.443  0.00  0.00    +0.000 A 
ATOM      6  C   UNL     1       1.294   8.261  18.637  0.00  0.00    +0.000 A 
ENDROOT
BRANCH   5   7
ATOM      7  N   UNL     1       0.345  10.487  18.987  0.00  0.00    +0.000 N 
ATOM      8  C   UNL     1       0.703  11.589  19.900  0.00  0.00    +0.000 C 
ATOM      9  C   UNL     1      -0.638  12.104  20.211  0.00  0.00    +0.000 A 
ATOM     10  C   UNL     1      -1.542  11.685  19.209  0.00  0.00    +0.000 A 
ATOM     11  C   UNL     1      -2.877  11.993  19.072  0.00  0.00    +0.000 A 
ATOM     12  C   UNL     1      -3.445  12.686  20.110  0.00  0.00    +0.000 A 
ATOM     13  C   UNL     1      -2.608  12.951  21.192  0.00  0.00    +0.000 A 
ATOM     14  C   UNL     1      -1.223  12.726  21.327  0.00  0.00    +0.000 A 
ATOM     15  C   UNL     1      -0.706  13.159  22.666  0.00  0.00    +0.000 C 
ATOM     16  C   UNL     1      -1.971  13.653  23.410  0.00  0.00    +0.000 C 
ATOM     17  C   UNL     1      -3.178  13.514  22.465  0.00  0.00    +0.000 C 
ATOM     18  C   UNL     1      -0.878  10.725  18.336  0.00  0.00    +0.000 C 
ATOM     19  O   UNL     1      -1.281  10.135  17.340  0.00  0.00    +0.000 OA
BRANCH  12  20
ATOM     20  C   UNL     1      -4.887  13.075  20.094  0.00  0.00    +0.000 C 
ATOM     21  F   UNL     1      -5.668  12.185  19.425  0.00  0.00    +0.000 F 
ENDBRANCH  12  20
ENDBRANCH   5   7
BRANCH   1  22
ATOM     22  C   UNL     1       3.029   6.260  18.415  0.00  0.00    +0.000 C 
ATOM     23  C   UNL     1       4.072   6.853  17.419  0.00  0.00    +0.000 C 
ATOM     24  O   UNL     1       5.182   6.286  18.145  0.00  0.00    +0.000 OA
ATOM     25  C   UNL     1       4.297   5.714  19.127  0.00  0.00    +0.000 C 
BRANCH  22  26
ATOM     26  C   UNL     1       2.136   5.135  17.855  0.00  0.00    +0.000 C 
BRANCH  26  32
ATOM     27  C   UNL     1       3.357   2.195  17.905  0.00  0.00    +0.000 C 
ATOM     28  N   UNL     1       2.413   2.777  18.822  0.00  0.00    +0.000 N 
ATOM     29  C   UNL     1       1.829   2.109  19.866  0.00  0.00    +0.000 A 
ATOM     30  N   UNL     1       1.041   2.929  20.516  0.00  0.00    +0.000 NA
ATOM     31  N   UNL     1       1.064   4.133  19.868  0.00  0.00    +0.000 NA
ATOM     32  C   UNL     1       1.886   4.041  18.840  0.00  0.00    +0.000 A 
ENDBRANCH  26  32
ENDBRANCH  22  26
ENDBRANCH   1  22
TORSDOF 5
ENDMDL
MODEL 7
REMARK VINA RESULT:      -7.8      3.016      4.330
REMARK  Name = 
REMARK  6 active torsions:
REMARK  status: ('A' for Active; 'I' for Inactive)
REMARK    1  A    between atoms: C_1  and  N_2
REMARK    2  A    between atoms: C_6  and  C_7
REMARK    3  A    between atoms: C_7  and  C_8
REMARK    4  A    between atoms: C_8  and  C_9
REMARK    5  A    between atoms: C_13  and  N_14
REMARK    6  A    between atoms: C_19  and  C_20
REMARK                            x       y       z     vdW  Elec       q    Type
REMARK                         _______ _______ _______ _____ _____    ______ ____
ROOT
ATOM      1  C   UNL     1       2.114   7.384  19.203  0.00  0.00    +0.000 A 
ATOM      2  C   UNL     1       2.242   7.396  20.611  0.00  0.00    +0.000 A 
ATOM      3  C   UNL     1       1.353   8.072  21.428  0.00  0.00    +0.000 A 
ATOM      4  C   UNL     1       0.430   8.905  20.844  0.00  0.00    +0.000 A 
ATOM      5  C   UNL     1       0.563   9.215  19.491  0.00  0.00    +0.000 A 
ATOM      6  C   UNL     1       1.247   8.343  18.646  0.00  0.00    +0.000 A 
ENDROOT
BRANCH   5   7
ATOM      7  N   UNL     1       0.311  10.558  19.088  0.00  0.00    +0.000 N 
ATOM      8  C   UNL     1       0.603  11.618  20.070  0.00  0.00    +0.000 C 
ATOM      9  C   UNL     1      -0.760  12.099  20.336  0.00  0.00    +0.000 A 
ATOM     10  C   UNL     1      -1.604  11.718  19.269  0.00  0.00    +0.000 A 
ATOM     11  C   UNL     1      -2.936  12.014  19.077  0.00  0.00    +0.000 A 
ATOM     12  C   UNL     1      -3.568  12.647  20.117  0.00  0.00    +0.000 A 
ATOM     13  C   UNL     1      -2.792  12.869  21.253  0.00  0.00    +0.000 A 
ATOM     14  C   UNL     1      -1.412  12.656  21.449  0.00  0.00    +0.000 A 
ATOM     15  C   UNL     1      -0.972  13.029  22.833  0.00  0.00    +0.000 C 
ATOM     16  C   UNL     1      -2.281  13.469  23.533  0.00  0.00    +0.000 C 
ATOM     17  C   UNL     1      -3.435  13.360  22.520  0.00  0.00    +0.000 C 
ATOM     18  C   UNL     1      -0.880  10.811  18.386  0.00  0.00    +0.000 C 
ATOM     19  O   UNL     1      -1.223  10.266  17.343  0.00  0.00    +0.000 OA
BRANCH  12  20
ATOM     20  C   UNL     1      -5.012  13.016  20.045  0.00  0.00    +0.000 C 
ATOM     21  F   UNL     1      -5.826  12.085  20.611  0.00  0.00    +0.000 F 
ENDBRANCH  12  20
ENDBRANCH   5   7
BRANCH   1  22
ATOM     22  C   UNL     1       2.970   6.344  18.333  0.00  0.00    +0.000 C 
ATOM     23  C   UNL     1       4.083   6.964  17.433  0.00  0.00    +0.000 C 
ATOM     24  O   UNL     1       5.132   6.289  18.156  0.00  0.00    +0.000 OA
ATOM     25  C   UNL     1       4.179   5.683  19.051  0.00  0.00    +0.000 C 
BRANCH  22  26
ATOM     26  C   UNL     1       2.055   5.310  17.647  0.00  0.00    +0.000 C 
BRANCH  26  32
ATOM     27  C   UNL     1       0.978   3.916  20.298  0.00  0.00    +0.000 C 
ATOM     28  N   UNL     1       1.825   3.350  19.282  0.00  0.00    +0.000 N 
ATOM     29  C   UNL     1       2.364   2.092  19.331  0.00  0.00    +0.000 A 
ATOM     30  N   UNL     1       3.063   1.880  18.244  0.00  0.00    +0.000 NA
ATOM     31  N   UNL     1       3.029   3.023  17.494  0.00  0.00    +0.000 NA
ATOM     32  C   UNL     1       2.288   3.915  18.123  0.00  0.00    +0.000 A 
ENDBRANCH  26  32
ENDBRANCH  22  26
ENDBRANCH   1  22
TORSDOF 5
ENDMDL
MODEL 8
REMARK VINA RESULT:      -7.7      2.090      3.097
REMARK  Name = 
REMARK  6 active torsions:
REMARK  status: ('A' for Active; 'I' for Inactive)
REMARK    1  A    between atoms: C_1  and  N_2
REMARK    2  A    between atoms: C_6  and  C_7
REMARK    3  A    between atoms: C_7  and  C_8
REMARK    4  A    between atoms: C_8  and  C_9
REMARK    5  A    between atoms: C_13  and  N_14
REMARK    6  A    between atoms: C_19  and  C_20
REMARK                            x       y       z     vdW  Elec       q    Type
REMARK                         _______ _______ _______ _____ _____    ______ ____
ROOT
ATOM      1  C   UNL     1       2.736   4.693  18.979  0.00  0.00    +0.000 A 
ATOM      2  C   UNL     1       2.450   4.309  20.310  0.00  0.00    +0.000 A 
ATOM      3  C   UNL     1       1.629   5.058  21.134  0.00  0.00    +0.000 A 
ATOM      4  C   UNL     1       1.232   6.302  20.708  0.00  0.00    +0.000 A 
ATOM      5  C   UNL     1       1.841   6.855  19.582  0.00  0.00    +0.000 A 
ATOM      6  C   UNL     1       2.421   6.020  18.630  0.00  0.00    +0.000 A 
ENDROOT
BRANCH   5   7
ATOM      7  N   UNL     1       2.161   8.243  19.613  0.00  0.00    +0.000 N 
ATOM      8  C   UNL     1       2.112   8.913  20.925  0.00  0.00    +0.000 C 
ATOM      9  C   UNL     1       0.973   9.816  20.707  0.00  0.00    +0.000 A 
ATOM     10  C   UNL     1       0.774   9.986  19.319  0.00  0.00    +0.000 A 
ATOM     11  C   UNL     1      -0.136  10.794  18.673  0.00  0.00    +0.000 A 
ATOM     12  C   UNL     1      -1.062  11.415  19.471  0.00  0.00    +0.000 A 
ATOM     13  C   UNL     1      -0.992  11.113  20.829  0.00  0.00    +0.000 A 
ATOM     14  C   UNL     1      -0.025  10.363  21.530  0.00  0.00    +0.000 A 
ATOM     15  C   UNL     1      -0.327  10.279  22.996  0.00  0.00    +0.000 C 
ATOM     16  C   UNL     1      -1.666  11.044  23.144  0.00  0.00    +0.000 C 
ATOM     17  C   UNL     1      -2.083  11.569  21.759  0.00  0.00    +0.000 C 
ATOM     18  C   UNL     1       1.629   9.053  18.594  0.00  0.00    +0.000 C 
ATOM     19  O   UNL     1       1.787   8.881  17.391  0.00  0.00    +0.000 OA
BRANCH  12  20
ATOM     20  C   UNL     1      -2.111  12.310  18.898  0.00  0.00    +0.000 C 
ATOM     21  F   UNL     1      -3.253  11.647  18.573  0.00  0.00    +0.000 F 
ENDBRANCH  12  20
ENDBRANCH   5   7
BRANCH   1  22
ATOM     22  C   UNL     1       3.424   3.647  17.978  0.00  0.00    +0.000 C 
ATOM     23  C   UNL     1       4.217   2.484  18.650  0.00  0.00    +0.000 C 
ATOM     24  O   UNL     1       3.328   1.483  18.114  0.00  0.00    +0.000 OA
ATOM     25  C   UNL     1       2.521   2.489  17.471  0.00  0.00    +0.000 C 
BRANCH  22  26
ATOM     26  C   UNL     1       4.151   4.374  16.830  0.00  0.00    +0.000 C 
BRANCH  26  32
ATOM     27  C   UNL     1       5.846   5.573  19.243  0.00  0.00    +0.000 C 
ATOM     28  N   UNL     1       6.335   4.945  18.044  0.00  0.00    +0.000 N 
ATOM     29  C   UNL     1       7.659   4.812  17.720  0.00  0.00    +0.000 A 
ATOM     30  N   UNL     1       7.763   4.176  16.580  0.00  0.00    +0.000 NA
ATOM     31  N   UNL     1       6.498   3.931  16.121  0.00  0.00    +0.000 NA
ATOM     32  C   UNL     1       5.634   4.402  17.000  0.00  0.00    +0.000 A 
ENDBRANCH  26  32
ENDBRANCH  22  26
ENDBRANCH   1  22
TORSDOF 5
ENDMDL
MODEL 9
REMARK VINA RESULT:      -7.7      2.406      3.437
REMARK  Name = 
REMARK  6 active torsions:
REMARK  status: ('A' for Active; 'I' for Inactive)
REMARK    1  A    between atoms: C_1  and  N_2
REMARK    2  A    between atoms: C_6  and  C_7
REMARK    3  A    between atoms: C_7  and  C_8
REMARK    4  A    between atoms: C_8  and  C_9
REMARK    5  A    between atoms: C_13  and  N_14
REMARK    6  A    between atoms: C_19  and  C_20
REMARK                            x       y       z     vdW  Elec       q    Type
REMARK                         _______ _______ _______ _____ _____    ______ ____
ROOT
ATOM      1  C   UNL     1       2.534   7.313  18.593  0.00  0.00    +0.000 A 
ATOM      2  C   UNL     1       2.936   8.194  17.564  0.00  0.00    +0.000 A 
ATOM      3  C   UNL     1       2.730   9.560  17.639  0.00  0.00    +0.000 A 
ATOM      4  C   UNL     1       1.948  10.050  18.656  0.00  0.00    +0.000 A 
ATOM      5  C   UNL     1       1.213   9.154  19.432  0.00  0.00    +0.000 A 
ATOM      6  C   UNL     1       1.632   7.830  19.543  0.00  0.00    +0.000 A 
ENDROOT
BRANCH   5   7
ATOM      7  N   UNL     1      -0.115   9.521  19.794  0.00  0.00    +0.000 N 
ATOM      8  C   UNL     1      -0.774  10.550  18.969  0.00  0.00    +0.000 C 
ATOM      9  C   UNL     1      -0.870  11.639  19.950  0.00  0.00    +0.000 A 
ATOM     10  C   UNL     1      -0.762  11.103  21.252  0.00  0.00    +0.000 A 
ATOM     11  C   UNL     1      -0.862  11.754  22.462  0.00  0.00    +0.000 A 
ATOM     12  C   UNL     1      -0.944  13.122  22.405  0.00  0.00    +0.000 A 
ATOM     13  C   UNL     1      -0.870  13.681  21.131  0.00  0.00    +0.000 A 
ATOM     14  C   UNL     1      -0.853  13.042  19.874  0.00  0.00    +0.000 A 
ATOM     15  C   UNL     1      -0.764  14.021  18.742  0.00  0.00    +0.000 C 
ATOM     16  C   UNL     1      -0.673  15.397  19.448  0.00  0.00    +0.000 C 
ATOM     17  C   UNL     1      -0.737  15.170  20.969  0.00  0.00    +0.000 C 
ATOM     18  C   UNL     1      -0.389   9.696  21.162  0.00  0.00    +0.000 C 
ATOM     19  O   UNL     1      -0.213   8.856  22.037  0.00  0.00    +0.000 OA
BRANCH  12  20
ATOM     20  C   UNL     1      -1.048  13.950  23.643  0.00  0.00    +0.000 C 
ATOM     21  F   UNL     1      -2.253  13.830  24.261  0.00  0.00    +0.000 F 
ENDBRANCH  12  20
ENDBRANCH   5   7
BRANCH   1  22
ATOM     22  C   UNL     1       3.070   5.801  18.604  0.00  0.00    +0.000 C 
ATOM     23  C   UNL     1       4.025   5.411  17.434  0.00  0.00    +0.000 C 
ATOM     24  O   UNL     1       5.127   5.165  18.332  0.00  0.00    +0.000 OA
ATOM     25  C   UNL     1       4.327   5.527  19.474  0.00  0.00    +0.000 C 
BRANCH  22  26
ATOM     26  C   UNL     1       1.926   4.809  18.891  0.00  0.00    +0.000 C 
BRANCH  26  32
ATOM     27  C   UNL     1       3.343   1.962  19.025  0.00  0.00    +0.000 C 
ATOM     28  N   UNL     1       2.776   2.719  20.108  0.00  0.00    +0.000 N 
ATOM     29  C   UNL     1       2.708   2.289  21.407  0.00  0.00    +0.000 A 
ATOM     30  N   UNL     1       2.159   3.222  22.143  0.00  0.00    +0.000 NA
ATOM     31  N   UNL     1       1.815   4.257  21.318  0.00  0.00    +0.000 NA
ATOM     32  C   UNL     1       2.180   3.953  20.087  0.00  0.00    +0.000 A 
ENDBRANCH  26  32
ENDBRANCH  22  26
ENDBRANCH   1  22
TORSDOF 5
ENDMDL
