MODEL 1
REMARK VINA RESULT:      -8.3      0.000      0.000
REMARK  Name = 
REMARK  3 active torsions:
REMARK  status: ('A' for Active; 'I' for Inactive)
REMARK    1  A    between atoms: C_1  and  C_2
REMARK    2  A    between atoms: C_4  and  C_5
REMARK    3  A    between atoms: N_7  and  C_8
REMARK                            x       y       z     vdW  Elec       q    Type
REMARK                         _______ _______ _______ _____ _____    ______ ____
ROOT
ATOM      1  C   UNL     1       2.467   7.700  18.558  0.00  0.00    +0.000 C 
ATOM      2  O   UNL     1       2.088   7.590  19.719  0.00  0.00    +0.000 OA
ATOM      3  N   UNL     1       2.018   8.670  17.667  0.00  0.00    +0.000 N 
ATOM      4  H   UNL     1       2.117   8.462  16.680  0.00  0.00    +0.000 HD
ENDROOT
BRANCH   3   5
ATOM      5  C   UNL     1       1.038   9.627  18.026  0.00  0.00    +0.000 A 
ATOM      6  C   UNL     1       1.487  10.867  18.537  0.00  0.00    +0.000 A 
ATOM      7  C   UNL     1       0.589  11.911  18.807  0.00  0.00    +0.000 A 
ATOM      8  C   UNL     1      -0.749  11.646  18.611  0.00  0.00    +0.000 A 
ATOM      9  N   UNL     1      -1.851  12.470  18.795  0.00  0.00    +0.000 N 
ATOM     10  C   UNL     1      -3.011  11.743  18.484  0.00  0.00    +0.000 A 
ATOM     11  O   UNL     1      -4.156  12.150  18.538  0.00  0.00    +0.000 OA
ATOM     12  N   UNL     1      -2.589  10.460  18.105  0.00  0.00    +0.000 N 
ATOM     13  C   UNL     1      -1.199  10.406  18.168  0.00  0.00    +0.000 A 
ATOM     14  C   UNL     1      -0.335   9.380  17.857  0.00  0.00    +0.000 A 
ATOM     15  H   UNL     1      -1.857  13.435  19.081  0.00  0.00    +0.000 HD
ATOM     16  H   UNL     1      -3.215   9.723  17.824  0.00  0.00    +0.000 HD
ENDBRANCH   3   5
BRANCH   1  20
ATOM     17  C   UNL     1       7.087   6.589  17.041  0.00  0.00    +0.000 C 
ATOM     18  C   UNL     1       5.669   6.204  17.329  0.00  0.00    +0.000 A 
ATOM     19  C   UNL     1       4.729   7.138  17.727  0.00  0.00    +0.000 A 
ATOM     20  C   UNL     1       3.432   6.699  18.009  0.00  0.00    +0.000 A 
ATOM     21  C   UNL     1       3.094   5.324  17.874  0.00  0.00    +0.000 A 
ATOM     22  C   UNL     1       1.812   4.755  18.104  0.00  0.00    +0.000 A 
ATOM     23  C   UNL     1       1.590   3.384  17.973  0.00  0.00    +0.000 A 
ATOM     24  C   UNL     1       2.638   2.548  17.614  0.00  0.00    +0.000 A 
ATOM     25  C   UNL     1       3.896   3.097  17.369  0.00  0.00    +0.000 A 
ATOM     26  C   UNL     1       4.137   4.459  17.484  0.00  0.00    +0.000 A 
ATOM     27  N   UNL     1       5.378   4.891  17.209  0.00  0.00    +0.000 NA
ENDBRANCH   1  20
TORSDOF 2
ENDMDL
MODEL 2
REMARK VINA RESULT:      -8.1      1.264      1.845
REMARK  Name = 
REMARK  3 active torsions:
REMARK  status: ('A' for Active; 'I' for Inactive)
REMARK    1  A    between atoms: C_1  and  C_2
REMARK    2  A    between atoms: C_4  and  C_5
REMARK    3  A    between atoms: N_7  and  C_8
REMARK                            x       y       z     vdW  Elec       q    Type
REMARK                         _______ _______ _______ _____ _____    ______ ____
ROOT
ATOM      1  C   UNL     1       2.565   7.626  18.513  0.00  0.00    +0.000 C 
ATOM      2  O   UNL     1       2.210   7.577  19.684  0.00  0.00    +0.000 OA
ATOM      3  N   UNL     1       2.179   8.611  17.608  0.00  0.00    +0.000 N 
ATOM      4  H   UNL     1       2.232   8.371  16.625  0.00  0.00    +0.000 HD
ENDROOT
BRANCH   3   5
ATOM      5  C   UNL     1       1.295   9.658  17.966  0.00  0.00    +0.000 A 
ATOM      6  C   UNL     1      -0.092   9.429  17.807  0.00  0.00    +0.000 A 
ATOM      7  C   UNL     1      -1.039  10.367  18.245  0.00  0.00    +0.000 A 
ATOM      8  C   UNL     1      -0.551  11.542  18.775  0.00  0.00    +0.000 A 
ATOM      9  N   UNL     1      -1.237  12.638  19.280  0.00  0.00    +0.000 N 
ATOM     10  C   UNL     1      -0.303  13.604  19.686  0.00  0.00    +0.000 A 
ATOM     11  O   UNL     1      -0.551  14.692  20.171  0.00  0.00    +0.000 OA
ATOM     12  N   UNL     1       0.966  13.069  19.419  0.00  0.00    +0.000 N 
ATOM     13  C   UNL     1       0.813  11.796  18.875  0.00  0.00    +0.000 A 
ATOM     14  C   UNL     1       1.762  10.875  18.491  0.00  0.00    +0.000 A 
ATOM     15  H   UNL     1      -2.233  12.751  19.374  0.00  0.00    +0.000 HD
ATOM     16  H   UNL     1       1.830  13.548  19.616  0.00  0.00    +0.000 HD
ENDBRANCH   3   5
BRANCH   1  20
ATOM     17  C   UNL     1       7.001   6.111  16.805  0.00  0.00    +0.000 C 
ATOM     18  C   UNL     1       5.578   5.844  17.192  0.00  0.00    +0.000 A 
ATOM     19  C   UNL     1       4.731   6.863  17.590  0.00  0.00    +0.000 A 
ATOM     20  C   UNL     1       3.425   6.533  17.966  0.00  0.00    +0.000 A 
ATOM     21  C   UNL     1       2.986   5.180  17.925  0.00  0.00    +0.000 A 
ATOM     22  C   UNL     1       1.683   4.717  18.255  0.00  0.00    +0.000 A 
ATOM     23  C   UNL     1       1.360   3.361  18.211  0.00  0.00    +0.000 A 
ATOM     24  C   UNL     1       2.325   2.435  17.840  0.00  0.00    +0.000 A 
ATOM     25  C   UNL     1       3.601   2.879  17.497  0.00  0.00    +0.000 A 
ATOM     26  C   UNL     1       3.942   4.224  17.525  0.00  0.00    +0.000 A 
ATOM     27  N   UNL     1       5.191   4.551  17.158  0.00  0.00    +0.000 NA
ENDBRANCH   1  20
TORSDOF 2
ENDMDL
MODEL 3
REMARK VINA RESULT:      -8.1      2.308      2.403
REMARK  Name = 
REMARK  3 active torsions:
REMARK  status: ('A' for Active; 'I' for Inactive)
REMARK    1  A    between atoms: C_1  and  C_2
REMARK    2  A    between atoms: C_4  and  C_5
REMARK    3  A    between atoms: N_7  and  C_8
REMARK                            x       y       z     vdW  Elec       q    Type
REMARK                         _______ _______ _______ _____ _____    ______ ____
ROOT
ATOM      1  C   UNL     1       2.651   7.724  18.128  0.00  0.00    +0.000 C 
ATOM      2  O   UNL     1       2.413   8.594  17.298  0.00  0.00    +0.000 OA
ATOM      3  N   UNL     1       2.171   7.721  19.434  0.00  0.00    +0.000 N 
ATOM      4  H   UNL     1       2.693   7.176  20.110  0.00  0.00    +0.000 HD
ENDROOT
BRANCH   3   5
ATOM      5  C   UNL     1       1.363   8.768  19.941  0.00  0.00    +0.000 A 
ATOM      6  C   UNL     1       1.015   9.817  19.058  0.00  0.00    +0.000 A 
ATOM      7  C   UNL     1       0.126  10.830  19.445  0.00  0.00    +0.000 A 
ATOM      8  C   UNL     1      -0.338  10.787  20.742  0.00  0.00    +0.000 A 
ATOM      9  N   UNL     1      -1.212  11.643  21.398  0.00  0.00    +0.000 N 
ATOM     10  C   UNL     1      -1.364  11.200  22.721  0.00  0.00    +0.000 A 
ATOM     11  O   UNL     1      -2.053  11.714  23.582  0.00  0.00    +0.000 OA
ATOM     12  N   UNL     1      -0.566  10.054  22.853  0.00  0.00    +0.000 N 
ATOM     13  C   UNL     1       0.052   9.792  21.633  0.00  0.00    +0.000 A 
ATOM     14  C   UNL     1       0.890   8.764  21.265  0.00  0.00    +0.000 A 
ATOM     15  H   UNL     1      -1.691  12.444  21.020  0.00  0.00    +0.000 HD
ATOM     16  H   UNL     1      -0.486   9.521  23.704  0.00  0.00    +0.000 HD
ENDBRANCH   3   5
BRANCH   1  20
ATOM     17  C   UNL     1       7.253   6.132  17.043  0.00  0.00    +0.000 C 
ATOM     18  C   UNL     1       5.797   5.880  17.287  0.00  0.00    +0.000 A 
ATOM     19  C   UNL     1       4.908   6.916  17.512  0.00  0.00    +0.000 A 
ATOM     20  C   UNL     1       3.569   6.602  17.764  0.00  0.00    +0.000 A 
ATOM     21  C   UNL     1       3.140   5.245  17.774  0.00  0.00    +0.000 A 
ATOM     22  C   UNL     1       1.809   4.795  17.990  0.00  0.00    +0.000 A 
ATOM     23  C   UNL     1       1.495   3.435  18.011  0.00  0.00    +0.000 A 
ATOM     24  C   UNL     1       2.498   2.495  17.821  0.00  0.00    +0.000 A 
ATOM     25  C   UNL     1       3.803   2.925  17.590  0.00  0.00    +0.000 A 
ATOM     26  C   UNL     1       4.136   4.272  17.556  0.00  0.00    +0.000 A 
ATOM     27  N   UNL     1       5.418   4.584  17.308  0.00  0.00    +0.000 NA
ENDBRANCH   1  20
TORSDOF 2
ENDMDL
MODEL 4
REMARK VINA RESULT:      -8.0      2.131      8.067
REMARK  Name = 
REMARK  3 active torsions:
REMARK  status: ('A' for Active; 'I' for Inactive)
REMARK    1  A    between atoms: C_1  and  C_2
REMARK    2  A    between atoms: C_4  and  C_5
REMARK    3  A    between atoms: N_7  and  C_8
REMARK                            x       y       z     vdW  Elec       q    Type
REMARK                         _______ _______ _______ _____ _____    ______ ____
ROOT
ATOM      1  C   UNL     1       1.434   9.316  18.288  0.00  0.00    +0.000 C 
ATOM      2  O   UNL     1       2.048   9.800  17.345  0.00  0.00    +0.000 OA
ATOM      3  N   UNL     1       1.654   8.043  18.808  0.00  0.00    +0.000 N 
ATOM      4  H   UNL     1       0.890   7.624  19.324  0.00  0.00    +0.000 HD
ENDROOT
BRANCH   3   5
ATOM      5  C   UNL     1       2.616   7.162  18.258  0.00  0.00    +0.000 A 
ATOM      6  C   UNL     1       2.331   5.776  18.288  0.00  0.00    +0.000 A 
ATOM      7  C   UNL     1       3.175   4.846  17.663  0.00  0.00    +0.000 A 
ATOM      8  C   UNL     1       4.320   5.340  17.078  0.00  0.00    +0.000 A 
ATOM      9  N   UNL     1       5.328   4.669  16.399  0.00  0.00    +0.000 N 
ATOM     10  C   UNL     1       6.300   5.601  16.005  0.00  0.00    +0.000 A 
ATOM     11  O   UNL     1       7.326   5.364  15.394  0.00  0.00    +0.000 OA
ATOM     12  N   UNL     1       5.859   6.854  16.456  0.00  0.00    +0.000 N 
ATOM     13  C   UNL     1       4.635   6.695  17.101  0.00  0.00    +0.000 A 
ATOM     14  C   UNL     1       3.804   7.633  17.671  0.00  0.00    +0.000 A 
ATOM     15  H   UNL     1       5.380   3.686  16.188  0.00  0.00    +0.000 HD
ATOM     16  H   UNL     1       6.363   7.713  16.308  0.00  0.00    +0.000 HD
ENDBRANCH   3   5
BRANCH   1  20
ATOM     17  C   UNL     1      -0.179  12.322  21.928  0.00  0.00    +0.000 C 
ATOM     18  C   UNL     1      -0.395  11.566  20.653  0.00  0.00    +0.000 A 
ATOM     19  C   UNL     1       0.584  10.745  20.121  0.00  0.00    +0.000 A 
ATOM     20  C   UNL     1       0.322  10.095  18.911  0.00  0.00    +0.000 A 
ATOM     21  C   UNL     1      -0.931  10.272  18.258  0.00  0.00    +0.000 A 
ATOM     22  C   UNL     1      -1.330   9.652  17.043  0.00  0.00    +0.000 A 
ATOM     23  C   UNL     1      -2.573   9.914  16.466  0.00  0.00    +0.000 A 
ATOM     24  C   UNL     1      -3.444  10.801  17.083  0.00  0.00    +0.000 A 
ATOM     25  C   UNL     1      -3.070  11.402  18.284  0.00  0.00    +0.000 A 
ATOM     26  C   UNL     1      -1.843  11.148  18.880  0.00  0.00    +0.000 A 
ATOM     27  N   UNL     1      -1.585  11.762  20.046  0.00  0.00    +0.000 NA
ENDBRANCH   1  20
TORSDOF 2
ENDMDL
MODEL 5
REMARK VINA RESULT:      -8.0      2.010      3.531
REMARK  Name = 
REMARK  3 active torsions:
REMARK  status: ('A' for Active; 'I' for Inactive)
REMARK    1  A    between atoms: C_1  and  C_2
REMARK    2  A    between atoms: C_4  and  C_5
REMARK    3  A    between atoms: N_7  and  C_8
REMARK                            x       y       z     vdW  Elec       q    Type
REMARK                         _______ _______ _______ _____ _____    ______ ____
ROOT
ATOM      1  C   UNL     1       2.253   7.368  18.806  0.00  0.00    +0.000 C 
ATOM      2  O   UNL     1       2.260   7.653  19.997  0.00  0.00    +0.000 OA
ATOM      3  N   UNL     1       1.879   8.236  17.785  0.00  0.00    +0.000 N 
ATOM      4  H   UNL     1       1.577   7.813  16.915  0.00  0.00    +0.000 HD
ENDROOT
BRANCH   3   5
ATOM      5  C   UNL     1       1.435   9.556  18.043  0.00  0.00    +0.000 A 
ATOM      6  C   UNL     1       0.049   9.755  18.246  0.00  0.00    +0.000 A 
ATOM      7  C   UNL     1      -0.459  11.008  18.621  0.00  0.00    +0.000 A 
ATOM      8  C   UNL     1       0.447  12.042  18.719  0.00  0.00    +0.000 A 
ATOM      9  N   UNL     1       0.240  13.371  19.062  0.00  0.00    +0.000 N 
ATOM     10  C   UNL     1       1.469  14.046  19.001  0.00  0.00    +0.000 A 
ATOM     11  O   UNL     1       1.659  15.225  19.234  0.00  0.00    +0.000 OA
ATOM     12  N   UNL     1       2.428  13.098  18.617  0.00  0.00    +0.000 N 
ATOM     13  C   UNL     1       1.802  11.863  18.459  0.00  0.00    +0.000 A 
ATOM     14  C   UNL     1       2.331  10.635  18.130  0.00  0.00    +0.000 A 
ATOM     15  H   UNL     1      -0.625  13.809  19.333  0.00  0.00    +0.000 HD
ATOM     16  H   UNL     1       3.406  13.305  18.497  0.00  0.00    +0.000 HD
ENDBRANCH   3   5
BRANCH   1  20
ATOM     17  C   UNL     1       1.104   2.516  18.652  0.00  0.00    +0.000 C 
ATOM     18  C   UNL     1       1.996   3.668  18.305  0.00  0.00    +0.000 A 
ATOM     19  C   UNL     1       1.749   4.945  18.779  0.00  0.00    +0.000 A 
ATOM     20  C   UNL     1       2.608   5.977  18.388  0.00  0.00    +0.000 A 
ATOM     21  C   UNL     1       3.713   5.707  17.533  0.00  0.00    +0.000 A 
ATOM     22  C   UNL     1       4.670   6.657  17.085  0.00  0.00    +0.000 A 
ATOM     23  C   UNL     1       5.704   6.296  16.220  0.00  0.00    +0.000 A 
ATOM     24  C   UNL     1       5.806   4.984  15.780  0.00  0.00    +0.000 A 
ATOM     25  C   UNL     1       4.884   4.040  16.226  0.00  0.00    +0.000 A 
ATOM     26  C   UNL     1       3.853   4.374  17.094  0.00  0.00    +0.000 A 
ATOM     27  N   UNL     1       3.028   3.389  17.481  0.00  0.00    +0.000 NA
ENDBRANCH   1  20
TORSDOF 2
ENDMDL
MODEL 6
REMARK VINA RESULT:      -8.0      1.103      1.162
REMARK  Name = 
REMARK  3 active torsions:
REMARK  status: ('A' for Active; 'I' for Inactive)
REMARK    1  A    between atoms: C_1  and  C_2
REMARK    2  A    between atoms: C_4  and  C_5
REMARK    3  A    between atoms: N_7  and  C_8
REMARK                            x       y       z     vdW  Elec       q    Type
REMARK                         _______ _______ _______ _____ _____    ______ ____
ROOT
ATOM      1  C   UNL     1       2.613   7.400  18.462  0.00  0.00    +0.000 C 
ATOM      2  O   UNL     1       2.478   7.399  19.680  0.00  0.00    +0.000 OA
ATOM      3  N   UNL     1       2.195   8.425  17.618  0.00  0.00    +0.000 N 
ATOM      4  H   UNL     1       2.034   8.179  16.649  0.00  0.00    +0.000 HD
ENDROOT
BRANCH   3   5
ATOM      5  C   UNL     1       1.535   9.579  18.105  0.00  0.00    +0.000 A 
ATOM      6  C   UNL     1       2.286  10.773  18.204  0.00  0.00    +0.000 A 
ATOM      7  C   UNL     1       1.681  11.986  18.566  0.00  0.00    +0.000 A 
ATOM      8  C   UNL     1       0.340  11.942  18.880  0.00  0.00    +0.000 A 
ATOM      9  N   UNL     1      -0.512  12.967  19.269  0.00  0.00    +0.000 N 
ATOM     10  C   UNL     1      -1.786  12.425  19.502  0.00  0.00    +0.000 A 
ATOM     11  O   UNL     1      -2.777  13.034  19.862  0.00  0.00    +0.000 OA
ATOM     12  N   UNL     1      -1.690  11.050  19.242  0.00  0.00    +0.000 N 
ATOM     13  C   UNL     1      -0.388  10.757  18.845  0.00  0.00    +0.000 A 
ATOM     14  C   UNL     1       0.173   9.562  18.453  0.00  0.00    +0.000 A 
ATOM     15  H   UNL     1      -0.297  13.945  19.362  0.00  0.00    +0.000 HD
ATOM     16  H   UNL     1      -2.461  10.408  19.325  0.00  0.00    +0.000 HD
ENDBRANCH   3   5
BRANCH   1  20
ATOM     17  C   UNL     1       6.259   5.402  15.705  0.00  0.00    +0.000 C 
ATOM     18  C   UNL     1       4.998   5.283  16.504  0.00  0.00    +0.000 A 
ATOM     19  C   UNL     1       4.366   6.394  17.033  0.00  0.00    +0.000 A 
ATOM     20  C   UNL     1       3.209   6.202  17.795  0.00  0.00    +0.000 A 
ATOM     21  C   UNL     1       2.697   4.891  18.004  0.00  0.00    +0.000 A 
ATOM     22  C   UNL     1       1.522   4.564  18.734  0.00  0.00    +0.000 A 
ATOM     23  C   UNL     1       1.118   3.239  18.908  0.00  0.00    +0.000 A 
ATOM     24  C   UNL     1       1.877   2.213  18.364  0.00  0.00    +0.000 A 
ATOM     25  C   UNL     1       3.021   2.522  17.632  0.00  0.00    +0.000 A 
ATOM     26  C   UNL     1       3.435   3.833  17.438  0.00  0.00    +0.000 A 
ATOM     27  N   UNL     1       4.541   4.028  16.701  0.00  0.00    +0.000 NA
ENDBRANCH   1  20
TORSDOF 2
ENDMDL
MODEL 7
REMARK VINA RESULT:      -7.9      1.854      2.340
REMARK  Name = 
REMARK  3 active torsions:
REMARK  status: ('A' for Active; 'I' for Inactive)
REMARK    1  A    between atoms: C_1  and  C_2
REMARK    2  A    between atoms: C_4  and  C_5
REMARK    3  A    between atoms: N_7  and  C_8
REMARK                            x       y       z     vdW  Elec       q    Type
REMARK                         _______ _______ _______ _____ _____    ______ ____
ROOT
ATOM      1  C   UNL     1       2.126   7.846  19.030  0.00  0.00    +0.000 C 
ATOM      2  O   UNL     1       1.798   8.036  20.195  0.00  0.00    +0.000 OA
ATOM      3  N   UNL     1       1.787   8.675  17.965  0.00  0.00    +0.000 N 
ATOM      4  H   UNL     1       1.799   8.259  17.042  0.00  0.00    +0.000 HD
ENDROOT
BRANCH   3   5
ATOM      5  C   UNL     1       0.988   9.832  18.136  0.00  0.00    +0.000 A 
ATOM      6  C   UNL     1      -0.405   9.705  17.921  0.00  0.00    +0.000 A 
ATOM      7  C   UNL     1      -1.281  10.770  18.181  0.00  0.00    +0.000 A 
ATOM      8  C   UNL     1      -0.713  11.956  18.592  0.00  0.00    +0.000 A 
ATOM      9  N   UNL     1      -1.319  13.162  18.916  0.00  0.00    +0.000 N 
ATOM     10  C   UNL     1      -0.321  14.088  19.258  0.00  0.00    +0.000 A 
ATOM     11  O   UNL     1      -0.490  15.246  19.589  0.00  0.00    +0.000 OA
ATOM     12  N   UNL     1       0.905  13.416  19.138  0.00  0.00    +0.000 N 
ATOM     13  C   UNL     1       0.662  12.102  18.745  0.00  0.00    +0.000 A 
ATOM     14  C   UNL     1       1.539  11.061  18.537  0.00  0.00    +0.000 A 
ATOM     15  H   UNL     1      -2.303  13.372  18.933  0.00  0.00    +0.000 HD
ATOM     16  H   UNL     1       1.798  13.840  19.328  0.00  0.00    +0.000 HD
ENDBRANCH   3   5
BRANCH   1  20
ATOM     17  C   UNL     1       5.712   5.642  16.351  0.00  0.00    +0.000 C 
ATOM     18  C   UNL     1       4.647   5.608  17.404  0.00  0.00    +0.000 A 
ATOM     19  C   UNL     1       3.846   6.707  17.662  0.00  0.00    +0.000 A 
ATOM     20  C   UNL     1       2.894   6.612  18.682  0.00  0.00    +0.000 A 
ATOM     21  C   UNL     1       2.754   5.405  19.422  0.00  0.00    +0.000 A 
ATOM     22  C   UNL     1       1.813   5.171  20.462  0.00  0.00    +0.000 A 
ATOM     23  C   UNL     1       1.775   3.957  21.150  0.00  0.00    +0.000 A 
ATOM     24  C   UNL     1       2.674   2.952  20.822  0.00  0.00    +0.000 A 
ATOM     25  C   UNL     1       3.590   3.164  19.793  0.00  0.00    +0.000 A 
ATOM     26  C   UNL     1       3.639   4.359  19.088  0.00  0.00    +0.000 A 
ATOM     27  N   UNL     1       4.545   4.458  18.102  0.00  0.00    +0.000 NA
ENDBRANCH   1  20
TORSDOF 2
ENDMDL
MODEL 8
REMARK VINA RESULT:      -7.9      2.609      8.159
REMARK  Name = 
REMARK  3 active torsions:
REMARK  status: ('A' for Active; 'I' for Inactive)
REMARK    1  A    between atoms: C_1  and  C_2
REMARK    2  A    between atoms: C_4  and  C_5
REMARK    3  A    between atoms: N_7  and  C_8
REMARK                            x       y       z     vdW  Elec       q    Type
REMARK                         _______ _______ _______ _____ _____    ______ ____
ROOT
ATOM      1  C   UNL     1       1.886   8.628  18.304  0.00  0.00    +0.000 C 
ATOM      2  O   UNL     1       2.511   9.012  17.323  0.00  0.00    +0.000 OA
ATOM      3  N   UNL     1       2.067   7.396  18.927  0.00  0.00    +0.000 N 
ATOM      4  H   UNL     1       1.291   7.046  19.477  0.00  0.00    +0.000 HD
ENDROOT
BRANCH   3   5
ATOM      5  C   UNL     1       2.998   6.442  18.451  0.00  0.00    +0.000 A 
ATOM      6  C   UNL     1       2.490   5.211  17.971  0.00  0.00    +0.000 A 
ATOM      7  C   UNL     1       3.332   4.259  17.376  0.00  0.00    +0.000 A 
ATOM      8  C   UNL     1       4.677   4.554  17.341  0.00  0.00    +0.000 A 
ATOM      9  N   UNL     1       5.733   3.814  16.826  0.00  0.00    +0.000 N 
ATOM     10  C   UNL     1       6.925   4.522  17.044  0.00  0.00    +0.000 A 
ATOM     11  O   UNL     1       8.045   4.169  16.727  0.00  0.00    +0.000 OA
ATOM     12  N   UNL     1       6.570   5.710  17.701  0.00  0.00    +0.000 N 
ATOM     13  C   UNL     1       5.187   5.736  17.868  0.00  0.00    +0.000 A 
ATOM     14  C   UNL     1       4.378   6.704  18.420  0.00  0.00    +0.000 A 
ATOM     15  H   UNL     1       5.690   2.927  16.353  0.00  0.00    +0.000 HD
ATOM     16  H   UNL     1       7.231   6.417  17.979  0.00  0.00    +0.000 HD
ENDBRANCH   3   5
BRANCH   1  20
ATOM     17  C   UNL     1      -2.127  11.493  17.544  0.00  0.00    +0.000 C 
ATOM     18  C   UNL     1      -1.140  10.825  18.451  0.00  0.00    +0.000 A 
ATOM     19  C   UNL     1      -0.061  10.116  17.954  0.00  0.00    +0.000 A 
ATOM     20  C   UNL     1       0.801   9.492  18.861  0.00  0.00    +0.000 A 
ATOM     21  C   UNL     1       0.571   9.601  20.261  0.00  0.00    +0.000 A 
ATOM     22  C   UNL     1       1.381   9.039  21.284  0.00  0.00    +0.000 A 
ATOM     23  C   UNL     1       1.052   9.178  22.633  0.00  0.00    +0.000 A 
ATOM     24  C   UNL     1      -0.093   9.876  22.993  0.00  0.00    +0.000 A 
ATOM     25  C   UNL     1      -0.886  10.446  22.000  0.00  0.00    +0.000 A 
ATOM     26  C   UNL     1      -0.572  10.329  20.653  0.00  0.00    +0.000 A 
ATOM     27  N   UNL     1      -1.390  10.930  19.774  0.00  0.00    +0.000 NA
ENDBRANCH   1  20
TORSDOF 2
ENDMDL
MODEL 9
REMARK VINA RESULT:      -7.9      2.019      2.192
REMARK  Name = 
REMARK  3 active torsions:
REMARK  status: ('A' for Active; 'I' for Inactive)
REMARK    1  A    between atoms: C_1  and  C_2
REMARK    2  A    between atoms: C_4  and  C_5
REMARK    3  A    between atoms: N_7  and  C_8
REMARK                            x       y       z     vdW  Elec       q    Type
REMARK                         _______ _______ _______ _____ _____    ______ ____
ROOT
ATOM      1  C   UNL     1       2.447   7.620  18.382  0.00  0.00    +0.000 C 
ATOM      2  O   UNL     1       2.021   8.441  17.578  0.00  0.00    +0.000 OA
ATOM      3  N   UNL     1       2.149   7.613  19.741  0.00  0.00    +0.000 N 
ATOM      4  H   UNL     1       2.804   7.136  20.349  0.00  0.00    +0.000 HD
ENDROOT
BRANCH   3   5
ATOM      5  C   UNL     1       1.324   8.599  20.336  0.00  0.00    +0.000 A 
ATOM      6  C   UNL     1       1.126   8.532  21.736  0.00  0.00    +0.000 A 
ATOM      7  C   UNL     1       0.420   9.533  22.419  0.00  0.00    +0.000 A 
ATOM      8  C   UNL     1      -0.122  10.544  21.655  0.00  0.00    +0.000 A 
ATOM      9  N   UNL     1      -0.862  11.651  22.047  0.00  0.00    +0.000 N 
ATOM     10  C   UNL     1      -1.212  12.385  20.903  0.00  0.00    +0.000 A 
ATOM     11  O   UNL     1      -1.865  13.411  20.872  0.00  0.00    +0.000 OA
ATOM     12  N   UNL     1      -0.665  11.700  19.807  0.00  0.00    +0.000 N 
ATOM     13  C   UNL     1       0.018  10.579  20.271  0.00  0.00    +0.000 A 
ATOM     14  C   UNL     1       0.741   9.631  19.582  0.00  0.00    +0.000 A 
ATOM     15  H   UNL     1      -1.110  11.926  22.983  0.00  0.00    +0.000 HD
ATOM     16  H   UNL     1      -0.757  12.006  18.852  0.00  0.00    +0.000 HD
ENDBRANCH   3   5
BRANCH   1  20
ATOM     17  C   UNL     1       7.077   6.352  17.024  0.00  0.00    +0.000 C 
ATOM     18  C   UNL     1       5.647   6.005  17.309  0.00  0.00    +0.000 A 
ATOM     19  C   UNL     1       4.715   6.976  17.630  0.00  0.00    +0.000 A 
ATOM     20  C   UNL     1       3.407   6.574  17.915  0.00  0.00    +0.000 A 
ATOM     21  C   UNL     1       3.051   5.197  17.860  0.00  0.00    +0.000 A 
ATOM     22  C   UNL     1       1.756   4.662  18.101  0.00  0.00    +0.000 A 
ATOM     23  C   UNL     1       1.516   3.288  18.052  0.00  0.00    +0.000 A 
ATOM     24  C   UNL     1       2.558   2.418  17.766  0.00  0.00    +0.000 A 
ATOM     25  C   UNL     1       3.828   2.932  17.511  0.00  0.00    +0.000 A 
ATOM     26  C   UNL     1       4.087   4.295  17.545  0.00  0.00    +0.000 A 
ATOM     27  N   UNL     1       5.339   4.692  17.266  0.00  0.00    +0.000 NA
ENDBRANCH   1  20
TORSDOF 2
ENDMDL
