MODEL 1
REMARK VINA RESULT:      -9.1      0.000      0.000
REMARK  Name = 
REMARK  8 active torsions:
REMARK  status: ('A' for Active; 'I' for Inactive)
REMARK    1  A    between atoms: C_1  and  C_2
REMARK    2  A    between atoms: C_2  and  C_3
REMARK    3  A    between atoms: C_2  and  C_10
REMARK    4  A    between atoms: C_3  and  C_4
REMARK    5  A    between atoms: N_8  and  C_9
REMARK    6  A    between atoms: C_14  and  N_15
REMARK    7  A    between atoms: N_15  and  N_16
REMARK    8  A    between atoms: C_22  and  C_23
REMARK                            x       y       z     vdW  Elec       q    Type
REMARK                         _______ _______ _______ _____ _____    ______ ____
ROOT
ATOM      1  C   UNL     1       0.146  10.016  19.247  0.00  0.00    +0.000 A 
ATOM      2  C   UNL     1       0.243   9.571  20.573  0.00  0.00    +0.000 A 
ATOM      3  C   UNL     1       1.199   8.619  20.942  0.00  0.00    +0.000 A 
ATOM      4  C   UNL     1       2.055   8.071  19.985  0.00  0.00    +0.000 A 
ATOM      5  C   UNL     1       1.942   8.459  18.651  0.00  0.00    +0.000 A 
ATOM      6  C   UNL     1       1.018   9.455  18.302  0.00  0.00    +0.000 A 
ENDROOT
BRANCH   1   8
ATOM      7  C   UNL     1      -0.336  12.413  18.509  0.00  0.00    +0.000 C 
ATOM      8  C   UNL     1      -0.924  11.035  18.862  0.00  0.00    +0.000 C 
BRANCH   8   9
ATOM      9  C   UNL     1      -1.784  10.461  17.713  0.00  0.00    +0.000 C 
BRANCH   9  10
ATOM     10  C   UNL     1      -3.140  11.080  17.622  0.00  0.00    +0.000 A 
ATOM     11  N   UNL     1      -3.850  11.577  18.616  0.00  0.00    +0.000 NA
ATOM     12  N   UNL     1      -5.019  12.083  18.100  0.00  0.00    +0.000 NA
ATOM     13  C   UNL     1      -5.012  11.860  16.808  0.00  0.00    +0.000 A 
ATOM     14  N   UNL     1      -3.866  11.212  16.467  0.00  0.00    +0.000 N 
ATOM     15  C   UNL     1      -3.515  10.750  15.152  0.00  0.00    +0.000 C 
ENDBRANCH   9  10
ENDBRANCH   8   9
ENDBRANCH   1   8
BRANCH   5  16
ATOM     16  N   UNL     1       2.762   7.950  17.618  0.00  0.00    +0.000 N 
ATOM     17  H   UNL     1       3.270   8.721  17.175  0.00  0.00    +0.000 HD
BRANCH  16  18
ATOM     18  N   UNL     1       3.697   6.970  18.034  0.00  0.00    +0.000 N 
ATOM     19  C   UNL     1       4.501   6.474  17.000  0.00  0.00    +0.000 C 
ATOM     20  O   UNL     1       5.147   6.945  16.102  0.00  0.00    +0.000 OA
ATOM     21  C   UNL     1       4.020   5.151  17.275  0.00  0.00    +0.000 A 
ATOM     22  C   UNL     1       3.942   3.858  16.855  0.00  0.00    +0.000 A 
ATOM     23  C   UNL     1       2.992   3.076  17.529  0.00  0.00    +0.000 A 
ATOM     24  C   UNL     1       2.158   3.621  18.564  0.00  0.00    +0.000 A 
ATOM     25  C   UNL     1       2.270   4.978  18.924  0.00  0.00    +0.000 A 
ATOM     26  C   UNL     1       3.215   5.682  18.239  0.00  0.00    +0.000 A 
BRANCH  24  27
ATOM     27  C   UNL     1       1.126   2.756  19.252  0.00  0.00    +0.000 C 
ATOM     28  F   UNL     1       0.262   2.151  18.391  0.00  0.00    +0.000 F 
ATOM     29  F   UNL     1       1.689   1.756  19.984  0.00  0.00    +0.000 F 
ATOM     30  F   UNL     1       0.349   3.465  20.119  0.00  0.00    +0.000 F 
ENDBRANCH  24  27
ENDBRANCH  16  18
ENDBRANCH   5  16
TORSDOF 6
ENDMDL
MODEL 2
REMARK VINA RESULT:      -9.1      4.072      8.871
REMARK  Name = 
REMARK  8 active torsions:
REMARK  status: ('A' for Active; 'I' for Inactive)
REMARK    1  A    between atoms: C_1  and  C_2
REMARK    2  A    between atoms: C_2  and  C_3
REMARK    3  A    between atoms: C_2  and  C_10
REMARK    4  A    between atoms: C_3  and  C_4
REMARK    5  A    between atoms: N_8  and  C_9
REMARK    6  A    between atoms: C_14  and  N_15
REMARK    7  A    between atoms: N_15  and  N_16
REMARK    8  A    between atoms: C_22  and  C_23
REMARK                            x       y       z     vdW  Elec       q    Type
REMARK                         _______ _______ _______ _____ _____    ______ ____
ROOT
ATOM      1  C   UNL     1       2.967   6.278  19.366  0.00  0.00    +0.000 A 
ATOM      2  C   UNL     1       3.357   6.698  18.086  0.00  0.00    +0.000 A 
ATOM      3  C   UNL     1       2.931   7.928  17.574  0.00  0.00    +0.000 A 
ATOM      4  C   UNL     1       2.082   8.747  18.320  0.00  0.00    +0.000 A 
ATOM      5  C   UNL     1       1.639   8.327  19.573  0.00  0.00    +0.000 A 
ATOM      6  C   UNL     1       2.116   7.118  20.100  0.00  0.00    +0.000 A 
ENDROOT
BRANCH   1   8
ATOM      7  C   UNL     1       2.258   4.078  20.450  0.00  0.00    +0.000 C 
ATOM      8  C   UNL     1       3.421   4.919  19.892  0.00  0.00    +0.000 C 
BRANCH   8   9
ATOM      9  C   UNL     1       4.191   4.173  18.778  0.00  0.00    +0.000 C 
BRANCH   9  10
ATOM     10  C   UNL     1       5.629   4.567  18.688  0.00  0.00    +0.000 A 
ATOM     11  N   UNL     1       6.391   5.009  19.669  0.00  0.00    +0.000 NA
ATOM     12  N   UNL     1       7.656   5.218  19.173  0.00  0.00    +0.000 NA
ATOM     13  C   UNL     1       7.635   4.924  17.896  0.00  0.00    +0.000 A 
ATOM     14  N   UNL     1       6.380   4.536  17.542  0.00  0.00    +0.000 N 
ATOM     15  C   UNL     1       5.946   4.184  16.217  0.00  0.00    +0.000 C 
ENDBRANCH   9  10
ENDBRANCH   8   9
ENDBRANCH   1   8
BRANCH   5  16
ATOM     16  N   UNL     1       0.774   9.090  20.392  0.00  0.00    +0.000 N 
ATOM     17  H   UNL     1       1.104   9.057  21.360  0.00  0.00    +0.000 HD
BRANCH  16  18
ATOM     18  N   UNL     1       0.637  10.445  20.004  0.00  0.00    +0.000 N 
ATOM     19  C   UNL     1       0.116  11.275  21.006  0.00  0.00    +0.000 C 
ATOM     20  O   UNL     1       0.326  11.459  22.175  0.00  0.00    +0.000 OA
ATOM     21  C   UNL     1      -0.970  11.625  20.136  0.00  0.00    +0.000 A 
ATOM     22  C   UNL     1      -2.189  12.220  20.020  0.00  0.00    +0.000 A 
ATOM     23  C   UNL     1      -2.877  11.928  18.832  0.00  0.00    +0.000 A 
ATOM     24  C   UNL     1      -2.331  11.048  17.837  0.00  0.00    +0.000 A 
ATOM     25  C   UNL     1      -1.077  10.439  18.039  0.00  0.00    +0.000 A 
ATOM     26  C   UNL     1      -0.456  10.768  19.207  0.00  0.00    +0.000 A 
BRANCH  24  27
ATOM     27  C   UNL     1      -3.112  10.734  16.580  0.00  0.00    +0.000 C 
ATOM     28  F   UNL     1      -2.399  10.923  15.436  0.00  0.00    +0.000 F 
ATOM     29  F   UNL     1      -3.545   9.445  16.544  0.00  0.00    +0.000 F 
ATOM     30  F   UNL     1      -4.226  11.509  16.454  0.00  0.00    +0.000 F 
ENDBRANCH  24  27
ENDBRANCH  16  18
ENDBRANCH   5  16
TORSDOF 6
ENDMDL
MODEL 3
REMARK VINA RESULT:      -8.9      3.483      4.369
REMARK  Name = 
REMARK  8 active torsions:
REMARK  status: ('A' for Active; 'I' for Inactive)
REMARK    1  A    between atoms: C_1  and  C_2
REMARK    2  A    between atoms: C_2  and  C_3
REMARK    3  A    between atoms: C_2  and  C_10
REMARK    4  A    between atoms: C_3  and  C_4
REMARK    5  A    between atoms: N_8  and  C_9
REMARK    6  A    between atoms: C_14  and  N_15
REMARK    7  A    between atoms: N_15  and  N_16
REMARK    8  A    between atoms: C_22  and  C_23
REMARK                            x       y       z     vdW  Elec       q    Type
REMARK                         _______ _______ _______ _____ _____    ______ ____
ROOT
ATOM      1  C   UNL     1       0.340   9.524  21.062  0.00  0.00    +0.000 A 
ATOM      2  C   UNL     1       0.435  10.390  19.963  0.00  0.00    +0.000 A 
ATOM      3  C   UNL     1       1.180  10.035  18.833  0.00  0.00    +0.000 A 
ATOM      4  C   UNL     1       1.867   8.822  18.794  0.00  0.00    +0.000 A 
ATOM      5  C   UNL     1       1.830   7.967  19.895  0.00  0.00    +0.000 A 
ATOM      6  C   UNL     1       1.036   8.308  21.001  0.00  0.00    +0.000 A 
ENDROOT
BRANCH   1   8
ATOM      7  C   UNL     1       0.165   9.429  23.608  0.00  0.00    +0.000 C 
ATOM      8  C   UNL     1      -0.454   9.946  22.296  0.00  0.00    +0.000 C 
BRANCH   8   9
ATOM      9  C   UNL     1      -0.613  11.484  22.299  0.00  0.00    +0.000 C 
BRANCH   9  10
ATOM     10  C   UNL     1      -2.031  11.932  22.439  0.00  0.00    +0.000 A 
ATOM     11  N   UNL     1      -2.834  11.707  23.460  0.00  0.00    +0.000 NA
ATOM     12  N   UNL     1      -4.036  12.323  23.208  0.00  0.00    +0.000 NA
ATOM     13  C   UNL     1      -3.953  12.889  22.028  0.00  0.00    +0.000 A 
ATOM     14  N   UNL     1      -2.724  12.648  21.498  0.00  0.00    +0.000 N 
ATOM     15  C   UNL     1      -2.269  13.060  20.198  0.00  0.00    +0.000 C 
ENDBRANCH   9  10
ENDBRANCH   8   9
ENDBRANCH   1   8
BRANCH   5  16
ATOM     16  N   UNL     1       2.502   6.724  19.943  0.00  0.00    +0.000 N 
ATOM     17  H   UNL     1       2.468   6.356  20.898  0.00  0.00    +0.000 HD
BRANCH  16  18
ATOM     18  N   UNL     1       1.990   5.743  19.059  0.00  0.00    +0.000 N 
ATOM     19  C   UNL     1       1.712   4.514  19.671  0.00  0.00    +0.000 C 
ATOM     20  O   UNL     1       1.143   4.150  20.666  0.00  0.00    +0.000 OA
ATOM     21  C   UNL     1       2.624   3.870  18.770  0.00  0.00    +0.000 A 
ATOM     22  C   UNL     1       3.321   2.739  18.470  0.00  0.00    +0.000 A 
ATOM     23  C   UNL     1       4.336   2.908  17.517  0.00  0.00    +0.000 A 
ATOM     24  C   UNL     1       4.620   4.187  16.930  0.00  0.00    +0.000 A 
ATOM     25  C   UNL     1       3.881   5.323  17.313  0.00  0.00    +0.000 A 
ATOM     26  C   UNL     1       2.905   5.094  18.236  0.00  0.00    +0.000 A 
BRANCH  24  27
ATOM     27  C   UNL     1       5.740   4.338  15.924  0.00  0.00    +0.000 C 
ATOM     28  F   UNL     1       6.034   3.186  15.261  0.00  0.00    +0.000 F 
ATOM     29  F   UNL     1       5.457   5.261  14.965  0.00  0.00    +0.000 F 
ATOM     30  F   UNL     1       6.906   4.741  16.502  0.00  0.00    +0.000 F 
ENDBRANCH  24  27
ENDBRANCH  16  18
ENDBRANCH   5  16
TORSDOF 6
ENDMDL
MODEL 4
REMARK VINA RESULT:      -8.8      4.386      8.636
REMARK  Name = 
REMARK  8 active torsions:
REMARK  status: ('A' for Active; 'I' for Inactive)
REMARK    1  A    between atoms: C_1  and  C_2
REMARK    2  A    between atoms: C_2  and  C_3
REMARK    3  A    between atoms: C_2  and  C_10
REMARK    4  A    between atoms: C_3  and  C_4
REMARK    5  A    between atoms: N_8  and  C_9
REMARK    6  A    between atoms: C_14  and  N_15
REMARK    7  A    between atoms: N_15  and  N_16
REMARK    8  A    between atoms: C_22  and  C_23
REMARK                            x       y       z     vdW  Elec       q    Type
REMARK                         _______ _______ _______ _____ _____    ______ ____
ROOT
ATOM      1  C   UNL     1       3.017   3.882  19.092  0.00  0.00    +0.000 A 
ATOM      2  C   UNL     1       2.048   3.243  19.879  0.00  0.00    +0.000 A 
ATOM      3  C   UNL     1       1.162   3.984  20.668  0.00  0.00    +0.000 A 
ATOM      4  C   UNL     1       1.248   5.376  20.708  0.00  0.00    +0.000 A 
ATOM      5  C   UNL     1       2.236   6.031  19.975  0.00  0.00    +0.000 A 
ATOM      6  C   UNL     1       3.084   5.283  19.145  0.00  0.00    +0.000 A 
ENDROOT
BRANCH   1   8
ATOM      7  C   UNL     1       3.579   1.572  18.160  0.00  0.00    +0.000 C 
ATOM      8  C   UNL     1       3.993   3.051  18.263  0.00  0.00    +0.000 C 
BRANCH   8   9
ATOM      9  C   UNL     1       4.160   3.702  16.871  0.00  0.00    +0.000 C 
BRANCH   9  10
ATOM     10  C   UNL     1       5.547   4.191  16.609  0.00  0.00    +0.000 A 
ATOM     11  N   UNL     1       6.449   4.529  17.509  0.00  0.00    +0.000 NA
ATOM     12  N   UNL     1       7.603   4.884  16.851  0.00  0.00    +0.000 NA
ATOM     13  C   UNL     1       7.374   4.781  15.565  0.00  0.00    +0.000 A 
ATOM     14  N   UNL     1       6.092   4.375  15.365  0.00  0.00    +0.000 N 
ATOM     15  C   UNL     1       5.451   4.196  14.090  0.00  0.00    +0.000 C 
ENDBRANCH   9  10
ENDBRANCH   8   9
ENDBRANCH   1   8
BRANCH   5  16
ATOM     16  N   UNL     1       2.399   7.436  19.963  0.00  0.00    +0.000 N 
ATOM     17  H   UNL     1       3.318   7.669  19.577  0.00  0.00    +0.000 HD
BRANCH  16  18
ATOM     18  N   UNL     1       1.409   8.138  19.233  0.00  0.00    +0.000 N 
ATOM     19  C   UNL     1       1.926   9.029  18.283  0.00  0.00    +0.000 C 
ATOM     20  O   UNL     1       2.765   8.988  17.423  0.00  0.00    +0.000 OA
ATOM     21  C   UNL     1       1.239  10.106  18.935  0.00  0.00    +0.000 A 
ATOM     22  C   UNL     1       1.084  11.455  19.048  0.00  0.00    +0.000 A 
ATOM     23  C   UNL     1       0.380  11.873  20.188  0.00  0.00    +0.000 A 
ATOM     24  C   UNL     1      -0.110  10.939  21.162  0.00  0.00    +0.000 A 
ATOM     25  C   UNL     1       0.117   9.558  20.998  0.00  0.00    +0.000 A 
ATOM     26  C   UNL     1       0.798   9.215  19.869  0.00  0.00    +0.000 A 
BRANCH  24  27
ATOM     27  C   UNL     1      -0.841  11.427  22.392  0.00  0.00    +0.000 C 
ATOM     28  F   UNL     1      -2.181  11.578  22.205  0.00  0.00    +0.000 F 
ATOM     29  F   UNL     1      -0.703  10.581  23.450  0.00  0.00    +0.000 F 
ATOM     30  F   UNL     1      -0.388  12.639  22.819  0.00  0.00    +0.000 F 
ENDBRANCH  24  27
ENDBRANCH  16  18
ENDBRANCH   5  16
TORSDOF 6
ENDMDL
MODEL 5
REMARK VINA RESULT:      -8.7      2.880      3.425
REMARK  Name = 
REMARK  8 active torsions:
REMARK  status: ('A' for Active; 'I' for Inactive)
REMARK    1  A    between atoms: C_1  and  C_2
REMARK    2  A    between atoms: C_2  and  C_3
REMARK    3  A    between atoms: C_2  and  C_10
REMARK    4  A    between atoms: C_3  and  C_4
REMARK    5  A    between atoms: N_8  and  C_9
REMARK    6  A    between atoms: C_14  and  N_15
REMARK    7  A    between atoms: N_15  and  N_16
REMARK    8  A    between atoms: C_22  and  C_23
REMARK                            x       y       z     vdW  Elec       q    Type
REMARK                         _______ _______ _______ _____ _____    ______ ____
ROOT
ATOM      1  C   UNL     1       0.006  10.276  20.188  0.00  0.00    +0.000 A 
ATOM      2  C   UNL     1      -0.495  10.329  21.497  0.00  0.00    +0.000 A 
ATOM      3  C   UNL     1      -0.038   9.440  22.475  0.00  0.00    +0.000 A 
ATOM      4  C   UNL     1       0.904   8.462  22.156  0.00  0.00    +0.000 A 
ATOM      5  C   UNL     1       1.378   8.356  20.849  0.00  0.00    +0.000 A 
ATOM      6  C   UNL     1       0.955   9.287  19.888  0.00  0.00    +0.000 A 
ENDROOT
BRANCH   1   8
ATOM      7  C   UNL     1       0.565  12.154  18.549  0.00  0.00    +0.000 C 
ATOM      8  C   UNL     1      -0.528  11.238  19.129  0.00  0.00    +0.000 C 
BRANCH   8   9
ATOM      9  C   UNL     1      -1.252  10.431  18.027  0.00  0.00    +0.000 C 
BRANCH   9  10
ATOM     10  C   UNL     1      -2.630  10.927  17.738  0.00  0.00    +0.000 A 
ATOM     11  N   UNL     1      -3.450  11.521  18.583  0.00  0.00    +0.000 NA
ATOM     12  N   UNL     1      -4.601  11.853  17.908  0.00  0.00    +0.000 NA
ATOM     13  C   UNL     1      -4.471  11.433  16.673  0.00  0.00    +0.000 A 
ATOM     14  N   UNL     1      -3.264  10.824  16.527  0.00  0.00    +0.000 N 
ATOM     15  C   UNL     1      -2.776  10.189  15.332  0.00  0.00    +0.000 C 
ENDBRANCH   9  10
ENDBRANCH   8   9
ENDBRANCH   1   8
BRANCH   5  16
ATOM     16  N   UNL     1       2.326   7.391  20.437  0.00  0.00    +0.000 N 
ATOM     17  H   UNL     1       2.668   6.879  21.255  0.00  0.00    +0.000 HD
BRANCH  16  18
ATOM     18  N   UNL     1       1.845   6.459  19.485  0.00  0.00    +0.000 N 
ATOM     19  C   UNL     1       1.793   5.140  19.955  0.00  0.00    +0.000 C 
ATOM     20  O   UNL     1       1.390   4.588  20.944  0.00  0.00    +0.000 OA
ATOM     21  C   UNL     1       2.671   4.739  18.894  0.00  0.00    +0.000 A 
ATOM     22  C   UNL     1       3.465   3.758  18.384  0.00  0.00    +0.000 A 
ATOM     23  C   UNL     1       4.338   4.175  17.367  0.00  0.00    +0.000 A 
ATOM     24  C   UNL     1       4.392   5.541  16.928  0.00  0.00    +0.000 A 
ATOM     25  C   UNL     1       3.564   6.512  17.525  0.00  0.00    +0.000 A 
ATOM     26  C   UNL     1       2.734   6.044  18.500  0.00  0.00    +0.000 A 
BRANCH  24  27
ATOM     27  C   UNL     1       5.363   5.962  15.847  0.00  0.00    +0.000 C 
ATOM     28  F   UNL     1       5.617   4.985  14.934  0.00  0.00    +0.000 F 
ATOM     29  F   UNL     1       4.918   7.034  15.136  0.00  0.00    +0.000 F 
ATOM     30  F   UNL     1       6.577   6.322  16.352  0.00  0.00    +0.000 F 
ENDBRANCH  24  27
ENDBRANCH  16  18
ENDBRANCH   5  16
TORSDOF 6
ENDMDL
MODEL 6
REMARK VINA RESULT:      -8.7      0.800      1.553
REMARK  Name = 
REMARK  8 active torsions:
REMARK  status: ('A' for Active; 'I' for Inactive)
REMARK    1  A    between atoms: C_1  and  C_2
REMARK    2  A    between atoms: C_2  and  C_3
REMARK    3  A    between atoms: C_2  and  C_10
REMARK    4  A    between atoms: C_3  and  C_4
REMARK    5  A    between atoms: N_8  and  C_9
REMARK    6  A    between atoms: C_14  and  N_15
REMARK    7  A    between atoms: N_15  and  N_16
REMARK    8  A    between atoms: C_22  and  C_23
REMARK                            x       y       z     vdW  Elec       q    Type
REMARK                         _______ _______ _______ _____ _____    ______ ____
ROOT
ATOM      1  C   UNL     1      -0.318  10.052  19.287  0.00  0.00    +0.000 A 
ATOM      2  C   UNL     1      -0.082   9.812  20.648  0.00  0.00    +0.000 A 
ATOM      3  C   UNL     1       0.979   8.998  21.059  0.00  0.00    +0.000 A 
ATOM      4  C   UNL     1       1.806   8.386  20.116  0.00  0.00    +0.000 A 
ATOM      5  C   UNL     1       1.559   8.569  18.756  0.00  0.00    +0.000 A 
ATOM      6  C   UNL     1       0.526   9.430  18.355  0.00  0.00    +0.000 A 
ENDROOT
BRANCH   1   8
ATOM      7  C   UNL     1      -1.106  12.009  17.848  0.00  0.00    +0.000 C 
ATOM      8  C   UNL     1      -1.500  10.920  18.862  0.00  0.00    +0.000 C 
BRANCH   8   9
ATOM      9  C   UNL     1      -2.630  10.012  18.325  0.00  0.00    +0.000 C 
BRANCH   9  10
ATOM     10  C   UNL     1      -2.902  10.203  16.869  0.00  0.00    +0.000 A 
ATOM     11  N   UNL     1      -2.217   9.695  15.864  0.00  0.00    +0.000 NA
ATOM     12  N   UNL     1      -2.821  10.080  14.691  0.00  0.00    +0.000 NA
ATOM     13  C   UNL     1      -3.846  10.837  15.002  0.00  0.00    +0.000 A 
ATOM     14  N   UNL     1      -3.920  10.963  16.354  0.00  0.00    +0.000 N 
ATOM     15  C   UNL     1      -4.877  11.755  17.078  0.00  0.00    +0.000 C 
ENDBRANCH   9  10
ENDBRANCH   8   9
ENDBRANCH   1   8
BRANCH   5  16
ATOM     16  N   UNL     1       2.341   7.982  17.734  0.00  0.00    +0.000 N 
ATOM     17  H   UNL     1       2.784   8.719  17.179  0.00  0.00    +0.000 HD
BRANCH  16  18
ATOM     18  N   UNL     1       3.344   7.095  18.195  0.00  0.00    +0.000 N 
ATOM     19  C   UNL     1       4.255   6.701  17.206  0.00  0.00    +0.000 C 
ATOM     20  O   UNL     1       4.901   7.252  16.355  0.00  0.00    +0.000 OA
ATOM     21  C   UNL     1       3.897   5.331  17.435  0.00  0.00    +0.000 A 
ATOM     22  C   UNL     1       3.976   4.045  16.996  0.00  0.00    +0.000 A 
ATOM     23  C   UNL     1       3.072   3.159  17.602  0.00  0.00    +0.000 A 
ATOM     24  C   UNL     1       2.127   3.597  18.590  0.00  0.00    +0.000 A 
ATOM     25  C   UNL     1       2.078   4.952  18.972  0.00  0.00    +0.000 A 
ATOM     26  C   UNL     1       2.985   5.760  18.355  0.00  0.00    +0.000 A 
BRANCH  24  27
ATOM     27  C   UNL     1       1.149   2.620  19.203  0.00  0.00    +0.000 C 
ATOM     28  F   UNL     1       0.632   3.040  20.390  0.00  0.00    +0.000 F 
ATOM     29  F   UNL     1       0.083   2.373  18.394  0.00  0.00    +0.000 F 
ATOM     30  F   UNL     1       1.718   1.407  19.456  0.00  0.00    +0.000 F 
ENDBRANCH  24  27
ENDBRANCH  16  18
ENDBRANCH   5  16
TORSDOF 6
ENDMDL
MODEL 7
REMARK VINA RESULT:      -8.7      3.828      4.819
REMARK  Name = 
REMARK  8 active torsions:
REMARK  status: ('A' for Active; 'I' for Inactive)
REMARK    1  A    between atoms: C_1  and  C_2
REMARK    2  A    between atoms: C_2  and  C_3
REMARK    3  A    between atoms: C_2  and  C_10
REMARK    4  A    between atoms: C_3  and  C_4
REMARK    5  A    between atoms: N_8  and  C_9
REMARK    6  A    between atoms: C_14  and  N_15
REMARK    7  A    between atoms: N_15  and  N_16
REMARK    8  A    between atoms: C_22  and  C_23
REMARK                            x       y       z     vdW  Elec       q    Type
REMARK                         _______ _______ _______ _____ _____    ______ ____
ROOT
ATOM      1  C   UNL     1       0.391   9.644  20.806  0.00  0.00    +0.000 A 
ATOM      2  C   UNL     1       0.497  10.440  19.657  0.00  0.00    +0.000 A 
ATOM      3  C   UNL     1       1.230  10.005  18.548  0.00  0.00    +0.000 A 
ATOM      4  C   UNL     1       1.895   8.779  18.579  0.00  0.00    +0.000 A 
ATOM      5  C   UNL     1       1.848   7.993  19.730  0.00  0.00    +0.000 A 
ATOM      6  C   UNL     1       1.065   8.413  20.815  0.00  0.00    +0.000 A 
ENDROOT
BRANCH   1   8
ATOM      7  C   UNL     1       0.051   9.488  23.332  0.00  0.00    +0.000 C 
ATOM      8  C   UNL     1      -0.389  10.153  22.016  0.00  0.00    +0.000 C 
BRANCH   8   9
ATOM      9  C   UNL     1      -0.280  11.693  22.081  0.00  0.00    +0.000 C 
BRANCH   9  10
ATOM     10  C   UNL     1      -1.417  12.338  22.804  0.00  0.00    +0.000 A 
ATOM     11  N   UNL     1      -2.530  11.756  23.206  0.00  0.00    +0.000 NA
ATOM     12  N   UNL     1      -3.293  12.690  23.864  0.00  0.00    +0.000 NA
ATOM     13  C   UNL     1      -2.644  13.829  23.828  0.00  0.00    +0.000 A 
ATOM     14  N   UNL     1      -1.476  13.662  23.152  0.00  0.00    +0.000 N 
ATOM     15  C   UNL     1      -0.515  14.690  22.857  0.00  0.00    +0.000 C 
ENDBRANCH   9  10
ENDBRANCH   8   9
ENDBRANCH   1   8
BRANCH   5  16
ATOM     16  N   UNL     1       2.497   6.743  19.849  0.00  0.00    +0.000 N 
ATOM     17  H   UNL     1       2.396   6.397  20.808  0.00  0.00    +0.000 HD
BRANCH  16  18
ATOM     18  N   UNL     1       2.030   5.747  18.956  0.00  0.00    +0.000 N 
ATOM     19  C   UNL     1       1.731   4.525  19.571  0.00  0.00    +0.000 C 
ATOM     20  O   UNL     1       1.121   4.171  20.545  0.00  0.00    +0.000 OA
ATOM     21  C   UNL     1       2.685   3.875  18.720  0.00  0.00    +0.000 A 
ATOM     22  C   UNL     1       3.400   2.744  18.467  0.00  0.00    +0.000 A 
ATOM     23  C   UNL     1       4.455   2.905  17.556  0.00  0.00    +0.000 A 
ATOM     24  C   UNL     1       4.759   4.179  16.966  0.00  0.00    +0.000 A 
ATOM     25  C   UNL     1       3.998   5.316  17.301  0.00  0.00    +0.000 A 
ATOM     26  C   UNL     1       2.983   5.093  18.183  0.00  0.00    +0.000 A 
BRANCH  24  27
ATOM     27  C   UNL     1       5.921   4.323  16.008  0.00  0.00    +0.000 C 
ATOM     28  F   UNL     1       7.129   4.420  16.629  0.00  0.00    +0.000 F 
ATOM     29  F   UNL     1       6.023   3.270  15.152  0.00  0.00    +0.000 F 
ATOM     30  F   UNL     1       5.815   5.435  15.227  0.00  0.00    +0.000 F 
ENDBRANCH  24  27
ENDBRANCH  16  18
ENDBRANCH   5  16
TORSDOF 6
ENDMDL
MODEL 8
REMARK VINA RESULT:      -8.6      4.583      8.822
REMARK  Name = 
REMARK  8 active torsions:
REMARK  status: ('A' for Active; 'I' for Inactive)
REMARK    1  A    between atoms: C_1  and  C_2
REMARK    2  A    between atoms: C_2  and  C_3
REMARK    3  A    between atoms: C_2  and  C_10
REMARK    4  A    between atoms: C_3  and  C_4
REMARK    5  A    between atoms: N_8  and  C_9
REMARK    6  A    between atoms: C_14  and  N_15
REMARK    7  A    between atoms: N_15  and  N_16
REMARK    8  A    between atoms: C_22  and  C_23
REMARK                            x       y       z     vdW  Elec       q    Type
REMARK                         _______ _______ _______ _____ _____    ______ ____
ROOT
ATOM      1  C   UNL     1       4.709   3.931  16.644  0.00  0.00    +0.000 A 
ATOM      2  C   UNL     1       4.300   2.649  17.038  0.00  0.00    +0.000 A 
ATOM      3  C   UNL     1       3.105   2.462  17.742  0.00  0.00    +0.000 A 
ATOM      4  C   UNL     1       2.314   3.557  18.091  0.00  0.00    +0.000 A 
ATOM      5  C   UNL     1       2.725   4.846  17.755  0.00  0.00    +0.000 A 
ATOM      6  C   UNL     1       3.896   5.018  17.002  0.00  0.00    +0.000 A 
ENDROOT
BRANCH   1   8
ATOM      7  C   UNL     1       5.905   3.865  14.389  0.00  0.00    +0.000 C 
ATOM      8  C   UNL     1       6.031   4.114  15.902  0.00  0.00    +0.000 C 
BRANCH   8   9
ATOM      9  C   UNL     1       6.599   5.518  16.212  0.00  0.00    +0.000 C 
BRANCH   9  10
ATOM     10  C   UNL     1       7.242   5.613  17.556  0.00  0.00    +0.000 A 
ATOM     11  N   UNL     1       7.453   4.625  18.403  0.00  0.00    +0.000 NA
ATOM     12  N   UNL     1       8.104   5.131  19.503  0.00  0.00    +0.000 NA
ATOM     13  C   UNL     1       8.253   6.421  19.318  0.00  0.00    +0.000 A 
ATOM     14  N   UNL     1       7.706   6.772  18.124  0.00  0.00    +0.000 N 
ATOM     15  C   UNL     1       7.625   8.104  17.589  0.00  0.00    +0.000 C 
ENDBRANCH   9  10
ENDBRANCH   8   9
ENDBRANCH   1   8
BRANCH   5  16
ATOM     16  N   UNL     1       1.989   6.010  18.075  0.00  0.00    +0.000 N 
ATOM     17  H   UNL     1       1.027   5.749  18.314  0.00  0.00    +0.000 HD
BRANCH  16  18
ATOM     18  N   UNL     1       2.528   6.776  19.137  0.00  0.00    +0.000 N 
ATOM     19  C   UNL     1       2.115   6.359  20.409  0.00  0.00    +0.000 C 
ATOM     20  O   UNL     1       2.028   5.310  20.991  0.00  0.00    +0.000 OA
ATOM     21  C   UNL     1       1.570   7.664  20.649  0.00  0.00    +0.000 A 
ATOM     22  C   UNL     1       0.786   8.441  21.446  0.00  0.00    +0.000 A 
ATOM     23  C   UNL     1       0.421   9.676  20.889  0.00  0.00    +0.000 A 
ATOM     24  C   UNL     1       0.833  10.064  19.569  0.00  0.00    +0.000 A 
ATOM     25  C   UNL     1       1.617   9.194  18.786  0.00  0.00    +0.000 A 
ATOM     26  C   UNL     1       1.944   8.014  19.385  0.00  0.00    +0.000 A 
BRANCH  24  27
ATOM     27  C   UNL     1       0.399  11.392  18.989  0.00  0.00    +0.000 C 
ATOM     28  F   UNL     1       0.025  12.301  19.932  0.00  0.00    +0.000 F 
ATOM     29  F   UNL     1       1.383  11.989  18.262  0.00  0.00    +0.000 F 
ATOM     30  F   UNL     1      -0.667  11.269  18.149  0.00  0.00    +0.000 F 
ENDBRANCH  24  27
ENDBRANCH  16  18
ENDBRANCH   5  16
TORSDOF 6
ENDMDL
MODEL 9
REMARK VINA RESULT:      -8.6      4.602      9.138
REMARK  Name = 
REMARK  8 active torsions:
REMARK  status: ('A' for Active; 'I' for Inactive)
REMARK    1  A    between atoms: C_1  and  C_2
REMARK    2  A    between atoms: C_2  and  C_3
REMARK    3  A    between atoms: C_2  and  C_10
REMARK    4  A    between atoms: C_3  and  C_4
REMARK    5  A    between atoms: N_8  and  C_9
REMARK    6  A    between atoms: C_14  and  N_15
REMARK    7  A    between atoms: N_15  and  N_16
REMARK    8  A    between atoms: C_22  and  C_23
REMARK                            x       y       z     vdW  Elec       q    Type
REMARK                         _______ _______ _______ _____ _____    ______ ____
ROOT
ATOM      1  C   UNL     1       4.631   4.736  17.171  0.00  0.00    +0.000 A 
ATOM      2  C   UNL     1       4.103   3.480  17.501  0.00  0.00    +0.000 A 
ATOM      3  C   UNL     1       2.799   3.357  17.993  0.00  0.00    +0.000 A 
ATOM      4  C   UNL     1       2.011   4.491  18.192  0.00  0.00    +0.000 A 
ATOM      5  C   UNL     1       2.532   5.755  17.920  0.00  0.00    +0.000 A 
ATOM      6  C   UNL     1       3.821   5.863  17.375  0.00  0.00    +0.000 A 
ENDROOT
BRANCH   1   8
ATOM      7  C   UNL     1       7.110   4.580  17.764  0.00  0.00    +0.000 C 
ATOM      8  C   UNL     1       6.067   4.849  16.664  0.00  0.00    +0.000 C 
BRANCH   8   9
ATOM      9  C   UNL     1       6.254   3.912  15.449  0.00  0.00    +0.000 C 
BRANCH   9  10
ATOM     10  C   UNL     1       6.966   4.558  14.306  0.00  0.00    +0.000 A 
ATOM     11  N   UNL     1       7.864   5.521  14.378  0.00  0.00    +0.000 NA
ATOM     12  N   UNL     1       8.300   5.800  13.104  0.00  0.00    +0.000 NA
ATOM     13  C   UNL     1       7.641   5.023  12.280  0.00  0.00    +0.000 A 
ATOM     14  N   UNL     1       6.776   4.246  12.985  0.00  0.00    +0.000 N 
ATOM     15  C   UNL     1       5.843   3.302  12.432  0.00  0.00    +0.000 C 
ENDBRANCH   9  10
ENDBRANCH   8   9
ENDBRANCH   1   8
BRANCH   5  16
ATOM     16  N   UNL     1       1.806   6.955  18.099  0.00  0.00    +0.000 N 
ATOM     17  H   UNL     1       0.812   6.738  18.211  0.00  0.00    +0.000 HD
BRANCH  16  18
ATOM     18  N   UNL     1       2.226   7.741  19.200  0.00  0.00    +0.000 N 
ATOM     19  C   UNL     1       1.728   7.305  20.434  0.00  0.00    +0.000 C 
ATOM     20  O   UNL     1       1.635   6.253  21.009  0.00  0.00    +0.000 OA
ATOM     21  C   UNL     1       1.114   8.587  20.627  0.00  0.00    +0.000 A 
ATOM     22  C   UNL     1       0.237   9.332  21.356  0.00  0.00    +0.000 A 
ATOM     23  C   UNL     1      -0.129  10.553  20.769  0.00  0.00    +0.000 A 
ATOM     24  C   UNL     1       0.373  10.958  19.486  0.00  0.00    +0.000 A 
ATOM     25  C   UNL     1       1.252  10.121  18.771  0.00  0.00    +0.000 A 
ATOM     26  C   UNL     1       1.576   8.954  19.397  0.00  0.00    +0.000 A 
BRANCH  24  27
ATOM     27  C   UNL     1      -0.063  12.269  18.871  0.00  0.00    +0.000 C 
ATOM     28  F   UNL     1      -0.568  13.153  19.775  0.00  0.00    +0.000 F 
ATOM     29  F   UNL     1       0.957  12.916  18.244  0.00  0.00    +0.000 F 
ATOM     30  F   UNL     1      -1.037  12.103  17.932  0.00  0.00    +0.000 F 
ENDBRANCH  24  27
ENDBRANCH  16  18
ENDBRANCH   5  16
TORSDOF 6
ENDMDL
