MODEL 1
REMARK VINA RESULT:      -8.5      0.000      0.000
REMARK  Name = 
REMARK  6 active torsions:
REMARK  status: ('A' for Active; 'I' for Inactive)
REMARK    1  A    between atoms: C_1  and  O_2
REMARK    2  A    between atoms: O_2  and  C_3
REMARK    3  A    between atoms: C_7  and  C_8
REMARK    4  A    between atoms: N_14  and  C_15
REMARK    5  A    between atoms: C_19  and  C_20
REMARK    6  A    between atoms: N_23  and  C_24
REMARK                            x       y       z     vdW  Elec       q    Type
REMARK                         _______ _______ _______ _____ _____    ______ ____
ROOT
ATOM      1  C   UNL     1      -0.229  12.291  20.001  0.00  0.00    +0.000 A 
ATOM      2  C   UNL     1       0.490  11.711  18.966  0.00  0.00    +0.000 A 
ATOM      3  C   UNL     1       0.937  10.419  19.152  0.00  0.00    +0.000 A 
ATOM      4  C   UNL     1       0.719   9.690  20.314  0.00  0.00    +0.000 A 
ATOM      5  C   UNL     1       0.037  10.263  21.381  0.00  0.00    +0.000 A 
ATOM      6  C   UNL     1      -0.431  11.583  21.205  0.00  0.00    +0.000 A 
ATOM      7  C   UNL     1       1.328   8.333  20.158  0.00  0.00    +0.000 C 
ATOM      8  N   UNL     1       1.948   8.388  18.840  0.00  0.00    +0.000 N 
ATOM      9  C   UNL     1       1.723   9.613  18.217  0.00  0.00    +0.000 C 
ATOM     10  O   UNL     1       2.062  10.044  17.132  0.00  0.00    +0.000 OA
ENDROOT
BRANCH   8  11
ATOM     11  C   UNL     1       2.764   7.340  18.346  0.00  0.00    +0.000 A 
ATOM     12  C   UNL     1       3.964   7.589  17.676  0.00  0.00    +0.000 A 
ATOM     13  C   UNL     1       4.789   6.538  17.265  0.00  0.00    +0.000 A 
ATOM     14  C   UNL     1       4.421   5.216  17.509  0.00  0.00    +0.000 A 
ATOM     15  C   UNL     1       3.215   4.933  18.157  0.00  0.00    +0.000 A 
ATOM     16  C   UNL     1       2.398   6.005  18.559  0.00  0.00    +0.000 A 
BRANCH  15  17
ATOM     17  C   UNL     1       2.805   3.498  18.430  0.00  0.00    +0.000 C 
ATOM     18  C   UNL     1       1.306   3.258  18.182  0.00  0.00    +0.000 C 
ATOM     19  C   UNL     1       0.754   2.735  19.506  0.00  0.00    +0.000 C 
ATOM     20  N   UNL     1       1.691   3.257  20.499  0.00  0.00    +0.000 NA
ATOM     21  C   UNL     1       1.567   2.608  21.794  0.00  0.00    +0.000 C 
ATOM     22  C   UNL     1       3.017   3.080  19.897  0.00  0.00    +0.000 C 
ENDBRANCH  15  17
ENDBRANCH   8  11
BRANCH   5  23
ATOM     23  C   UNL     1      -0.200   9.544  22.682  0.00  0.00    +0.000 C 
ATOM     24  F   UNL     1      -0.878   8.372  22.541  0.00  0.00    +0.000 F 
ATOM     25  F   UNL     1       0.961   9.225  23.317  0.00  0.00    +0.000 F 
ATOM     26  F   UNL     1      -0.922  10.287  23.563  0.00  0.00    +0.000 F 
ENDBRANCH   5  23
BRANCH   1  28
ATOM     27  C   UNL     1       0.009  14.497  19.206  0.00  0.00    +0.000 C 
ATOM     28  O   UNL     1      -0.750  13.557  19.965  0.00  0.00    +0.000 OA
ENDBRANCH   1  28
TORSDOF 4
ENDMDL
MODEL 2
REMARK VINA RESULT:      -8.4      1.869      3.531
REMARK  Name = 
REMARK  6 active torsions:
REMARK  status: ('A' for Active; 'I' for Inactive)
REMARK    1  A    between atoms: C_1  and  O_2
REMARK    2  A    between atoms: O_2  and  C_3
REMARK    3  A    between atoms: C_7  and  C_8
REMARK    4  A    between atoms: N_14  and  C_15
REMARK    5  A    between atoms: C_19  and  C_20
REMARK    6  A    between atoms: N_23  and  C_24
REMARK                            x       y       z     vdW  Elec       q    Type
REMARK                         _______ _______ _______ _____ _____    ______ ____
ROOT
ATOM      1  C   UNL     1       0.459  11.409  19.237  0.00  0.00    +0.000 A 
ATOM      2  C   UNL     1       1.182  10.444  18.550  0.00  0.00    +0.000 A 
ATOM      3  C   UNL     1       1.419   9.250  19.200  0.00  0.00    +0.000 A 
ATOM      4  C   UNL     1       0.990   8.979  20.493  0.00  0.00    +0.000 A 
ATOM      5  C   UNL     1       0.300   9.945  21.217  0.00  0.00    +0.000 A 
ATOM      6  C   UNL     1       0.044  11.170  20.564  0.00  0.00    +0.000 A 
ATOM      7  C   UNL     1       1.411   7.594  20.866  0.00  0.00    +0.000 C 
ATOM      8  N   UNL     1       2.154   7.139  19.697  0.00  0.00    +0.000 N 
ATOM      9  C   UNL     1       2.167   8.099  18.690  0.00  0.00    +0.000 C 
ATOM     10  O   UNL     1       2.665   8.104  17.580  0.00  0.00    +0.000 OA
ENDROOT
BRANCH   8  11
ATOM     11  C   UNL     1       2.855   5.907  19.681  0.00  0.00    +0.000 A 
ATOM     12  C   UNL     1       2.293   4.729  20.180  0.00  0.00    +0.000 A 
ATOM     13  C   UNL     1       2.973   3.512  20.084  0.00  0.00    +0.000 A 
ATOM     14  C   UNL     1       4.234   3.454  19.496  0.00  0.00    +0.000 A 
ATOM     15  C   UNL     1       4.835   4.618  19.007  0.00  0.00    +0.000 A 
ATOM     16  C   UNL     1       4.134   5.833  19.116  0.00  0.00    +0.000 A 
BRANCH  15  17
ATOM     17  C   UNL     1       6.206   4.566  18.362  0.00  0.00    +0.000 C 
ATOM     18  C   UNL     1       6.872   5.951  18.286  0.00  0.00    +0.000 C 
ATOM     19  C   UNL     1       7.160   6.183  16.806  0.00  0.00    +0.000 C 
ATOM     20  N   UNL     1       6.182   5.335  16.128  0.00  0.00    +0.000 NA
ATOM     21  C   UNL     1       6.485   5.127  14.722  0.00  0.00    +0.000 C 
ATOM     22  C   UNL     1       6.166   4.086  16.898  0.00  0.00    +0.000 C 
ENDBRANCH  15  17
ENDBRANCH   8  11
BRANCH   5  23
ATOM     23  C   UNL     1      -0.159   9.733  22.635  0.00  0.00    +0.000 C 
ATOM     24  F   UNL     1      -0.829  10.797  23.155  0.00  0.00    +0.000 F 
ATOM     25  F   UNL     1      -1.002   8.671  22.754  0.00  0.00    +0.000 F 
ATOM     26  F   UNL     1       0.874   9.493  23.485  0.00  0.00    +0.000 F 
ENDBRANCH   5  23
BRANCH   1  28
ATOM     27  C   UNL     1       1.232  13.524  18.540  0.00  0.00    +0.000 C 
ATOM     28  O   UNL     1       0.130  12.636  18.726  0.00  0.00    +0.000 OA
ENDBRANCH   1  28
TORSDOF 4
ENDMDL
MODEL 3
REMARK VINA RESULT:      -8.3      3.055      7.645
REMARK  Name = 
REMARK  6 active torsions:
REMARK  status: ('A' for Active; 'I' for Inactive)
REMARK    1  A    between atoms: C_1  and  O_2
REMARK    2  A    between atoms: O_2  and  C_3
REMARK    3  A    between atoms: C_7  and  C_8
REMARK    4  A    between atoms: N_14  and  C_15
REMARK    5  A    between atoms: C_19  and  C_20
REMARK    6  A    between atoms: N_23  and  C_24
REMARK                            x       y       z     vdW  Elec       q    Type
REMARK                         _______ _______ _______ _____ _____    ______ ____
ROOT
ATOM      1  C   UNL     1       3.776   5.064  17.540  0.00  0.00    +0.000 A 
ATOM      2  C   UNL     1       3.404   6.396  17.648  0.00  0.00    +0.000 A 
ATOM      3  C   UNL     1       2.647   6.754  18.744  0.00  0.00    +0.000 A 
ATOM      4  C   UNL     1       2.232   5.855  19.719  0.00  0.00    +0.000 A 
ATOM      5  C   UNL     1       2.557   4.507  19.612  0.00  0.00    +0.000 A 
ATOM      6  C   UNL     1       3.336   4.126  18.498  0.00  0.00    +0.000 A 
ATOM      7  C   UNL     1       1.446   6.591  20.757  0.00  0.00    +0.000 C 
ATOM      8  N   UNL     1       1.412   7.958  20.251  0.00  0.00    +0.000 N 
ATOM      9  C   UNL     1       2.125   8.084  19.062  0.00  0.00    +0.000 C 
ATOM     10  O   UNL     1       2.336   9.040  18.342  0.00  0.00    +0.000 OA
ENDROOT
BRANCH   8  11
ATOM     11  C   UNL     1       0.640   8.972  20.871  0.00  0.00    +0.000 A 
ATOM     12  C   UNL     1       0.514   9.063  22.259  0.00  0.00    +0.000 A 
ATOM     13  C   UNL     1      -0.189  10.116  22.849  0.00  0.00    +0.000 A 
ATOM     14  C   UNL     1      -0.789  11.094  22.058  0.00  0.00    +0.000 A 
ATOM     15  C   UNL     1      -0.701  11.020  20.665  0.00  0.00    +0.000 A 
ATOM     16  C   UNL     1       0.010   9.951  20.091  0.00  0.00    +0.000 A 
BRANCH  15  17
ATOM     17  C   UNL     1      -1.347  12.081  19.794  0.00  0.00    +0.000 C 
ATOM     18  C   UNL     1      -2.730  12.507  20.317  0.00  0.00    +0.000 C 
ATOM     19  C   UNL     1      -3.699  12.236  19.170  0.00  0.00    +0.000 C 
ATOM     20  N   UNL     1      -3.030  11.194  18.393  0.00  0.00    +0.000 NA
ATOM     21  C   UNL     1      -3.601  11.017  17.068  0.00  0.00    +0.000 C 
ATOM     22  C   UNL     1      -1.619  11.597  18.357  0.00  0.00    +0.000 C 
ENDBRANCH  15  17
ENDBRANCH   8  11
BRANCH   5  23
ATOM     23  C   UNL     1       2.108   3.475  20.610  0.00  0.00    +0.000 C 
ATOM     24  F   UNL     1       0.756   3.401  20.746  0.00  0.00    +0.000 F 
ATOM     25  F   UNL     1       2.515   2.220  20.277  0.00  0.00    +0.000 F 
ATOM     26  F   UNL     1       2.594   3.712  21.858  0.00  0.00    +0.000 F 
ENDBRANCH   5  23
BRANCH   1  28
ATOM     27  C   UNL     1       5.904   4.314  16.855  0.00  0.00    +0.000 C 
ATOM     28  O   UNL     1       4.537   4.555  16.521  0.00  0.00    +0.000 OA
ENDBRANCH   1  28
TORSDOF 4
ENDMDL
MODEL 4
REMARK VINA RESULT:      -8.1      2.892      7.833
REMARK  Name = 
REMARK  6 active torsions:
REMARK  status: ('A' for Active; 'I' for Inactive)
REMARK    1  A    between atoms: C_1  and  O_2
REMARK    2  A    between atoms: O_2  and  C_3
REMARK    3  A    between atoms: C_7  and  C_8
REMARK    4  A    between atoms: N_14  and  C_15
REMARK    5  A    between atoms: C_19  and  C_20
REMARK    6  A    between atoms: N_23  and  C_24
REMARK                            x       y       z     vdW  Elec       q    Type
REMARK                         _______ _______ _______ _____ _____    ______ ____
ROOT
ATOM      1  C   UNL     1       3.802   4.900  17.622  0.00  0.00    +0.000 A 
ATOM      2  C   UNL     1       3.452   6.238  17.746  0.00  0.00    +0.000 A 
ATOM      3  C   UNL     1       2.688   6.592  18.838  0.00  0.00    +0.000 A 
ATOM      4  C   UNL     1       2.245   5.686  19.795  0.00  0.00    +0.000 A 
ATOM      5  C   UNL     1       2.549   4.335  19.671  0.00  0.00    +0.000 A 
ATOM      6  C   UNL     1       3.335   3.957  18.561  0.00  0.00    +0.000 A 
ATOM      7  C   UNL     1       1.460   6.420  20.834  0.00  0.00    +0.000 C 
ATOM      8  N   UNL     1       1.456   7.795  20.348  0.00  0.00    +0.000 N 
ATOM      9  C   UNL     1       2.185   7.926  19.170  0.00  0.00    +0.000 C 
ATOM     10  O   UNL     1       2.421   8.890  18.466  0.00  0.00    +0.000 OA
ENDROOT
BRANCH   8  11
ATOM     11  C   UNL     1       0.694   8.814  20.974  0.00  0.00    +0.000 A 
ATOM     12  C   UNL     1       0.636   8.948  22.363  0.00  0.00    +0.000 A 
ATOM     13  C   UNL     1      -0.059  10.005  22.955  0.00  0.00    +0.000 A 
ATOM     14  C   UNL     1      -0.720  10.944  22.165  0.00  0.00    +0.000 A 
ATOM     15  C   UNL     1      -0.700  10.826  20.772  0.00  0.00    +0.000 A 
ATOM     16  C   UNL     1       0.003   9.753  20.197  0.00  0.00    +0.000 A 
BRANCH  15  17
ATOM     17  C   UNL     1      -1.413  11.844  19.902  0.00  0.00    +0.000 C 
ATOM     18  C   UNL     1      -0.883  11.855  18.457  0.00  0.00    +0.000 C 
ATOM     19  C   UNL     1      -0.413  13.285  18.207  0.00  0.00    +0.000 C 
ATOM     20  N   UNL     1      -0.120  13.790  19.548  0.00  0.00    +0.000 NA
ATOM     21  C   UNL     1       0.016  15.236  19.594  0.00  0.00    +0.000 C 
ATOM     22  C   UNL     1      -1.217  13.293  20.387  0.00  0.00    +0.000 C 
ENDBRANCH  15  17
ENDBRANCH   8  11
BRANCH   5  23
ATOM     23  C   UNL     1       2.069   3.296  20.648  0.00  0.00    +0.000 C 
ATOM     24  F   UNL     1       2.425   2.026  20.311  0.00  0.00    +0.000 F 
ATOM     25  F   UNL     1       2.560   3.497  21.901  0.00  0.00    +0.000 F 
ATOM     26  F   UNL     1       0.715   3.281  20.769  0.00  0.00    +0.000 F 
ENDBRANCH   5  23
BRANCH   1  28
ATOM     27  C   UNL     1       5.963   4.668  16.710  0.00  0.00    +0.000 C 
ATOM     28  O   UNL     1       4.567   4.394  16.605  0.00  0.00    +0.000 OA
ENDBRANCH   1  28
TORSDOF 4
ENDMDL
MODEL 5
REMARK VINA RESULT:      -8.1      2.407      3.000
REMARK  Name = 
REMARK  6 active torsions:
REMARK  status: ('A' for Active; 'I' for Inactive)
REMARK    1  A    between atoms: C_1  and  O_2
REMARK    2  A    between atoms: O_2  and  C_3
REMARK    3  A    between atoms: C_7  and  C_8
REMARK    4  A    between atoms: N_14  and  C_15
REMARK    5  A    between atoms: C_19  and  C_20
REMARK    6  A    between atoms: N_23  and  C_24
REMARK                            x       y       z     vdW  Elec       q    Type
REMARK                         _______ _______ _______ _____ _____    ______ ____
ROOT
ATOM      1  C   UNL     1      -0.848  10.688  22.243  0.00  0.00    +0.000 A 
ATOM      2  C   UNL     1      -0.069   9.542  22.168  0.00  0.00    +0.000 A 
ATOM      3  C   UNL     1       0.575   9.292  20.974  0.00  0.00    +0.000 A 
ATOM      4  C   UNL     1       0.468  10.111  19.856  0.00  0.00    +0.000 A 
ATOM      5  C   UNL     1      -0.339  11.243  19.893  0.00  0.00    +0.000 A 
ATOM      6  C   UNL     1      -1.001  11.515  21.110  0.00  0.00    +0.000 A 
ATOM      7  C   UNL     1       1.305   9.543  18.755  0.00  0.00    +0.000 C 
ATOM      8  N   UNL     1       1.840   8.316  19.334  0.00  0.00    +0.000 N 
ATOM      9  C   UNL     1       1.429   8.148  20.653  0.00  0.00    +0.000 C 
ATOM     10  O   UNL     1       1.658   7.275  21.467  0.00  0.00    +0.000 OA
ENDROOT
BRANCH   8  11
ATOM     11  C   UNL     1       2.590   7.387  18.570  0.00  0.00    +0.000 A 
ATOM     12  C   UNL     1       3.502   7.795  17.594  0.00  0.00    +0.000 A 
ATOM     13  C   UNL     1       4.285   6.863  16.907  0.00  0.00    +0.000 A 
ATOM     14  C   UNL     1       4.159   5.502  17.178  0.00  0.00    +0.000 A 
ATOM     15  C   UNL     1       3.239   5.058  18.132  0.00  0.00    +0.000 A 
ATOM     16  C   UNL     1       2.459   6.013  18.810  0.00  0.00    +0.000 A 
BRANCH  15  17
ATOM     17  C   UNL     1       3.096   3.579  18.437  0.00  0.00    +0.000 C 
ATOM     18  C   UNL     1       1.734   3.018  17.995  0.00  0.00    +0.000 C 
ATOM     19  C   UNL     1       1.105   2.434  19.258  0.00  0.00    +0.000 C 
ATOM     20  N   UNL     1       1.752   3.176  20.338  0.00  0.00    +0.000 NA
ATOM     21  C   UNL     1       1.567   2.561  21.641  0.00  0.00    +0.000 C 
ATOM     22  C   UNL     1       3.162   3.266  19.945  0.00  0.00    +0.000 C 
ENDBRANCH  15  17
ENDBRANCH   8  11
BRANCH   5  23
ATOM     23  C   UNL     1      -0.531  12.151  18.708  0.00  0.00    +0.000 C 
ATOM     24  F   UNL     1      -1.293  13.245  18.979  0.00  0.00    +0.000 F 
ATOM     25  F   UNL     1       0.648  12.630  18.226  0.00  0.00    +0.000 F 
ATOM     26  F   UNL     1      -1.139  11.524  17.666  0.00  0.00    +0.000 F 
ENDBRANCH   5  23
BRANCH   1  28
ATOM     27  C   UNL     1      -2.556  12.052  23.125  0.00  0.00    +0.000 C 
ATOM     28  O   UNL     1      -1.537  11.081  23.359  0.00  0.00    +0.000 OA
ENDBRANCH   1  28
TORSDOF 4
ENDMDL
MODEL 6
REMARK VINA RESULT:      -8.0      0.961      1.397
REMARK  Name = 
REMARK  6 active torsions:
REMARK  status: ('A' for Active; 'I' for Inactive)
REMARK    1  A    between atoms: C_1  and  O_2
REMARK    2  A    between atoms: O_2  and  C_3
REMARK    3  A    between atoms: C_7  and  C_8
REMARK    4  A    between atoms: N_14  and  C_15
REMARK    5  A    between atoms: C_19  and  C_20
REMARK    6  A    between atoms: N_23  and  C_24
REMARK                            x       y       z     vdW  Elec       q    Type
REMARK                         _______ _______ _______ _____ _____    ______ ____
ROOT
ATOM      1  C   UNL     1       0.116  12.464  20.094  0.00  0.00    +0.000 A 
ATOM      2  C   UNL     1       0.784  11.816  19.064  0.00  0.00    +0.000 A 
ATOM      3  C   UNL     1       1.089  10.483  19.248  0.00  0.00    +0.000 A 
ATOM      4  C   UNL     1       0.779   9.775  20.403  0.00  0.00    +0.000 A 
ATOM      5  C   UNL     1       0.146  10.412  21.465  0.00  0.00    +0.000 A 
ATOM      6  C   UNL     1      -0.177  11.775  21.290  0.00  0.00    +0.000 A 
ATOM      7  C   UNL     1       1.243   8.362  20.247  0.00  0.00    +0.000 C 
ATOM      8  N   UNL     1       1.884   8.358  18.937  0.00  0.00    +0.000 N 
ATOM      9  C   UNL     1       1.799   9.602  18.319  0.00  0.00    +0.000 C 
ATOM     10  O   UNL     1       2.196  10.000  17.241  0.00  0.00    +0.000 OA
ENDROOT
BRANCH   8  11
ATOM     11  C   UNL     1       2.591   7.232  18.448  0.00  0.00    +0.000 A 
ATOM     12  C   UNL     1       3.697   7.360  17.605  0.00  0.00    +0.000 A 
ATOM     13  C   UNL     1       4.424   6.239  17.197  0.00  0.00    +0.000 A 
ATOM     14  C   UNL     1       4.050   4.965  17.618  0.00  0.00    +0.000 A 
ATOM     15  C   UNL     1       2.934   4.799  18.444  0.00  0.00    +0.000 A 
ATOM     16  C   UNL     1       2.214   5.940  18.841  0.00  0.00    +0.000 A 
BRANCH  15  17
ATOM     17  C   UNL     1       2.519   3.417  18.911  0.00  0.00    +0.000 C 
ATOM     18  C   UNL     1       1.903   3.434  20.320  0.00  0.00    +0.000 C 
ATOM     19  C   UNL     1       2.765   2.488  21.152  0.00  0.00    +0.000 C 
ATOM     20  N   UNL     1       4.049   2.489  20.454  0.00  0.00    +0.000 NA
ATOM     21  C   UNL     1       4.920   1.400  20.863  0.00  0.00    +0.000 C 
ATOM     22  C   UNL     1       3.704   2.439  19.028  0.00  0.00    +0.000 C 
ENDBRANCH  15  17
ENDBRANCH   8  11
BRANCH   5  23
ATOM     23  C   UNL     1      -0.183   9.716  22.758  0.00  0.00    +0.000 C 
ATOM     24  F   UNL     1      -0.926  10.474  23.610  0.00  0.00    +0.000 F 
ATOM     25  F   UNL     1      -0.893   8.572  22.565  0.00  0.00    +0.000 F 
ATOM     26  F   UNL     1       0.930   9.359  23.454  0.00  0.00    +0.000 F 
ENDBRANCH   5  23
BRANCH   1  28
ATOM     27  C   UNL     1      -1.058  14.202  21.168  0.00  0.00    +0.000 C 
ATOM     28  O   UNL     1      -0.268  13.778  20.058  0.00  0.00    +0.000 OA
ENDBRANCH   1  28
TORSDOF 4
ENDMDL
MODEL 7
REMARK VINA RESULT:      -8.0      1.725      3.521
REMARK  Name = 
REMARK  6 active torsions:
REMARK  status: ('A' for Active; 'I' for Inactive)
REMARK    1  A    between atoms: C_1  and  O_2
REMARK    2  A    between atoms: O_2  and  C_3
REMARK    3  A    between atoms: C_7  and  C_8
REMARK    4  A    between atoms: N_14  and  C_15
REMARK    5  A    between atoms: C_19  and  C_20
REMARK    6  A    between atoms: N_23  and  C_24
REMARK                            x       y       z     vdW  Elec       q    Type
REMARK                         _______ _______ _______ _____ _____    ______ ____
ROOT
ATOM      1  C   UNL     1       0.478  11.887  19.609  0.00  0.00    +0.000 A 
ATOM      2  C   UNL     1       1.096  11.070  18.672  0.00  0.00    +0.000 A 
ATOM      3  C   UNL     1       1.321   9.757  19.029  0.00  0.00    +0.000 A 
ATOM      4  C   UNL     1       0.980   9.227  20.267  0.00  0.00    +0.000 A 
ATOM      5  C   UNL     1       0.397  10.035  21.237  0.00  0.00    +0.000 A 
ATOM      6  C   UNL     1       0.156  11.381  20.885  0.00  0.00    +0.000 A 
ATOM      7  C   UNL     1       1.356   7.780  20.298  0.00  0.00    +0.000 C 
ATOM      8  N   UNL     1       1.983   7.565  18.999  0.00  0.00    +0.000 N 
ATOM      9  C   UNL     1       1.967   8.720  18.223  0.00  0.00    +0.000 C 
ATOM     10  O   UNL     1       2.377   8.948  17.101  0.00  0.00    +0.000 OA
ENDROOT
BRANCH   8  11
ATOM     11  C   UNL     1       2.616   6.343  18.661  0.00  0.00    +0.000 A 
ATOM     12  C   UNL     1       1.910   5.141  18.578  0.00  0.00    +0.000 A 
ATOM     13  C   UNL     1       2.540   3.963  18.169  0.00  0.00    +0.000 A 
ATOM     14  C   UNL     1       3.895   3.966  17.844  0.00  0.00    +0.000 A 
ATOM     15  C   UNL     1       4.637   5.147  17.937  0.00  0.00    +0.000 A 
ATOM     16  C   UNL     1       3.983   6.321  18.355  0.00  0.00    +0.000 A 
BRANCH  15  17
ATOM     17  C   UNL     1       6.112   5.162  17.583  0.00  0.00    +0.000 C 
ATOM     18  C   UNL     1       7.014   5.048  18.824  0.00  0.00    +0.000 C 
ATOM     19  C   UNL     1       7.902   6.289  18.797  0.00  0.00    +0.000 C 
ATOM     20  N   UNL     1       7.122   7.252  18.022  0.00  0.00    +0.000 NA
ATOM     21  C   UNL     1       7.908   8.390  17.573  0.00  0.00    +0.000 C 
ATOM     22  C   UNL     1       6.557   6.476  16.913  0.00  0.00    +0.000 C 
ENDBRANCH  15  17
ENDBRANCH   8  11
BRANCH   5  23
ATOM     23  C   UNL     1       0.039   9.536  22.611  0.00  0.00    +0.000 C 
ATOM     24  F   UNL     1      -0.571  10.472  23.388  0.00  0.00    +0.000 F 
ATOM     25  F   UNL     1      -0.813   8.476  22.572  0.00  0.00    +0.000 F 
ATOM     26  F   UNL     1       1.127   9.122  23.314  0.00  0.00    +0.000 F 
ENDBRANCH   5  23
BRANCH   1  28
ATOM     27  C   UNL     1       0.535  14.081  20.470  0.00  0.00    +0.000 C 
ATOM     28  O   UNL     1       0.174  13.206  19.401  0.00  0.00    +0.000 OA
ENDBRANCH   1  28
TORSDOF 4
ENDMDL
MODEL 8
REMARK VINA RESULT:      -8.0      3.112      7.862
REMARK  Name = 
REMARK  6 active torsions:
REMARK  status: ('A' for Active; 'I' for Inactive)
REMARK    1  A    between atoms: C_1  and  O_2
REMARK    2  A    between atoms: O_2  and  C_3
REMARK    3  A    between atoms: C_7  and  C_8
REMARK    4  A    between atoms: N_14  and  C_15
REMARK    5  A    between atoms: C_19  and  C_20
REMARK    6  A    between atoms: N_23  and  C_24
REMARK                            x       y       z     vdW  Elec       q    Type
REMARK                         _______ _______ _______ _____ _____    ______ ____
ROOT
ATOM      1  C   UNL     1       3.729   4.797  17.589  0.00  0.00    +0.000 A 
ATOM      2  C   UNL     1       3.409   6.143  17.699  0.00  0.00    +0.000 A 
ATOM      3  C   UNL     1       2.675   6.530  18.801  0.00  0.00    +0.000 A 
ATOM      4  C   UNL     1       2.235   5.648  19.781  0.00  0.00    +0.000 A 
ATOM      5  C   UNL     1       2.508   4.289  19.672  0.00  0.00    +0.000 A 
ATOM      6  C   UNL     1       3.262   3.877  18.552  0.00  0.00    +0.000 A 
ATOM      7  C   UNL     1       1.487   6.414  20.825  0.00  0.00    +0.000 C 
ATOM      8  N   UNL     1       1.501   7.781  20.317  0.00  0.00    +0.000 N 
ATOM      9  C   UNL     1       2.207   7.879  19.122  0.00  0.00    +0.000 C 
ATOM     10  O   UNL     1       2.449   8.826  18.399  0.00  0.00    +0.000 OA
ENDROOT
BRANCH   8  11
ATOM     11  C   UNL     1       0.773   8.825  20.943  0.00  0.00    +0.000 A 
ATOM     12  C   UNL     1       0.599   8.880  22.327  0.00  0.00    +0.000 A 
ATOM     13  C   UNL     1      -0.056   9.958  22.927  0.00  0.00    +0.000 A 
ATOM     14  C   UNL     1      -0.559  10.999  22.148  0.00  0.00    +0.000 A 
ATOM     15  C   UNL     1      -0.421  10.964  20.757  0.00  0.00    +0.000 A 
ATOM     16  C   UNL     1       0.239   9.867  20.174  0.00  0.00    +0.000 A 
BRANCH  15  17
ATOM     17  C   UNL     1      -0.962  12.092  19.900  0.00  0.00    +0.000 C 
ATOM     18  C   UNL     1      -1.362  13.322  20.733  0.00  0.00    +0.000 C 
ATOM     19  C   UNL     1      -2.836  13.564  20.420  0.00  0.00    +0.000 C 
ATOM     20  N   UNL     1      -3.317  12.250  19.998  0.00  0.00    +0.000 NA
ATOM     21  C   UNL     1      -4.604  12.305  19.325  0.00  0.00    +0.000 C 
ATOM     22  C   UNL     1      -2.250  11.712  19.146  0.00  0.00    +0.000 C 
ENDBRANCH  15  17
ENDBRANCH   8  11
BRANCH   5  23
ATOM     23  C   UNL     1       2.028   3.275  20.676  0.00  0.00    +0.000 C 
ATOM     24  F   UNL     1       2.528   3.467  21.926  0.00  0.00    +0.000 F 
ATOM     25  F   UNL     1       0.674   3.283  20.814  0.00  0.00    +0.000 F 
ATOM     26  F   UNL     1       2.366   2.003  20.332  0.00  0.00    +0.000 F 
ENDBRANCH   5  23
BRANCH   1  28
ATOM     27  C   UNL     1       5.839   4.632  16.551  0.00  0.00    +0.000 C 
ATOM     28  O   UNL     1       4.462   4.259  16.565  0.00  0.00    +0.000 OA
ENDBRANCH   1  28
TORSDOF 4
ENDMDL
MODEL 9
REMARK VINA RESULT:      -7.9      1.887      3.613
REMARK  Name = 
REMARK  6 active torsions:
REMARK  status: ('A' for Active; 'I' for Inactive)
REMARK    1  A    between atoms: C_1  and  O_2
REMARK    2  A    between atoms: O_2  and  C_3
REMARK    3  A    between atoms: C_7  and  C_8
REMARK    4  A    between atoms: N_14  and  C_15
REMARK    5  A    between atoms: C_19  and  C_20
REMARK    6  A    between atoms: N_23  and  C_24
REMARK                            x       y       z     vdW  Elec       q    Type
REMARK                         _______ _______ _______ _____ _____    ______ ____
ROOT
ATOM      1  C   UNL     1       0.330  11.549  19.356  0.00  0.00    +0.000 A 
ATOM      2  C   UNL     1       1.042  10.621  18.608  0.00  0.00    +0.000 A 
ATOM      3  C   UNL     1       1.311   9.405  19.200  0.00  0.00    +0.000 A 
ATOM      4  C   UNL     1       0.925   9.076  20.494  0.00  0.00    +0.000 A 
ATOM      5  C   UNL     1       0.247  10.003  21.277  0.00  0.00    +0.000 A 
ATOM      6  C   UNL     1      -0.041  11.251  20.684  0.00  0.00    +0.000 A 
ATOM      7  C   UNL     1       1.371   7.681  20.796  0.00  0.00    +0.000 C 
ATOM      8  N   UNL     1       2.083   7.284  19.587  0.00  0.00    +0.000 N 
ATOM      9  C   UNL     1       2.055   8.285  18.620  0.00  0.00    +0.000 C 
ATOM     10  O   UNL     1       2.518   8.341  17.498  0.00  0.00    +0.000 OA
ENDROOT
BRANCH   8  11
ATOM     11  C   UNL     1       2.796   6.062  19.499  0.00  0.00    +0.000 A 
ATOM     12  C   UNL     1       2.215   4.839  19.845  0.00  0.00    +0.000 A 
ATOM     13  C   UNL     1       2.912   3.640  19.678  0.00  0.00    +0.000 A 
ATOM     14  C   UNL     1       4.210   3.643  19.170  0.00  0.00    +0.000 A 
ATOM     15  C   UNL     1       4.828   4.852  18.835  0.00  0.00    +0.000 A 
ATOM     16  C   UNL     1       4.110   6.048  19.014  0.00  0.00    +0.000 A 
BRANCH  15  17
ATOM     17  C   UNL     1       6.239   4.868  18.279  0.00  0.00    +0.000 C 
ATOM     18  C   UNL     1       7.300   5.068  19.375  0.00  0.00    +0.000 C 
ATOM     19  C   UNL     1       8.074   6.319  18.968  0.00  0.00    +0.000 C 
ATOM     20  N   UNL     1       7.126   7.053  18.132  0.00  0.00    +0.000 NA
ATOM     21  C   UNL     1       7.752   8.107  17.352  0.00  0.00    +0.000 C 
ATOM     22  C   UNL     1       6.487   6.029  17.297  0.00  0.00    +0.000 C 
ENDBRANCH  15  17
ENDBRANCH   8  11
BRANCH   5  23
ATOM     23  C   UNL     1      -0.166   9.727  22.698  0.00  0.00    +0.000 C 
ATOM     24  F   UNL     1       0.878   9.443  23.523  0.00  0.00    +0.000 F 
ATOM     25  F   UNL     1      -0.810  10.783  23.266  0.00  0.00    +0.000 F 
ATOM     26  F   UNL     1      -1.015   8.669  22.797  0.00  0.00    +0.000 F 
ENDBRANCH   5  23
BRANCH   1  28
ATOM     27  C   UNL     1      -1.004  13.461  19.703  0.00  0.00    +0.000 C 
ATOM     28  O   UNL     1      -0.028  12.792  18.906  0.00  0.00    +0.000 OA
ENDBRANCH   1  28
TORSDOF 4
ENDMDL
