MODEL 1
REMARK VINA RESULT:      -8.8      0.000      0.000
REMARK  Name = 
REMARK  2 active torsions:
REMARK  status: ('A' for Active; 'I' for Inactive)
REMARK    1  A    between atoms: N_3  and  C_4
REMARK    2  A    between atoms: C_8  and  N_9
REMARK                            x       y       z     vdW  Elec       q    Type
REMARK                         _______ _______ _______ _____ _____    ______ ____
ROOT
ATOM      1  O   UNL     1       1.712   8.919  20.995  0.00  0.00    +0.000 OA
ATOM      2  C   UNL     1       1.700   8.505  19.839  0.00  0.00    +0.000 C 
ATOM      3  N   UNL     1       1.079   9.122  18.780  0.00  0.00    +0.000 N 
ATOM      4  N   UNL     1       2.292   7.294  19.470  0.00  0.00    +0.000 N 
ATOM      5  C   UNL     1       2.552   6.897  18.069  0.00  0.00    +0.000 C 
ATOM      6  C   UNL     1       3.290   5.566  17.932  0.00  0.00    +0.000 C 
ATOM      7  C   UNL     1       2.450   4.572  18.693  0.00  0.00    +0.000 A 
ATOM      8  C   UNL     1       1.899   3.442  18.091  0.00  0.00    +0.000 A 
ATOM      9  C   UNL     1       0.970   2.694  18.799  0.00  0.00    +0.000 A 
ATOM     10  F   UNL     1       0.364   1.662  18.195  0.00  0.00    +0.000 F 
ATOM     11  C   UNL     1       0.613   3.026  20.105  0.00  0.00    +0.000 A 
ATOM     12  C   UNL     1       1.176   4.147  20.720  0.00  0.00    +0.000 A 
ATOM     13  C   UNL     1       2.074   4.941  20.006  0.00  0.00    +0.000 A 
ATOM     14  C   UNL     1       2.552   6.291  20.510  0.00  0.00    +0.000 C 
ATOM     15  H   UNL     1       0.909   8.524  17.993  0.00  0.00    +0.000 HD
ENDROOT
BRANCH   3  16
ATOM     16  C   UNL     1       0.469  10.378  18.686  0.00  0.00    +0.000 A 
ATOM     17  C   UNL     1       1.114  11.587  18.903  0.00  0.00    +0.000 A 
ATOM     18  C   UNL     1       0.416  12.777  18.691  0.00  0.00    +0.000 A 
ATOM     19  C   UNL     1      -0.911  12.758  18.247  0.00  0.00    +0.000 A 
ATOM     20  C   UNL     1      -1.583  11.550  18.040  0.00  0.00    +0.000 A 
ATOM     21  C   UNL     1      -0.880  10.367  18.289  0.00  0.00    +0.000 A 
BRANCH  20  22
ATOM     22  N   UNL     1      -2.925  11.502  17.587  0.00  0.00    +0.000 N 
ATOM     23  C   UNL     1      -4.060  11.641  18.447  0.00  0.00    +0.000 C 
ATOM     24  C   UNL     1      -5.215  11.698  17.483  0.00  0.00    +0.000 C 
ATOM     25  O   UNL     1      -4.719  11.130  16.272  0.00  0.00    +0.000 OA
ATOM     26  C   UNL     1      -3.348  11.139  16.316  0.00  0.00    +0.000 C 
ATOM     27  O   UNL     1      -2.673  10.818  15.353  0.00  0.00    +0.000 OA
ENDBRANCH  20  22
ENDBRANCH   3  16
TORSDOF 2
ENDMDL
MODEL 2
REMARK VINA RESULT:      -8.3      1.037      1.427
REMARK  Name = 
REMARK  2 active torsions:
REMARK  status: ('A' for Active; 'I' for Inactive)
REMARK    1  A    between atoms: N_3  and  C_4
REMARK    2  A    between atoms: C_8  and  N_9
REMARK                            x       y       z     vdW  Elec       q    Type
REMARK                         _______ _______ _______ _____ _____    ______ ____
ROOT
ATOM      1  O   UNL     1       0.535   8.316  21.340  0.00  0.00    +0.000 OA
ATOM      2  C   UNL     1       1.244   8.165  20.348  0.00  0.00    +0.000 C 
ATOM      3  N   UNL     1       1.257   8.989  19.247  0.00  0.00    +0.000 N 
ATOM      4  N   UNL     1       2.105   7.076  20.201  0.00  0.00    +0.000 N 
ATOM      5  C   UNL     1       3.172   7.001  19.178  0.00  0.00    +0.000 C 
ATOM      6  C   UNL     1       4.036   5.745  19.280  0.00  0.00    +0.000 C 
ATOM      7  C   UNL     1       3.066   4.594  19.222  0.00  0.00    +0.000 A 
ATOM      8  C   UNL     1       3.125   3.614  18.233  0.00  0.00    +0.000 A 
ATOM      9  C   UNL     1       2.076   2.712  18.123  0.00  0.00    +0.000 A 
ATOM     10  F   UNL     1       2.078   1.828  17.115  0.00  0.00    +0.000 F 
ATOM     11  C   UNL     1       0.996   2.743  19.002  0.00  0.00    +0.000 A 
ATOM     12  C   UNL     1       0.940   3.712  20.007  0.00  0.00    +0.000 A 
ATOM     13  C   UNL     1       1.960   4.659  20.103  0.00  0.00    +0.000 A 
ATOM     14  C   UNL     1       1.866   5.874  21.008  0.00  0.00    +0.000 C 
ATOM     15  H   UNL     1       1.653   8.575  18.425  0.00  0.00    +0.000 HD
ENDROOT
BRANCH   3  16
ATOM     16  C   UNL     1       0.637  10.224  19.025  0.00  0.00    +0.000 A 
ATOM     17  C   UNL     1       1.198  11.455  19.334  0.00  0.00    +0.000 A 
ATOM     18  C   UNL     1       0.515  12.620  18.980  0.00  0.00    +0.000 A 
ATOM     19  C   UNL     1      -0.710  12.554  18.307  0.00  0.00    +0.000 A 
ATOM     20  C   UNL     1      -1.300  11.323  18.005  0.00  0.00    +0.000 A 
ATOM     21  C   UNL     1      -0.618  10.166  18.395  0.00  0.00    +0.000 A 
BRANCH  20  22
ATOM     22  N   UNL     1      -2.536  11.229  17.320  0.00  0.00    +0.000 N 
ATOM     23  C   UNL     1      -2.650  10.991  15.914  0.00  0.00    +0.000 C 
ATOM     24  C   UNL     1      -4.131  10.803  15.717  0.00  0.00    +0.000 C 
ATOM     25  O   UNL     1      -4.739  11.397  16.862  0.00  0.00    +0.000 OA
ATOM     26  C   UNL     1      -3.787  11.526  17.842  0.00  0.00    +0.000 C 
ATOM     27  O   UNL     1      -4.072  11.897  18.968  0.00  0.00    +0.000 OA
ENDBRANCH  20  22
ENDBRANCH   3  16
TORSDOF 2
ENDMDL
MODEL 3
REMARK VINA RESULT:      -8.3      4.131      9.026
REMARK  Name = 
REMARK  2 active torsions:
REMARK  status: ('A' for Active; 'I' for Inactive)
REMARK    1  A    between atoms: N_3  and  C_4
REMARK    2  A    between atoms: C_8  and  N_9
REMARK                            x       y       z     vdW  Elec       q    Type
REMARK                         _______ _______ _______ _____ _____    ______ ____
ROOT
ATOM      1  O   UNL     1       1.407   8.428  22.004  0.00  0.00    +0.000 OA
ATOM      2  C   UNL     1       1.313   8.630  20.796  0.00  0.00    +0.000 C 
ATOM      3  N   UNL     1       1.784   7.795  19.811  0.00  0.00    +0.000 N 
ATOM      4  N   UNL     1       0.746   9.795  20.272  0.00  0.00    +0.000 N 
ATOM      5  C   UNL     1       0.355   9.955  18.855  0.00  0.00    +0.000 C 
ATOM      6  C   UNL     1      -0.326  11.289  18.551  0.00  0.00    +0.000 C 
ATOM      7  C   UNL     1       0.640  12.341  19.031  0.00  0.00    +0.000 A 
ATOM      8  C   UNL     1       1.177  13.307  18.181  0.00  0.00    +0.000 A 
ATOM      9  C   UNL     1       2.214  14.103  18.647  0.00  0.00    +0.000 A 
ATOM     10  F   UNL     1       2.802  14.967  17.808  0.00  0.00    +0.000 F 
ATOM     11  C   UNL     1       2.695  13.982  19.950  0.00  0.00    +0.000 A 
ATOM     12  C   UNL     1       2.147  13.029  20.811  0.00  0.00    +0.000 A 
ATOM     13  C   UNL     1       1.138  12.184  20.346  0.00  0.00    +0.000 A 
ATOM     14  C   UNL     1       0.652  10.980  21.132  0.00  0.00    +0.000 C 
ATOM     15  H   UNL     1       1.897   8.231  18.916  0.00  0.00    +0.000 HD
ENDROOT
BRANCH   3  16
ATOM     16  C   UNL     1       2.317   6.502  19.888  0.00  0.00    +0.000 A 
ATOM     17  C   UNL     1       1.717   5.439  20.548  0.00  0.00    +0.000 A 
ATOM     18  C   UNL     1       2.305   4.176  20.476  0.00  0.00    +0.000 A 
ATOM     19  C   UNL     1       3.476   3.974  19.736  0.00  0.00    +0.000 A 
ATOM     20  C   UNL     1       4.106   5.037  19.081  0.00  0.00    +0.000 A 
ATOM     21  C   UNL     1       3.520   6.303  19.189  0.00  0.00    +0.000 A 
BRANCH  20  22
ATOM     22  N   UNL     1       5.288   4.859  18.321  0.00  0.00    +0.000 N 
ATOM     23  C   UNL     1       5.313   4.280  17.013  0.00  0.00    +0.000 C 
ATOM     24  C   UNL     1       6.742   4.476  16.578  0.00  0.00    +0.000 C 
ATOM     25  O   UNL     1       7.473   4.690  17.784  0.00  0.00    +0.000 OA
ATOM     26  C   UNL     1       6.588   5.034  18.775  0.00  0.00    +0.000 C 
ATOM     27  O   UNL     1       6.967   5.386  19.879  0.00  0.00    +0.000 OA
ENDBRANCH  20  22
ENDBRANCH   3  16
TORSDOF 2
ENDMDL
MODEL 4
REMARK VINA RESULT:      -8.2      1.013      1.342
REMARK  Name = 
REMARK  2 active torsions:
REMARK  status: ('A' for Active; 'I' for Inactive)
REMARK    1  A    between atoms: N_3  and  C_4
REMARK    2  A    between atoms: C_8  and  N_9
REMARK                            x       y       z     vdW  Elec       q    Type
REMARK                         _______ _______ _______ _____ _____    ______ ____
ROOT
ATOM      1  O   UNL     1       1.667   8.981  21.084  0.00  0.00    +0.000 OA
ATOM      2  C   UNL     1       1.680   8.586  19.921  0.00  0.00    +0.000 C 
ATOM      3  N   UNL     1       1.088   9.224  18.857  0.00  0.00    +0.000 N 
ATOM      4  N   UNL     1       2.273   7.377  19.546  0.00  0.00    +0.000 N 
ATOM      5  C   UNL     1       2.564   7.002  18.145  0.00  0.00    +0.000 C 
ATOM      6  C   UNL     1       3.296   5.668  18.003  0.00  0.00    +0.000 C 
ATOM      7  C   UNL     1       2.432   4.668  18.727  0.00  0.00    +0.000 A 
ATOM      8  C   UNL     1       1.889   3.552  18.092  0.00  0.00    +0.000 A 
ATOM      9  C   UNL     1       0.938   2.798  18.766  0.00  0.00    +0.000 A 
ATOM     10  F   UNL     1       0.340   1.781  18.130  0.00  0.00    +0.000 F 
ATOM     11  C   UNL     1       0.552   3.110  20.069  0.00  0.00    +0.000 A 
ATOM     12  C   UNL     1       1.107   4.217  20.715  0.00  0.00    +0.000 A 
ATOM     13  C   UNL     1       2.027   5.017  20.036  0.00  0.00    +0.000 A 
ATOM     14  C   UNL     1       2.501   6.355  20.574  0.00  0.00    +0.000 C 
ATOM     15  H   UNL     1       0.933   8.641  18.057  0.00  0.00    +0.000 HD
ENDROOT
BRANCH   3  16
ATOM     16  C   UNL     1       0.489  10.487  18.770  0.00  0.00    +0.000 A 
ATOM     17  C   UNL     1       1.179  11.690  18.768  0.00  0.00    +0.000 A 
ATOM     18  C   UNL     1       0.471  12.879  18.585  0.00  0.00    +0.000 A 
ATOM     19  C   UNL     1      -0.915  12.862  18.390  0.00  0.00    +0.000 A 
ATOM     20  C   UNL     1      -1.630  11.662  18.409  0.00  0.00    +0.000 A 
ATOM     21  C   UNL     1      -0.910  10.482  18.624  0.00  0.00    +0.000 A 
BRANCH  20  22
ATOM     22  N   UNL     1      -3.032  11.616  18.209  0.00  0.00    +0.000 N 
ATOM     23  C   UNL     1      -3.646  11.315  16.952  0.00  0.00    +0.000 C 
ATOM     24  C   UNL     1      -5.109  11.219  17.300  0.00  0.00    +0.000 C 
ATOM     25  O   UNL     1      -5.244  11.912  18.539  0.00  0.00    +0.000 OA
ATOM     26  C   UNL     1      -4.002  12.026  19.112  0.00  0.00    +0.000 C 
ATOM     27  O   UNL     1      -3.854  12.474  20.236  0.00  0.00    +0.000 OA
ENDBRANCH  20  22
ENDBRANCH   3  16
TORSDOF 2
ENDMDL
MODEL 5
REMARK VINA RESULT:      -8.1      3.196      4.856
REMARK  Name = 
REMARK  2 active torsions:
REMARK  status: ('A' for Active; 'I' for Inactive)
REMARK    1  A    between atoms: N_3  and  C_4
REMARK    2  A    between atoms: C_8  and  N_9
REMARK                            x       y       z     vdW  Elec       q    Type
REMARK                         _______ _______ _______ _____ _____    ______ ____
ROOT
ATOM      1  O   UNL     1       1.696   4.866  19.427  0.00  0.00    +0.000 OA
ATOM      2  C   UNL     1       2.697   5.577  19.426  0.00  0.00    +0.000 C 
ATOM      3  N   UNL     1       2.717   6.923  19.705  0.00  0.00    +0.000 N 
ATOM      4  N   UNL     1       3.961   5.093  19.077  0.00  0.00    +0.000 N 
ATOM      5  C   UNL     1       5.222   5.822  19.333  0.00  0.00    +0.000 C 
ATOM      6  C   UNL     1       6.476   5.042  18.940  0.00  0.00    +0.000 C 
ATOM      7  C   UNL     1       6.274   4.680  17.492  0.00  0.00    +0.000 A 
ATOM      8  C   UNL     1       7.155   5.085  16.490  0.00  0.00    +0.000 A 
ATOM      9  C   UNL     1       6.791   4.894  15.164  0.00  0.00    +0.000 A 
ATOM     10  F   UNL     1       7.586   5.367  14.194  0.00  0.00    +0.000 F 
ATOM     11  C   UNL     1       5.592   4.272  14.822  0.00  0.00    +0.000 A 
ATOM     12  C   UNL     1       4.715   3.847  15.822  0.00  0.00    +0.000 A 
ATOM     13  C   UNL     1       5.039   4.076  17.160  0.00  0.00    +0.000 A 
ATOM     14  C   UNL     1       4.049   3.857  18.291  0.00  0.00    +0.000 C 
ATOM     15  H   UNL     1       3.533   7.403  19.376  0.00  0.00    +0.000 HD
ENDROOT
BRANCH   3  16
ATOM     16  C   UNL     1       1.713   7.769  20.191  0.00  0.00    +0.000 A 
ATOM     17  C   UNL     1       0.921   7.499  21.298  0.00  0.00    +0.000 A 
ATOM     18  C   UNL     1       0.014   8.465  21.735  0.00  0.00    +0.000 A 
ATOM     19  C   UNL     1      -0.088   9.699  21.081  0.00  0.00    +0.000 A 
ATOM     20  C   UNL     1       0.688   9.981  19.953  0.00  0.00    +0.000 A 
ATOM     21  C   UNL     1       1.569   8.989  19.508  0.00  0.00    +0.000 A 
BRANCH  20  22
ATOM     22  N   UNL     1       0.608  11.222  19.275  0.00  0.00    +0.000 N 
ATOM     23  C   UNL     1       1.571  12.271  19.421  0.00  0.00    +0.000 C 
ATOM     24  C   UNL     1       1.142  13.276  18.384  0.00  0.00    +0.000 C 
ATOM     25  O   UNL     1      -0.219  12.960  18.098  0.00  0.00    +0.000 OA
ATOM     26  C   UNL     1      -0.471  11.684  18.534  0.00  0.00    +0.000 C 
ATOM     27  O   UNL     1      -1.529  11.125  18.303  0.00  0.00    +0.000 OA
ENDBRANCH  20  22
ENDBRANCH   3  16
TORSDOF 2
ENDMDL
MODEL 6
REMARK VINA RESULT:      -8.0      4.123      8.912
REMARK  Name = 
REMARK  2 active torsions:
REMARK  status: ('A' for Active; 'I' for Inactive)
REMARK    1  A    between atoms: N_3  and  C_4
REMARK    2  A    between atoms: C_8  and  N_9
REMARK                            x       y       z     vdW  Elec       q    Type
REMARK                         _______ _______ _______ _____ _____    ______ ____
ROOT
ATOM      1  O   UNL     1       1.368   8.457  22.015  0.00  0.00    +0.000 OA
ATOM      2  C   UNL     1       1.281   8.650  20.805  0.00  0.00    +0.000 C 
ATOM      3  N   UNL     1       1.748   7.802  19.829  0.00  0.00    +0.000 N 
ATOM      4  N   UNL     1       0.727   9.815  20.269  0.00  0.00    +0.000 N 
ATOM      5  C   UNL     1       0.343   9.967  18.849  0.00  0.00    +0.000 C 
ATOM      6  C   UNL     1      -0.323  11.305  18.530  0.00  0.00    +0.000 C 
ATOM      7  C   UNL     1       0.652  12.351  19.005  0.00  0.00    +0.000 A 
ATOM      8  C   UNL     1       1.201  13.305  18.149  0.00  0.00    +0.000 A 
ATOM      9  C   UNL     1       2.244  14.095  18.612  0.00  0.00    +0.000 A 
ATOM     10  F   UNL     1       2.843  14.946  17.768  0.00  0.00    +0.000 F 
ATOM     11  C   UNL     1       2.718  13.981  19.918  0.00  0.00    +0.000 A 
ATOM     12  C   UNL     1       2.158  13.040  20.785  0.00  0.00    +0.000 A 
ATOM     13  C   UNL     1       1.142  12.202  20.323  0.00  0.00    +0.000 A 
ATOM     14  C   UNL     1       0.641  11.010  21.118  0.00  0.00    +0.000 C 
ATOM     15  H   UNL     1       1.868   8.229  18.931  0.00  0.00    +0.000 HD
ENDROOT
BRANCH   3  16
ATOM     16  C   UNL     1       2.267   6.505  19.920  0.00  0.00    +0.000 A 
ATOM     17  C   UNL     1       1.633   5.443  20.548  0.00  0.00    +0.000 A 
ATOM     18  C   UNL     1       2.215   4.175  20.492  0.00  0.00    +0.000 A 
ATOM     19  C   UNL     1       3.414   3.969  19.800  0.00  0.00    +0.000 A 
ATOM     20  C   UNL     1       4.077   5.031  19.177  0.00  0.00    +0.000 A 
ATOM     21  C   UNL     1       3.496   6.300  19.270  0.00  0.00    +0.000 A 
BRANCH  20  22
ATOM     22  N   UNL     1       5.288   4.848  18.466  0.00  0.00    +0.000 N 
ATOM     23  C   UNL     1       6.555   5.339  18.915  0.00  0.00    +0.000 C 
ATOM     24  C   UNL     1       7.523   4.745  17.925  0.00  0.00    +0.000 C 
ATOM     25  O   UNL     1       6.730   4.398  16.790  0.00  0.00    +0.000 OA
ATOM     26  C   UNL     1       5.414   4.350  17.177  0.00  0.00    +0.000 C 
ATOM     27  O   UNL     1       4.539   3.960  16.423  0.00  0.00    +0.000 OA
ENDBRANCH  20  22
ENDBRANCH   3  16
TORSDOF 2
ENDMDL
MODEL 7
REMARK VINA RESULT:      -8.0      3.593      8.804
REMARK  Name = 
REMARK  2 active torsions:
REMARK  status: ('A' for Active; 'I' for Inactive)
REMARK    1  A    between atoms: N_3  and  C_4
REMARK    2  A    between atoms: C_8  and  N_9
REMARK                            x       y       z     vdW  Elec       q    Type
REMARK                         _______ _______ _______ _____ _____    ______ ____
ROOT
ATOM      1  O   UNL     1       2.165   8.547  17.737  0.00  0.00    +0.000 OA
ATOM      2  C   UNL     1       1.777   8.753  18.883  0.00  0.00    +0.000 C 
ATOM      3  N   UNL     1       1.742   7.819  19.892  0.00  0.00    +0.000 N 
ATOM      4  N   UNL     1       1.261   9.986  19.290  0.00  0.00    +0.000 N 
ATOM      5  C   UNL     1       1.053  10.367  20.704  0.00  0.00    +0.000 C 
ATOM      6  C   UNL     1       0.562  11.802  20.891  0.00  0.00    +0.000 C 
ATOM      7  C   UNL     1      -0.685  11.902  20.051  0.00  0.00    +0.000 A 
ATOM      8  C   UNL     1      -1.927  12.230  20.592  0.00  0.00    +0.000 A 
ATOM      9  C   UNL     1      -3.058  12.095  19.799  0.00  0.00    +0.000 A 
ATOM     10  F   UNL     1      -4.265  12.315  20.339  0.00  0.00    +0.000 F 
ATOM     11  C   UNL     1      -2.969  11.682  18.470  0.00  0.00    +0.000 A 
ATOM     12  C   UNL     1      -1.725  11.371  17.918  0.00  0.00    +0.000 A 
ATOM     13  C   UNL     1      -0.581  11.451  18.714  0.00  0.00    +0.000 A 
ATOM     14  C   UNL     1       0.767  10.915  18.266  0.00  0.00    +0.000 C 
ATOM     15  H   UNL     1       1.136   8.055  20.654  0.00  0.00    +0.000 HD
ENDROOT
BRANCH   3  16
ATOM     16  C   UNL     1       2.249   6.515  19.945  0.00  0.00    +0.000 A 
ATOM     17  C   UNL     1       1.631   5.454  20.591  0.00  0.00    +0.000 A 
ATOM     18  C   UNL     1       2.194   4.181  20.495  0.00  0.00    +0.000 A 
ATOM     19  C   UNL     1       3.357   3.967  19.745  0.00  0.00    +0.000 A 
ATOM     20  C   UNL     1       4.004   5.028  19.104  0.00  0.00    +0.000 A 
ATOM     21  C   UNL     1       3.444   6.303  19.236  0.00  0.00    +0.000 A 
BRANCH  20  22
ATOM     22  N   UNL     1       5.178   4.839  18.335  0.00  0.00    +0.000 N 
ATOM     23  C   UNL     1       5.189   4.247  17.032  0.00  0.00    +0.000 C 
ATOM     24  C   UNL     1       6.614   4.435  16.582  0.00  0.00    +0.000 C 
ATOM     25  O   UNL     1       7.357   4.658  17.778  0.00  0.00    +0.000 OA
ATOM     26  C   UNL     1       6.483   5.014  18.774  0.00  0.00    +0.000 C 
ATOM     27  O   UNL     1       6.874   5.376  19.871  0.00  0.00    +0.000 OA
ENDBRANCH  20  22
ENDBRANCH   3  16
TORSDOF 2
ENDMDL
MODEL 8
REMARK VINA RESULT:      -7.9      3.302      4.705
REMARK  Name = 
REMARK  2 active torsions:
REMARK  status: ('A' for Active; 'I' for Inactive)
REMARK    1  A    between atoms: N_3  and  C_4
REMARK    2  A    between atoms: C_8  and  N_9
REMARK                            x       y       z     vdW  Elec       q    Type
REMARK                         _______ _______ _______ _____ _____    ______ ____
ROOT
ATOM      1  O   UNL     1       1.975   8.983  17.582  0.00  0.00    +0.000 OA
ATOM      2  C   UNL     1       2.213   8.178  18.478  0.00  0.00    +0.000 C 
ATOM      3  N   UNL     1       1.805   8.297  19.785  0.00  0.00    +0.000 N 
ATOM      4  N   UNL     1       2.996   7.039  18.273  0.00  0.00    +0.000 N 
ATOM      5  C   UNL     1       3.072   5.909  19.225  0.00  0.00    +0.000 C 
ATOM      6  C   UNL     1       3.927   4.742  18.731  0.00  0.00    +0.000 C 
ATOM      7  C   UNL     1       5.268   5.348  18.409  0.00  0.00    +0.000 A 
ATOM      8  C   UNL     1       6.445   4.934  19.031  0.00  0.00    +0.000 A 
ATOM      9  C   UNL     1       7.600   5.679  18.838  0.00  0.00    +0.000 A 
ATOM     10  F   UNL     1       8.712   5.346  19.507  0.00  0.00    +0.000 F 
ATOM     11  C   UNL     1       7.612   6.798  18.007  0.00  0.00    +0.000 A 
ATOM     12  C   UNL     1       6.440   7.206  17.366  0.00  0.00    +0.000 A 
ATOM     13  C   UNL     1       5.257   6.500  17.588  0.00  0.00    +0.000 A 
ATOM     14  C   UNL     1       3.904   7.005  17.120  0.00  0.00    +0.000 C 
ATOM     15  H   UNL     1       2.319   7.732  20.434  0.00  0.00    +0.000 HD
ENDROOT
BRANCH   3  16
ATOM     16  C   UNL     1       0.935   9.213  20.389  0.00  0.00    +0.000 A 
ATOM     17  C   UNL     1       0.164   8.947  21.511  0.00  0.00    +0.000 A 
ATOM     18  C   UNL     1      -0.598   9.974  22.070  0.00  0.00    +0.000 A 
ATOM     19  C   UNL     1      -0.575  11.262  21.521  0.00  0.00    +0.000 A 
ATOM     20  C   UNL     1       0.180  11.543  20.379  0.00  0.00    +0.000 A 
ATOM     21  C   UNL     1       0.913  10.495  19.812  0.00  0.00    +0.000 A 
BRANCH  20  22
ATOM     22  N   UNL     1       0.225  12.838  19.806  0.00  0.00    +0.000 N 
ATOM     23  C   UNL     1       0.829  13.969  20.443  0.00  0.00    +0.000 C 
ATOM     24  C   UNL     1       0.774  15.032  19.377  0.00  0.00    +0.000 C 
ATOM     25  O   UNL     1      -0.230  14.593  18.464  0.00  0.00    +0.000 OA
ATOM     26  C   UNL     1      -0.447  13.253  18.665  0.00  0.00    +0.000 C 
ATOM     27  O   UNL     1      -1.174  12.605  17.933  0.00  0.00    +0.000 OA
ENDBRANCH  20  22
ENDBRANCH   3  16
TORSDOF 2
ENDMDL
MODEL 9
REMARK VINA RESULT:      -7.9      2.917      3.929
REMARK  Name = 
REMARK  2 active torsions:
REMARK  status: ('A' for Active; 'I' for Inactive)
REMARK    1  A    between atoms: N_3  and  C_4
REMARK    2  A    between atoms: C_8  and  N_9
REMARK                            x       y       z     vdW  Elec       q    Type
REMARK                         _______ _______ _______ _____ _____    ______ ____
ROOT
ATOM      1  O   UNL     1       1.946   9.078  17.157  0.00  0.00    +0.000 OA
ATOM      2  C   UNL     1       2.124   8.390  18.158  0.00  0.00    +0.000 C 
ATOM      3  N   UNL     1       1.680   8.697  19.423  0.00  0.00    +0.000 N 
ATOM      4  N   UNL     1       2.867   7.207  18.134  0.00  0.00    +0.000 N 
ATOM      5  C   UNL     1       2.869   6.212  19.228  0.00  0.00    +0.000 C 
ATOM      6  C   UNL     1       3.693   4.962  18.923  0.00  0.00    +0.000 C 
ATOM      7  C   UNL     1       5.066   5.472  18.573  0.00  0.00    +0.000 A 
ATOM      8  C   UNL     1       6.206   5.104  19.286  0.00  0.00    +0.000 A 
ATOM      9  C   UNL     1       7.394   5.776  19.038  0.00  0.00    +0.000 A 
ATOM     10  F   UNL     1       8.471   5.496  19.786  0.00  0.00    +0.000 F 
ATOM     11  C   UNL     1       7.477   6.774  18.068  0.00  0.00    +0.000 A 
ATOM     12  C   UNL     1       6.342   7.133  17.338  0.00  0.00    +0.000 A 
ATOM     13  C   UNL     1       5.125   6.505  17.608  0.00  0.00    +0.000 A 
ATOM     14  C   UNL     1       3.808   6.989  17.029  0.00  0.00    +0.000 C 
ATOM     15  H   UNL     1       2.151   8.205  20.159  0.00  0.00    +0.000 HD
ENDROOT
BRANCH   3  16
ATOM     16  C   UNL     1       0.827   9.714  19.869  0.00  0.00    +0.000 A 
ATOM     17  C   UNL     1       1.071  10.521  20.970  0.00  0.00    +0.000 A 
ATOM     18  C   UNL     1       0.185  11.561  21.259  0.00  0.00    +0.000 A 
ATOM     19  C   UNL     1      -0.926  11.801  20.442  0.00  0.00    +0.000 A 
ATOM     20  C   UNL     1      -1.198  10.986  19.339  0.00  0.00    +0.000 A 
ATOM     21  C   UNL     1      -0.318   9.929  19.082  0.00  0.00    +0.000 A 
BRANCH  20  22
ATOM     22  N   UNL     1      -2.312  11.210  18.493  0.00  0.00    +0.000 N 
ATOM     23  C   UNL     1      -2.283  11.023  17.075  0.00  0.00    +0.000 C 
ATOM     24  C   UNL     1      -3.723  11.213  16.675  0.00  0.00    +0.000 C 
ATOM     25  O   UNL     1      -4.319  11.928  17.755  0.00  0.00    +0.000 OA
ATOM     26  C   UNL     1      -3.511  11.806  18.858  0.00  0.00    +0.000 C 
ATOM     27  O   UNL     1      -3.850  12.226  19.950  0.00  0.00    +0.000 OA
ENDBRANCH  20  22
ENDBRANCH   3  16
TORSDOF 2
ENDMDL
