MODEL 1
REMARK VINA RESULT:      -8.8      0.000      0.000
REMARK  Name = 
REMARK  4 active torsions:
REMARK  status: ('A' for Active; 'I' for Inactive)
REMARK    1  A    between atoms: N_6  and  C_7
REMARK    2  A    between atoms: C_10  and  N_11
REMARK    3  A    between atoms: N_11  and  C_12
REMARK    4  A    between atoms: N_20  and  C_21
REMARK                            x       y       z     vdW  Elec       q    Type
REMARK                         _______ _______ _______ _____ _____    ______ ____
ROOT
ATOM      1  C   UNL     1       3.490   5.449  18.712  0.00  0.00    +0.000 A 
ATOM      2  N   UNL     1       2.930   4.211  18.694  0.00  0.00    +0.000 NA
ATOM      3  C   UNL     1       3.209   3.374  17.688  0.00  0.00    +0.000 A 
ATOM      4  N   UNL     1       4.000   3.607  16.638  0.00  0.00    +0.000 NA
ATOM      5  C   UNL     1       4.542   4.841  16.660  0.00  0.00    +0.000 A 
ATOM      6  C   UNL     1       4.334   5.790  17.647  0.00  0.00    +0.000 A 
ATOM      7  C   UNL     1       5.118   6.886  17.256  0.00  0.00    +0.000 A 
ATOM      8  N   UNL     1       5.778   6.677  16.117  0.00  0.00    +0.000 NA
ATOM      9  N   UNL     1       5.416   5.412  15.737  0.00  0.00    +0.000 N 
ENDROOT
BRANCH   9  10
ATOM     10  C   UNL     1       5.943   4.846  14.536  0.00  0.00    +0.000 A 
ATOM     11  C   UNL     1       7.236   5.206  14.112  0.00  0.00    +0.000 A 
ATOM     12  C   UNL     1       7.778   4.644  12.951  0.00  0.00    +0.000 A 
ATOM     13  C   UNL     1       7.031   3.737  12.213  0.00  0.00    +0.000 A 
ATOM     14  F   UNL     1       7.553   3.195  11.104  0.00  0.00    +0.000 F 
ATOM     15  C   UNL     1       5.751   3.379  12.607  0.00  0.00    +0.000 A 
ATOM     16  C   UNL     1       5.205   3.932  13.767  0.00  0.00    +0.000 A 
ENDBRANCH   9  10
BRANCH   1  17
ATOM     17  N   UNL     1       3.195   6.325  19.768  0.00  0.00    +0.000 N 
ATOM     18  H   UNL     1       3.142   5.872  20.671  0.00  0.00    +0.000 HD
BRANCH  17  22
ATOM     19  C   UNL     1       0.567   9.652  19.489  0.00  0.00    +0.000 A 
ATOM     20  C   UNL     1       0.698   8.943  20.685  0.00  0.00    +0.000 A 
ATOM     21  C   UNL     1       1.547   7.835  20.780  0.00  0.00    +0.000 A 
ATOM     22  C   UNL     1       2.306   7.414  19.687  0.00  0.00    +0.000 A 
ATOM     23  C   UNL     1       2.222   8.145  18.504  0.00  0.00    +0.000 A 
ATOM     24  C   UNL     1       1.347   9.236  18.398  0.00  0.00    +0.000 A 
BRANCH  19  30
ATOM     25  O   UNL     1      -2.118   9.798  18.091  0.00  0.00    +0.000 OA
ATOM     26  C   UNL     1      -1.544  10.730  18.636  0.00  0.00    +0.000 C 
ATOM     27  C   UNL     1      -2.056  12.147  18.572  0.00  0.00    +0.000 C 
ATOM     28  C   UNL     1      -1.309  12.844  19.690  0.00  0.00    +0.000 C 
ATOM     29  C   UNL     1      -0.011  12.075  19.793  0.00  0.00    +0.000 C 
ATOM     30  N   UNL     1      -0.345  10.737  19.366  0.00  0.00    +0.000 N 
ENDBRANCH  19  30
ENDBRANCH  17  22
ENDBRANCH   1  17
TORSDOF 4
ENDMDL
MODEL 2
REMARK VINA RESULT:      -8.7      5.992      7.741
REMARK  Name = 
REMARK  4 active torsions:
REMARK  status: ('A' for Active; 'I' for Inactive)
REMARK    1  A    between atoms: N_6  and  C_7
REMARK    2  A    between atoms: C_10  and  N_11
REMARK    3  A    between atoms: N_11  and  C_12
REMARK    4  A    between atoms: N_20  and  C_21
REMARK                            x       y       z     vdW  Elec       q    Type
REMARK                         _______ _______ _______ _____ _____    ______ ____
ROOT
ATOM      1  C   UNL     1       7.558   7.292  17.956  0.00  0.00    +0.000 A 
ATOM      2  N   UNL     1       8.152   6.595  18.960  0.00  0.00    +0.000 NA
ATOM      3  C   UNL     1       7.522   5.545  19.499  0.00  0.00    +0.000 A 
ATOM      4  N   UNL     1       6.318   5.069  19.172  0.00  0.00    +0.000 NA
ATOM      5  C   UNL     1       5.733   5.774  18.182  0.00  0.00    +0.000 A 
ATOM      6  C   UNL     1       6.287   6.871  17.543  0.00  0.00    +0.000 A 
ATOM      7  C   UNL     1       5.334   7.240  16.582  0.00  0.00    +0.000 A 
ATOM      8  N   UNL     1       4.253   6.459  16.590  0.00  0.00    +0.000 NA
ATOM      9  N   UNL     1       4.492   5.553  17.589  0.00  0.00    +0.000 N 
ENDROOT
BRANCH   9  10
ATOM     10  C   UNL     1       3.525   4.542  17.886  0.00  0.00    +0.000 A 
ATOM     11  C   UNL     1       2.353   4.892  18.580  0.00  0.00    +0.000 A 
ATOM     12  C   UNL     1       1.385   3.921  18.859  0.00  0.00    +0.000 A 
ATOM     13  C   UNL     1       1.590   2.609  18.456  0.00  0.00    +0.000 A 
ATOM     14  F   UNL     1       0.660   1.681  18.719  0.00  0.00    +0.000 F 
ATOM     15  C   UNL     1       2.746   2.242  17.783  0.00  0.00    +0.000 A 
ATOM     16  C   UNL     1       3.714   3.207  17.497  0.00  0.00    +0.000 A 
ENDBRANCH   9  10
BRANCH   1  17
ATOM     17  N   UNL     1       8.222   8.392  17.392  0.00  0.00    +0.000 N 
ATOM     18  H   UNL     1       8.952   8.138  16.741  0.00  0.00    +0.000 HD
BRANCH  17  22
ATOM     19  C   UNL     1       9.209  12.004  19.404  0.00  0.00    +0.000 A 
ATOM     20  C   UNL     1       9.457  10.763  19.997  0.00  0.00    +0.000 A 
ATOM     21  C   UNL     1       9.118   9.571  19.350  0.00  0.00    +0.000 A 
ATOM     22  C   UNL     1       8.537   9.581  18.080  0.00  0.00    +0.000 A 
ATOM     23  C   UNL     1       8.333  10.810  17.457  0.00  0.00    +0.000 A 
ATOM     24  C   UNL     1       8.642  12.007  18.119  0.00  0.00    +0.000 A 
BRANCH  19  30
ATOM     25  O   UNL     1      11.830  13.479  19.774  0.00  0.00    +0.000 OA
ATOM     26  C   UNL     1      10.755  13.797  20.262  0.00  0.00    +0.000 C 
ATOM     27  C   UNL     1      10.614  14.932  21.245  0.00  0.00    +0.000 C 
ATOM     28  C   UNL     1       9.128  15.224  21.239  0.00  0.00    +0.000 C 
ATOM     29  C   UNL     1       8.499  13.892  20.895  0.00  0.00    +0.000 C 
ATOM     30  N   UNL     1       9.487  13.220  20.084  0.00  0.00    +0.000 N 
ENDBRANCH  19  30
ENDBRANCH  17  22
ENDBRANCH   1  17
TORSDOF 4
ENDMDL
MODEL 3
REMARK VINA RESULT:      -8.7      0.976      1.508
REMARK  Name = 
REMARK  4 active torsions:
REMARK  status: ('A' for Active; 'I' for Inactive)
REMARK    1  A    between atoms: N_6  and  C_7
REMARK    2  A    between atoms: C_10  and  N_11
REMARK    3  A    between atoms: N_11  and  C_12
REMARK    4  A    between atoms: N_20  and  C_21
REMARK                            x       y       z     vdW  Elec       q    Type
REMARK                         _______ _______ _______ _____ _____    ______ ____
ROOT
ATOM      1  C   UNL     1       3.412   5.386  18.801  0.00  0.00    +0.000 A 
ATOM      2  N   UNL     1       2.793   4.179  18.723  0.00  0.00    +0.000 NA
ATOM      3  C   UNL     1       3.047   3.372  17.686  0.00  0.00    +0.000 A 
ATOM      4  N   UNL     1       3.865   3.610  16.657  0.00  0.00    +0.000 NA
ATOM      5  C   UNL     1       4.466   4.814  16.740  0.00  0.00    +0.000 A 
ATOM      6  C   UNL     1       4.289   5.730  17.764  0.00  0.00    +0.000 A 
ATOM      7  C   UNL     1       5.131   6.801  17.430  0.00  0.00    +0.000 A 
ATOM      8  N   UNL     1       5.798   6.608  16.292  0.00  0.00    +0.000 NA
ATOM      9  N   UNL     1       5.381   5.379  15.854  0.00  0.00    +0.000 N 
ENDROOT
BRANCH   9  10
ATOM     10  C   UNL     1       5.899   4.838  14.637  0.00  0.00    +0.000 A 
ATOM     11  C   UNL     1       7.197   5.189  14.223  0.00  0.00    +0.000 A 
ATOM     12  C   UNL     1       7.730   4.652  13.046  0.00  0.00    +0.000 A 
ATOM     13  C   UNL     1       6.968   3.778  12.283  0.00  0.00    +0.000 A 
ATOM     14  F   UNL     1       7.482   3.259  11.159  0.00  0.00    +0.000 F 
ATOM     15  C   UNL     1       5.682   3.431  12.667  0.00  0.00    +0.000 A 
ATOM     16  C   UNL     1       5.145   3.960  13.842  0.00  0.00    +0.000 A 
ENDBRANCH   9  10
BRANCH   1  17
ATOM     17  N   UNL     1       3.144   6.230  19.890  0.00  0.00    +0.000 N 
ATOM     18  H   UNL     1       3.048   5.742  20.770  0.00  0.00    +0.000 HD
BRANCH  17  22
ATOM     19  C   UNL     1       0.589   9.624  19.771  0.00  0.00    +0.000 A 
ATOM     20  C   UNL     1       1.351   9.262  18.657  0.00  0.00    +0.000 A 
ATOM     21  C   UNL     1       2.207   8.158  18.694  0.00  0.00    +0.000 A 
ATOM     22  C   UNL     1       2.316   7.369  19.841  0.00  0.00    +0.000 A 
ATOM     23  C   UNL     1       1.523   7.689  20.940  0.00  0.00    +0.000 A 
ATOM     24  C   UNL     1       0.688   8.816  20.915  0.00  0.00    +0.000 A 
BRANCH  19  30
ATOM     25  O   UNL     1       0.893  12.243  21.267  0.00  0.00    +0.000 OA
ATOM     26  C   UNL     1      -0.046  11.935  20.547  0.00  0.00    +0.000 C 
ATOM     27  C   UNL     1      -1.275  12.797  20.405  0.00  0.00    +0.000 C 
ATOM     28  C   UNL     1      -1.936  12.267  19.150  0.00  0.00    +0.000 C 
ATOM     29  C   UNL     1      -1.517  10.814  19.106  0.00  0.00    +0.000 C 
ATOM     30  N   UNL     1      -0.232  10.785  19.763  0.00  0.00    +0.000 N 
ENDBRANCH  19  30
ENDBRANCH  17  22
ENDBRANCH   1  17
TORSDOF 4
ENDMDL
MODEL 4
REMARK VINA RESULT:      -8.7      0.968      1.497
REMARK  Name = 
REMARK  4 active torsions:
REMARK  status: ('A' for Active; 'I' for Inactive)
REMARK    1  A    between atoms: N_6  and  C_7
REMARK    2  A    between atoms: C_10  and  N_11
REMARK    3  A    between atoms: N_11  and  C_12
REMARK    4  A    between atoms: N_20  and  C_21
REMARK                            x       y       z     vdW  Elec       q    Type
REMARK                         _______ _______ _______ _____ _____    ______ ____
ROOT
ATOM      1  C   UNL     1       3.407   5.433  18.735  0.00  0.00    +0.000 A 
ATOM      2  N   UNL     1       2.710   4.277  18.578  0.00  0.00    +0.000 NA
ATOM      3  C   UNL     1       2.955   3.497  17.518  0.00  0.00    +0.000 A 
ATOM      4  N   UNL     1       3.832   3.718  16.536  0.00  0.00    +0.000 NA
ATOM      5  C   UNL     1       4.511   4.872  16.697  0.00  0.00    +0.000 A 
ATOM      6  C   UNL     1       4.351   5.755  17.751  0.00  0.00    +0.000 A 
ATOM      7  C   UNL     1       5.280   6.777  17.500  0.00  0.00    +0.000 A 
ATOM      8  N   UNL     1       5.983   6.583  16.384  0.00  0.00    +0.000 NA
ATOM      9  N   UNL     1       5.501   5.406  15.876  0.00  0.00    +0.000 N 
ENDROOT
BRANCH   9  10
ATOM     10  C   UNL     1       6.035   4.880  14.659  0.00  0.00    +0.000 A 
ATOM     11  C   UNL     1       5.289   3.936  13.930  0.00  0.00    +0.000 A 
ATOM     12  C   UNL     1       5.785   3.426  12.724  0.00  0.00    +0.000 A 
ATOM     13  C   UNL     1       7.020   3.850  12.255  0.00  0.00    +0.000 A 
ATOM     14  F   UNL     1       7.491   3.366  11.097  0.00  0.00    +0.000 F 
ATOM     15  C   UNL     1       7.776   4.770  12.966  0.00  0.00    +0.000 A 
ATOM     16  C   UNL     1       7.286   5.285  14.167  0.00  0.00    +0.000 A 
ENDBRANCH   9  10
BRANCH   1  17
ATOM     17  N   UNL     1       3.150   6.249  19.847  0.00  0.00    +0.000 N 
ATOM     18  H   UNL     1       3.116   5.745  20.724  0.00  0.00    +0.000 HD
BRANCH  17  22
ATOM     19  C   UNL     1       0.547   9.608  19.831  0.00  0.00    +0.000 A 
ATOM     20  C   UNL     1       0.696   8.824  20.978  0.00  0.00    +0.000 A 
ATOM     21  C   UNL     1       1.536   7.706  20.985  0.00  0.00    +0.000 A 
ATOM     22  C   UNL     1       2.269   7.348  19.853  0.00  0.00    +0.000 A 
ATOM     23  C   UNL     1       2.167   8.152  18.720  0.00  0.00    +0.000 A 
ATOM     24  C   UNL     1       1.300   9.254  18.701  0.00  0.00    +0.000 A 
BRANCH  19  30
ATOM     25  O   UNL     1       0.335  12.027  21.646  0.00  0.00    +0.000 OA
ATOM     26  C   UNL     1      -0.423  11.754  20.726  0.00  0.00    +0.000 C 
ATOM     27  C   UNL     1      -1.675  12.546  20.445  0.00  0.00    +0.000 C 
ATOM     28  C   UNL     1      -2.041  12.140  19.032  0.00  0.00    +0.000 C 
ATOM     29  C   UNL     1      -1.495  10.735  18.906  0.00  0.00    +0.000 C 
ATOM     30  N   UNL     1      -0.358  10.705  19.795  0.00  0.00    +0.000 N 
ENDBRANCH  19  30
ENDBRANCH  17  22
ENDBRANCH   1  17
TORSDOF 4
ENDMDL
MODEL 5
REMARK VINA RESULT:      -8.6      5.809      7.634
REMARK  Name = 
REMARK  4 active torsions:
REMARK  status: ('A' for Active; 'I' for Inactive)
REMARK    1  A    between atoms: N_6  and  C_7
REMARK    2  A    between atoms: C_10  and  N_11
REMARK    3  A    between atoms: N_11  and  C_12
REMARK    4  A    between atoms: N_20  and  C_21
REMARK                            x       y       z     vdW  Elec       q    Type
REMARK                         _______ _______ _______ _____ _____    ______ ____
ROOT
ATOM      1  C   UNL     1       7.509   7.325  17.925  0.00  0.00    +0.000 A 
ATOM      2  N   UNL     1       8.138   6.617  18.899  0.00  0.00    +0.000 NA
ATOM      3  C   UNL     1       7.534   5.550  19.435  0.00  0.00    +0.000 A 
ATOM      4  N   UNL     1       6.326   5.067  19.132  0.00  0.00    +0.000 NA
ATOM      5  C   UNL     1       5.707   5.784  18.173  0.00  0.00    +0.000 A 
ATOM      6  C   UNL     1       6.232   6.899  17.540  0.00  0.00    +0.000 A 
ATOM      7  C   UNL     1       5.249   7.276  16.613  0.00  0.00    +0.000 A 
ATOM      8  N   UNL     1       4.176   6.484  16.635  0.00  0.00    +0.000 NA
ATOM      9  N   UNL     1       4.452   5.561  17.610  0.00  0.00    +0.000 N 
ENDROOT
BRANCH   9  10
ATOM     10  C   UNL     1       3.504   4.536  17.914  0.00  0.00    +0.000 A 
ATOM     11  C   UNL     1       2.346   4.861  18.643  0.00  0.00    +0.000 A 
ATOM     12  C   UNL     1       1.396   3.874  18.930  0.00  0.00    +0.000 A 
ATOM     13  C   UNL     1       1.605   2.572  18.501  0.00  0.00    +0.000 A 
ATOM     14  F   UNL     1       0.692   1.629  18.772  0.00  0.00    +0.000 F 
ATOM     15  C   UNL     1       2.747   2.229  17.794  0.00  0.00    +0.000 A 
ATOM     16  C   UNL     1       3.698   3.208  17.499  0.00  0.00    +0.000 A 
ENDBRANCH   9  10
BRANCH   1  17
ATOM     17  N   UNL     1       8.146   8.443  17.364  0.00  0.00    +0.000 N 
ATOM     18  H   UNL     1       8.822   8.211  16.648  0.00  0.00    +0.000 HD
BRANCH  17  22
ATOM     19  C   UNL     1       9.342  11.941  19.461  0.00  0.00    +0.000 A 
ATOM     20  C   UNL     1       9.548  10.673  20.009  0.00  0.00    +0.000 A 
ATOM     21  C   UNL     1       9.141   9.518  19.334  0.00  0.00    +0.000 A 
ATOM     22  C   UNL     1       8.531   9.594  18.080  0.00  0.00    +0.000 A 
ATOM     23  C   UNL     1       8.367  10.850  17.501  0.00  0.00    +0.000 A 
ATOM     24  C   UNL     1       8.746  12.010  18.192  0.00  0.00    +0.000 A 
BRANCH  19  30
ATOM     25  O   UNL     1       8.210  13.081  22.032  0.00  0.00    +0.000 OA
ATOM     26  C   UNL     1       9.060  13.608  21.328  0.00  0.00    +0.000 C 
ATOM     27  C   UNL     1       9.582  14.998  21.591  0.00  0.00    +0.000 C 
ATOM     28  C   UNL     1      10.858  15.057  20.778  0.00  0.00    +0.000 C 
ATOM     29  C   UNL     1      10.602  14.104  19.632  0.00  0.00    +0.000 C 
ATOM     30  N   UNL     1       9.691  13.122  20.172  0.00  0.00    +0.000 N 
ENDBRANCH  19  30
ENDBRANCH  17  22
ENDBRANCH   1  17
TORSDOF 4
ENDMDL
MODEL 6
REMARK VINA RESULT:      -8.5      5.978      7.831
REMARK  Name = 
REMARK  4 active torsions:
REMARK  status: ('A' for Active; 'I' for Inactive)
REMARK    1  A    between atoms: N_6  and  C_7
REMARK    2  A    between atoms: C_10  and  N_11
REMARK    3  A    between atoms: N_11  and  C_12
REMARK    4  A    between atoms: N_20  and  C_21
REMARK                            x       y       z     vdW  Elec       q    Type
REMARK                         _______ _______ _______ _____ _____    ______ ____
ROOT
ATOM      1  C   UNL     1       7.541   7.352  17.910  0.00  0.00    +0.000 A 
ATOM      2  N   UNL     1       8.153   6.661  18.907  0.00  0.00    +0.000 NA
ATOM      3  C   UNL     1       7.532   5.614  19.463  0.00  0.00    +0.000 A 
ATOM      4  N   UNL     1       6.322   5.136  19.159  0.00  0.00    +0.000 NA
ATOM      5  C   UNL     1       5.721   5.835  18.175  0.00  0.00    +0.000 A 
ATOM      6  C   UNL     1       6.264   6.929  17.522  0.00  0.00    +0.000 A 
ATOM      7  C   UNL     1       5.294   7.292  16.575  0.00  0.00    +0.000 A 
ATOM      8  N   UNL     1       4.213   6.512  16.605  0.00  0.00    +0.000 NA
ATOM      9  N   UNL     1       4.469   5.611  17.605  0.00  0.00    +0.000 N 
ENDROOT
BRANCH   9  10
ATOM     10  C   UNL     1       3.508   4.602  17.924  0.00  0.00    +0.000 A 
ATOM     11  C   UNL     1       3.731   3.279  17.502  0.00  0.00    +0.000 A 
ATOM     12  C   UNL     1       2.813   2.273  17.825  0.00  0.00    +0.000 A 
ATOM     13  C   UNL     1       1.676   2.589  18.555  0.00  0.00    +0.000 A 
ATOM     14  F   UNL     1       0.800   1.624  18.869  0.00  0.00    +0.000 F 
ATOM     15  C   UNL     1       1.432   3.890  18.968  0.00  0.00    +0.000 A 
ATOM     16  C   UNL     1       2.346   4.898  18.654  0.00  0.00    +0.000 A 
ENDBRANCH   9  10
BRANCH   1  17
ATOM     17  N   UNL     1       8.195   8.449  17.329  0.00  0.00    +0.000 N 
ATOM     18  H   UNL     1       8.885   8.193  16.635  0.00  0.00    +0.000 HD
BRANCH  17  22
ATOM     19  C   UNL     1       9.292  11.953  19.469  0.00  0.00    +0.000 A 
ATOM     20  C   UNL     1       8.684  12.042  18.214  0.00  0.00    +0.000 A 
ATOM     21  C   UNL     1       8.337  10.894  17.496  0.00  0.00    +0.000 A 
ATOM     22  C   UNL     1       8.570   9.620  18.017  0.00  0.00    +0.000 A 
ATOM     23  C   UNL     1       9.128   9.520  19.289  0.00  0.00    +0.000 A 
ATOM     24  C   UNL     1       9.506  10.670  19.997  0.00  0.00    +0.000 A 
BRANCH  19  30
ATOM     25  O   UNL     1      10.783  14.404  18.490  0.00  0.00    +0.000 OA
ATOM     26  C   UNL     1      10.460  14.177  19.648  0.00  0.00    +0.000 C 
ATOM     27  C   UNL     1      10.886  15.058  20.795  0.00  0.00    +0.000 C 
ATOM     28  C   UNL     1       9.944  14.663  21.913  0.00  0.00    +0.000 C 
ATOM     29  C   UNL     1       9.610  13.219  21.611  0.00  0.00    +0.000 C 
ATOM     30  N   UNL     1       9.710  13.115  20.175  0.00  0.00    +0.000 N 
ENDBRANCH  19  30
ENDBRANCH  17  22
ENDBRANCH   1  17
TORSDOF 4
ENDMDL
MODEL 7
REMARK VINA RESULT:      -8.5      4.810     10.683
REMARK  Name = 
REMARK  4 active torsions:
REMARK  status: ('A' for Active; 'I' for Inactive)
REMARK    1  A    between atoms: N_6  and  C_7
REMARK    2  A    between atoms: C_10  and  N_11
REMARK    3  A    between atoms: N_11  and  C_12
REMARK    4  A    between atoms: N_20  and  C_21
REMARK                            x       y       z     vdW  Elec       q    Type
REMARK                         _______ _______ _______ _____ _____    ______ ____
ROOT
ATOM      1  C   UNL     1       1.243   8.679  20.301  0.00  0.00    +0.000 A 
ATOM      2  N   UNL     1       1.133   9.277  19.086  0.00  0.00    +0.000 NA
ATOM      3  C   UNL     1       0.498  10.451  18.983  0.00  0.00    +0.000 A 
ATOM      4  N   UNL     1      -0.080  11.147  19.964  0.00  0.00    +0.000 NA
ATOM      5  C   UNL     1       0.027  10.540  21.164  0.00  0.00    +0.000 A 
ATOM      6  C   UNL     1       0.663   9.332  21.397  0.00  0.00    +0.000 A 
ATOM      7  C   UNL     1       0.540   9.128  22.779  0.00  0.00    +0.000 A 
ATOM      8  N   UNL     1      -0.117  10.110  23.397  0.00  0.00    +0.000 NA
ATOM      9  N   UNL     1      -0.447  10.985  22.396  0.00  0.00    +0.000 N 
ENDROOT
BRANCH   9  10
ATOM     10  C   UNL     1      -1.173  12.178  22.698  0.00  0.00    +0.000 A 
ATOM     11  C   UNL     1      -2.501  12.082  23.152  0.00  0.00    +0.000 A 
ATOM     12  C   UNL     1      -3.220  13.238  23.474  0.00  0.00    +0.000 A 
ATOM     13  C   UNL     1      -2.621  14.482  23.335  0.00  0.00    +0.000 A 
ATOM     14  F   UNL     1      -3.308  15.589  23.649  0.00  0.00    +0.000 F 
ATOM     15  C   UNL     1      -1.317  14.598  22.876  0.00  0.00    +0.000 A 
ATOM     16  C   UNL     1      -0.592  13.448  22.557  0.00  0.00    +0.000 A 
ENDBRANCH   9  10
BRANCH   1  17
ATOM     17  N   UNL     1       1.910   7.449  20.407  0.00  0.00    +0.000 N 
ATOM     18  H   UNL     1       2.236   7.240  21.341  0.00  0.00    +0.000 HD
BRANCH  17  22
ATOM     19  C   UNL     1       4.565   5.823  17.515  0.00  0.00    +0.000 A 
ATOM     20  C   UNL     1       3.927   7.046  17.293  0.00  0.00    +0.000 A 
ATOM     21  C   UNL     1       3.038   7.578  18.231  0.00  0.00    +0.000 A 
ATOM     22  C   UNL     1       2.773   6.914  19.430  0.00  0.00    +0.000 A 
ATOM     23  C   UNL     1       3.442   5.720  19.685  0.00  0.00    +0.000 A 
ATOM     24  C   UNL     1       4.310   5.169  18.730  0.00  0.00    +0.000 A 
BRANCH  19  30
ATOM     25  O   UNL     1       7.393   6.554  16.705  0.00  0.00    +0.000 OA
ATOM     26  C   UNL     1       6.698   5.695  16.181  0.00  0.00    +0.000 C 
ATOM     27  C   UNL     1       7.127   4.950  14.942  0.00  0.00    +0.000 C 
ATOM     28  C   UNL     1       6.202   3.750  14.913  0.00  0.00    +0.000 C 
ATOM     29  C   UNL     1       4.951   4.241  15.606  0.00  0.00    +0.000 C 
ATOM     30  N   UNL     1       5.417   5.242  16.536  0.00  0.00    +0.000 N 
ENDBRANCH  19  30
ENDBRANCH  17  22
ENDBRANCH   1  17
TORSDOF 4
ENDMDL
MODEL 8
REMARK VINA RESULT:      -8.5      5.514     10.436
REMARK  Name = 
REMARK  4 active torsions:
REMARK  status: ('A' for Active; 'I' for Inactive)
REMARK    1  A    between atoms: N_6  and  C_7
REMARK    2  A    between atoms: C_10  and  N_11
REMARK    3  A    between atoms: N_11  and  C_12
REMARK    4  A    between atoms: N_20  and  C_21
REMARK                            x       y       z     vdW  Elec       q    Type
REMARK                         _______ _______ _______ _____ _____    ______ ____
ROOT
ATOM      1  C   UNL     1       0.562  10.848  18.442  0.00  0.00    +0.000 A 
ATOM      2  N   UNL     1       0.895  11.911  19.219  0.00  0.00    +0.000 NA
ATOM      3  C   UNL     1      -0.063  12.739  19.652  0.00  0.00    +0.000 A 
ATOM      4  N   UNL     1      -1.372  12.662  19.402  0.00  0.00    +0.000 NA
ATOM      5  C   UNL     1      -1.690  11.610  18.621  0.00  0.00    +0.000 A 
ATOM      6  C   UNL     1      -0.791  10.683  18.119  0.00  0.00    +0.000 A 
ATOM      7  C   UNL     1      -1.583   9.775  17.400  0.00  0.00    +0.000 A 
ATOM      8  N   UNL     1      -2.881  10.077  17.426  0.00  0.00    +0.000 NA
ATOM      9  N   UNL     1      -2.952  11.222  18.175  0.00  0.00    +0.000 N 
ENDROOT
BRANCH   9  10
ATOM     10  C   UNL     1      -4.216  11.844  18.416  0.00  0.00    +0.000 A 
ATOM     11  C   UNL     1      -5.157  11.920  17.373  0.00  0.00    +0.000 A 
ATOM     12  C   UNL     1      -6.409  12.504  17.597  0.00  0.00    +0.000 A 
ATOM     13  C   UNL     1      -6.715  13.017  18.849  0.00  0.00    +0.000 A 
ATOM     14  F   UNL     1      -7.916  13.571  19.064  0.00  0.00    +0.000 F 
ATOM     15  C   UNL     1      -5.795  12.963  19.886  0.00  0.00    +0.000 A 
ATOM     16  C   UNL     1      -4.546  12.378  19.672  0.00  0.00    +0.000 A 
ENDBRANCH   9  10
BRANCH   1  17
ATOM     17  N   UNL     1       1.569   9.981  17.990  0.00  0.00    +0.000 N 
ATOM     18  H   UNL     1       1.715  10.012  16.990  0.00  0.00    +0.000 HD
BRANCH  17  22
ATOM     19  C   UNL     1       2.342   6.128  19.607  0.00  0.00    +0.000 A 
ATOM     20  C   UNL     1       2.626   6.413  18.269  0.00  0.00    +0.000 A 
ATOM     21  C   UNL     1       2.358   7.672  17.725  0.00  0.00    +0.000 A 
ATOM     22  C   UNL     1       1.814   8.693  18.506  0.00  0.00    +0.000 A 
ATOM     23  C   UNL     1       1.574   8.437  19.854  0.00  0.00    +0.000 A 
ATOM     24  C   UNL     1       1.813   7.164  20.392  0.00  0.00    +0.000 A 
BRANCH  19  30
ATOM     25  O   UNL     1       4.713   4.257  19.349  0.00  0.00    +0.000 OA
ATOM     26  C   UNL     1       3.660   4.004  19.918  0.00  0.00    +0.000 C 
ATOM     27  C   UNL     1       3.348   2.639  20.476  0.00  0.00    +0.000 C 
ATOM     28  C   UNL     1       2.193   2.898  21.421  0.00  0.00    +0.000 C 
ATOM     29  C   UNL     1       1.499   4.101  20.823  0.00  0.00    +0.000 C 
ATOM     30  N   UNL     1       2.549   4.830  20.149  0.00  0.00    +0.000 N 
ENDBRANCH  19  30
ENDBRANCH  17  22
ENDBRANCH   1  17
TORSDOF 4
ENDMDL
MODEL 9
REMARK VINA RESULT:      -8.3      3.635      6.169
REMARK  Name = 
REMARK  4 active torsions:
REMARK  status: ('A' for Active; 'I' for Inactive)
REMARK    1  A    between atoms: N_6  and  C_7
REMARK    2  A    between atoms: C_10  and  N_11
REMARK    3  A    between atoms: N_11  and  C_12
REMARK    4  A    between atoms: N_20  and  C_21
REMARK                            x       y       z     vdW  Elec       q    Type
REMARK                         _______ _______ _______ _____ _____    ______ ____
ROOT
ATOM      1  C   UNL     1       0.661  10.457  20.539  0.00  0.00    +0.000 A 
ATOM      2  N   UNL     1       0.591   9.767  21.708  0.00  0.00    +0.000 NA
ATOM      3  C   UNL     1       1.063   8.516  21.766  0.00  0.00    +0.000 A 
ATOM      4  N   UNL     1       1.617   7.814  20.775  0.00  0.00    +0.000 NA
ATOM      5  C   UNL     1       1.673   8.505  19.618  0.00  0.00    +0.000 A 
ATOM      6  C   UNL     1       1.224   9.802  19.436  0.00  0.00    +0.000 A 
ATOM      7  C   UNL     1       1.517  10.094  18.096  0.00  0.00    +0.000 A 
ATOM      8  N   UNL     1       2.102   9.082  17.455  0.00  0.00    +0.000 NA
ATOM      9  N   UNL     1       2.192   8.088  18.394  0.00  0.00    +0.000 N 
ENDROOT
BRANCH   9  10
ATOM     10  C   UNL     1       2.779   6.830  18.052  0.00  0.00    +0.000 A 
ATOM     11  C   UNL     1       2.000   5.662  18.132  0.00  0.00    +0.000 A 
ATOM     12  C   UNL     1       2.551   4.424  17.780  0.00  0.00    +0.000 A 
ATOM     13  C   UNL     1       3.871   4.354  17.359  0.00  0.00    +0.000 A 
ATOM     14  F   UNL     1       4.395   3.169  17.016  0.00  0.00    +0.000 F 
ATOM     15  C   UNL     1       4.658   5.493  17.286  0.00  0.00    +0.000 A 
ATOM     16  C   UNL     1       4.115   6.731  17.632  0.00  0.00    +0.000 A 
ENDBRANCH   9  10
BRANCH   1  17
ATOM     17  N   UNL     1       0.165  11.769  20.481  0.00  0.00    +0.000 N 
ATOM     18  H   UNL     1       0.879  12.479  20.569  0.00  0.00    +0.000 HD
BRANCH  17  22
ATOM     19  C   UNL     1      -3.505  12.999  22.237  0.00  0.00    +0.000 A 
ATOM     20  C   UNL     1      -3.426  12.709  20.872  0.00  0.00    +0.000 A 
ATOM     21  C   UNL     1      -2.218  12.322  20.284  0.00  0.00    +0.000 A 
ATOM     22  C   UNL     1      -1.055  12.193  21.044  0.00  0.00    +0.000 A 
ATOM     23  C   UNL     1      -1.133  12.430  22.415  0.00  0.00    +0.000 A 
ATOM     24  C   UNL     1      -2.336  12.850  23.000  0.00  0.00    +0.000 A 
BRANCH  19  30
ATOM     25  O   UNL     1      -5.033  11.944  24.632  0.00  0.00    +0.000 OA
ATOM     26  C   UNL     1      -5.387  12.861  23.905  0.00  0.00    +0.000 C 
ATOM     27  C   UNL     1      -6.734  13.526  24.036  0.00  0.00    +0.000 C 
ATOM     28  C   UNL     1      -6.567  14.818  23.264  0.00  0.00    +0.000 C 
ATOM     29  C   UNL     1      -5.527  14.484  22.218  0.00  0.00    +0.000 C 
ATOM     30  N   UNL     1      -4.713  13.460  22.829  0.00  0.00    +0.000 N 
ENDBRANCH  19  30
ENDBRANCH  17  22
ENDBRANCH   1  17
TORSDOF 4
ENDMDL
