MODEL 1
REMARK VINA RESULT:      -8.6      0.000      0.000
REMARK  Name = 
REMARK  6 active torsions:
REMARK  status: ('A' for Active; 'I' for Inactive)
REMARK    1  A    between atoms: C_1  and  N_2
REMARK    2  A    between atoms: C_6  and  C_7
REMARK    3  A    between atoms: C_7  and  C_8
REMARK    4  A    between atoms: C_10  and  N_11
REMARK    5  A    between atoms: C_18  and  C_19
REMARK    6  A    between atoms: C_19  and  C_20
REMARK                            x       y       z     vdW  Elec       q    Type
REMARK                         _______ _______ _______ _____ _____    ______ ____
ROOT
ATOM      1  N   UNL     1       4.642   4.899  17.011  0.00  0.00    +0.000 N 
ATOM      2  C   UNL     1       4.147   3.855  17.902  0.00  0.00    +0.000 C 
ATOM      3  C   UNL     1       3.308   4.608  18.884  0.00  0.00    +0.000 A 
ATOM      4  C   UNL     1       3.298   5.959  18.544  0.00  0.00    +0.000 A 
ATOM      5  C   UNL     1       2.594   6.915  19.252  0.00  0.00    +0.000 A 
ATOM      6  C   UNL     1       1.858   6.482  20.352  0.00  0.00    +0.000 A 
ATOM      7  C   UNL     1       1.866   5.126  20.724  0.00  0.00    +0.000 A 
ATOM      8  C   UNL     1       2.602   4.164  20.000  0.00  0.00    +0.000 A 
ATOM      9  C   UNL     1       4.154   6.157  17.371  0.00  0.00    +0.000 C 
ATOM     10  O   UNL     1       4.347   7.255  16.883  0.00  0.00    +0.000 OA
ENDROOT
BRANCH   1  13
ATOM     11  C   UNL     1       6.561   4.495  13.996  0.00  0.00    +0.000 A 
ATOM     12  C   UNL     1       5.347   4.386  14.639  0.00  0.00    +0.000 A 
ATOM     13  C   UNL     1       5.574   4.718  15.999  0.00  0.00    +0.000 A 
ATOM     14  C   UNL     1       6.940   4.874  16.115  0.00  0.00    +0.000 A 
ATOM     15  O   UNL     1       7.548   4.732  14.908  0.00  0.00    +0.000 OA
BRANCH  11  16
ATOM     16  C   UNL     1       6.951   4.468  12.562  0.00  0.00    +0.000 C 
BRANCH  16  22
ATOM     17  C   UNL     1       4.177   3.316  11.611  0.00  0.00    +0.000 C 
ATOM     18  N   UNL     1       5.457   2.667  11.529  0.00  0.00    +0.000 N 
ATOM     19  C   UNL     1       5.675   1.422  11.023  0.00  0.00    +0.000 A 
ATOM     20  N   UNL     1       6.955   1.144  11.084  0.00  0.00    +0.000 NA
ATOM     21  N   UNL     1       7.589   2.219  11.653  0.00  0.00    +0.000 NA
ATOM     22  C   UNL     1       6.684   3.140  11.929  0.00  0.00    +0.000 A 
ENDBRANCH  16  22
ENDBRANCH  11  16
ENDBRANCH   1  13
BRANCH   8  23
ATOM     23  C   UNL     1       2.632   2.725  20.457  0.00  0.00    +0.000 C 
ATOM     24  C   UNL     1       1.795   2.524  21.713  0.00  0.00    +0.000 C 
ATOM     25  F   UNL     1       2.161   1.870  19.504  0.00  0.00    +0.000 F 
ATOM     26  F   UNL     1       3.898   2.296  20.732  0.00  0.00    +0.000 F 
ENDBRANCH   8  23
TORSDOF 4
ENDMDL
MODEL 2
REMARK VINA RESULT:      -8.2      3.658      5.596
REMARK  Name = 
REMARK  6 active torsions:
REMARK  status: ('A' for Active; 'I' for Inactive)
REMARK    1  A    between atoms: C_1  and  N_2
REMARK    2  A    between atoms: C_6  and  C_7
REMARK    3  A    between atoms: C_7  and  C_8
REMARK    4  A    between atoms: C_10  and  N_11
REMARK    5  A    between atoms: C_18  and  C_19
REMARK    6  A    between atoms: C_19  and  C_20
REMARK                            x       y       z     vdW  Elec       q    Type
REMARK                         _______ _______ _______ _____ _____    ______ ____
ROOT
ATOM      1  N   UNL     1       2.139   7.338  19.244  0.00  0.00    +0.000 N 
ATOM      2  C   UNL     1       1.406   7.661  20.462  0.00  0.00    +0.000 C 
ATOM      3  C   UNL     1       0.968   9.074  20.239  0.00  0.00    +0.000 A 
ATOM      4  C   UNL     1       1.386   9.492  18.976  0.00  0.00    +0.000 A 
ATOM      5  C   UNL     1       1.118  10.749  18.466  0.00  0.00    +0.000 A 
ATOM      6  C   UNL     1       0.386  11.621  19.268  0.00  0.00    +0.000 A 
ATOM      7  C   UNL     1      -0.033  11.226  20.551  0.00  0.00    +0.000 A 
ATOM      8  C   UNL     1       0.262   9.945  21.064  0.00  0.00    +0.000 A 
ATOM      9  C   UNL     1       2.144   8.408  18.346  0.00  0.00    +0.000 C 
ATOM     10  O   UNL     1       2.651   8.522  17.246  0.00  0.00    +0.000 OA
ENDROOT
BRANCH   1  13
ATOM     11  C   UNL     1       3.877   4.424  18.052  0.00  0.00    +0.000 A 
ATOM     12  C   UNL     1       2.893   5.367  17.853  0.00  0.00    +0.000 A 
ATOM     13  C   UNL     1       2.855   6.171  19.022  0.00  0.00    +0.000 A 
ATOM     14  C   UNL     1       3.729   5.572  19.906  0.00  0.00    +0.000 A 
ATOM     15  O   UNL     1       4.347   4.507  19.330  0.00  0.00    +0.000 OA
BRANCH  11  16
ATOM     16  C   UNL     1       4.525   3.434  17.151  0.00  0.00    +0.000 C 
BRANCH  16  22
ATOM     17  C   UNL     1       7.418   4.556  17.701  0.00  0.00    +0.000 C 
ATOM     18  N   UNL     1       6.709   4.565  16.449  0.00  0.00    +0.000 N 
ATOM     19  C   UNL     1       7.185   5.078  15.282  0.00  0.00    +0.000 A 
ATOM     20  N   UNL     1       6.293   4.909  14.335  0.00  0.00    +0.000 NA
ATOM     21  N   UNL     1       5.206   4.287  14.893  0.00  0.00    +0.000 NA
ATOM     22  C   UNL     1       5.452   4.083  16.174  0.00  0.00    +0.000 A 
ENDBRANCH  16  22
ENDBRANCH  11  16
ENDBRANCH   1  13
BRANCH   8  23
ATOM     23  C   UNL     1      -0.157   9.571  22.467  0.00  0.00    +0.000 C 
ATOM     24  C   UNL     1      -0.969  10.681  23.118  0.00  0.00    +0.000 C 
ATOM     25  F   UNL     1      -0.909   8.434  22.495  0.00  0.00    +0.000 F 
ATOM     26  F   UNL     1       0.914   9.315  23.274  0.00  0.00    +0.000 F 
ENDBRANCH   8  23
TORSDOF 4
ENDMDL
MODEL 3
REMARK VINA RESULT:      -8.2      3.805      5.647
REMARK  Name = 
REMARK  6 active torsions:
REMARK  status: ('A' for Active; 'I' for Inactive)
REMARK    1  A    between atoms: C_1  and  N_2
REMARK    2  A    between atoms: C_6  and  C_7
REMARK    3  A    between atoms: C_7  and  C_8
REMARK    4  A    between atoms: C_10  and  N_11
REMARK    5  A    between atoms: C_18  and  C_19
REMARK    6  A    between atoms: C_19  and  C_20
REMARK                            x       y       z     vdW  Elec       q    Type
REMARK                         _______ _______ _______ _____ _____    ______ ____
ROOT
ATOM      1  N   UNL     1       2.256   7.605  19.324  0.00  0.00    +0.000 N 
ATOM      2  C   UNL     1       1.535   7.879  20.561  0.00  0.00    +0.000 C 
ATOM      3  C   UNL     1       0.810   9.153  20.265  0.00  0.00    +0.000 A 
ATOM      4  C   UNL     1       1.071   9.537  18.950  0.00  0.00    +0.000 A 
ATOM      5  C   UNL     1       0.530  10.668  18.368  0.00  0.00    +0.000 A 
ATOM      6  C   UNL     1      -0.323  11.443  19.151  0.00  0.00    +0.000 A 
ATOM      7  C   UNL     1      -0.588  11.084  20.484  0.00  0.00    +0.000 A 
ATOM      8  C   UNL     1      -0.015   9.934  21.069  0.00  0.00    +0.000 A 
ATOM      9  C   UNL     1       2.000   8.574  18.353  0.00  0.00    +0.000 C 
ATOM     10  O   UNL     1       2.418   8.692  17.216  0.00  0.00    +0.000 OA
ENDROOT
BRANCH   1  13
ATOM     11  C   UNL     1       5.035   5.429  18.629  0.00  0.00    +0.000 A 
ATOM     12  C   UNL     1       4.359   6.597  18.349  0.00  0.00    +0.000 A 
ATOM     13  C   UNL     1       3.182   6.587  19.141  0.00  0.00    +0.000 A 
ATOM     14  C   UNL     1       3.158   5.348  19.747  0.00  0.00    +0.000 A 
ATOM     15  O   UNL     1       4.273   4.635  19.436  0.00  0.00    +0.000 OA
BRANCH  11  16
ATOM     16  C   UNL     1       6.396   4.941  18.282  0.00  0.00    +0.000 C 
BRANCH  16  22
ATOM     17  C   UNL     1       4.992   3.306  15.983  0.00  0.00    +0.000 C 
ATOM     18  N   UNL     1       6.034   4.285  15.836  0.00  0.00    +0.000 N 
ATOM     19  C   UNL     1       6.597   4.662  14.655  0.00  0.00    +0.000 A 
ATOM     20  N   UNL     1       7.504   5.582  14.877  0.00  0.00    +0.000 NA
ATOM     21  N   UNL     1       7.549   5.806  16.229  0.00  0.00    +0.000 NA
ATOM     22  C   UNL     1       6.665   5.018  16.813  0.00  0.00    +0.000 A 
ENDBRANCH  16  22
ENDBRANCH  11  16
ENDBRANCH   1  13
BRANCH   8  23
ATOM     23  C   UNL     1      -0.279   9.606  22.520  0.00  0.00    +0.000 C 
ATOM     24  C   UNL     1      -1.109  10.690  23.192  0.00  0.00    +0.000 C 
ATOM     25  F   UNL     1      -0.941   8.423  22.669  0.00  0.00    +0.000 F 
ATOM     26  F   UNL     1       0.875   9.466  23.236  0.00  0.00    +0.000 F 
ENDBRANCH   8  23
TORSDOF 4
ENDMDL
MODEL 4
REMARK VINA RESULT:      -8.2      0.675      1.252
REMARK  Name = 
REMARK  6 active torsions:
REMARK  status: ('A' for Active; 'I' for Inactive)
REMARK    1  A    between atoms: C_1  and  N_2
REMARK    2  A    between atoms: C_6  and  C_7
REMARK    3  A    between atoms: C_7  and  C_8
REMARK    4  A    between atoms: C_10  and  N_11
REMARK    5  A    between atoms: C_18  and  C_19
REMARK    6  A    between atoms: C_19  and  C_20
REMARK                            x       y       z     vdW  Elec       q    Type
REMARK                         _______ _______ _______ _____ _____    ______ ____
ROOT
ATOM      1  N   UNL     1       4.567   4.903  17.282  0.00  0.00    +0.000 N 
ATOM      2  C   UNL     1       4.027   3.865  18.152  0.00  0.00    +0.000 C 
ATOM      3  C   UNL     1       3.179   4.629  19.118  0.00  0.00    +0.000 A 
ATOM      4  C   UNL     1       3.207   5.982  18.787  0.00  0.00    +0.000 A 
ATOM      5  C   UNL     1       2.505   6.949  19.483  0.00  0.00    +0.000 A 
ATOM      6  C   UNL     1       1.731   6.524  20.560  0.00  0.00    +0.000 A 
ATOM      7  C   UNL     1       1.699   5.165  20.922  0.00  0.00    +0.000 A 
ATOM      8  C   UNL     1       2.434   4.193  20.211  0.00  0.00    +0.000 A 
ATOM      9  C   UNL     1       4.098   6.169  17.639  0.00  0.00    +0.000 C 
ATOM     10  O   UNL     1       4.328   7.266  17.164  0.00  0.00    +0.000 OA
ENDROOT
BRANCH   1  13
ATOM     11  C   UNL     1       6.544   4.309  14.337  0.00  0.00    +0.000 A 
ATOM     12  C   UNL     1       5.363   4.111  15.018  0.00  0.00    +0.000 A 
ATOM     13  C   UNL     1       5.522   4.709  16.295  0.00  0.00    +0.000 A 
ATOM     14  C   UNL     1       6.841   5.111  16.348  0.00  0.00    +0.000 A 
ATOM     15  O   UNL     1       7.471   4.866  15.169  0.00  0.00    +0.000 OA
BRANCH  11  16
ATOM     16  C   UNL     1       6.940   4.098  12.920  0.00  0.00    +0.000 C 
BRANCH  16  22
ATOM     17  C   UNL     1       7.205   1.417  11.288  0.00  0.00    +0.000 C 
ATOM     18  N   UNL     1       6.028   2.231  11.429  0.00  0.00    +0.000 N 
ATOM     19  C   UNL     1       4.820   1.969  10.860  0.00  0.00    +0.000 A 
ATOM     20  N   UNL     1       3.965   2.902  11.203  0.00  0.00    +0.000 NA
ATOM     21  N   UNL     1       4.626   3.802  12.000  0.00  0.00    +0.000 NA
ATOM     22  C   UNL     1       5.877   3.401  12.133  0.00  0.00    +0.000 A 
ENDBRANCH  16  22
ENDBRANCH  11  16
ENDBRANCH   1  13
BRANCH   8  23
ATOM     23  C   UNL     1       2.419   2.750  20.658  0.00  0.00    +0.000 C 
ATOM     24  C   UNL     1       1.461   2.539  21.821  0.00  0.00    +0.000 C 
ATOM     25  F   UNL     1       2.049   1.903  19.655  0.00  0.00    +0.000 F 
ATOM     26  F   UNL     1       3.653   2.321  21.056  0.00  0.00    +0.000 F 
ENDBRANCH   8  23
TORSDOF 4
ENDMDL
MODEL 5
REMARK VINA RESULT:      -8.0      3.785      5.826
REMARK  Name = 
REMARK  6 active torsions:
REMARK  status: ('A' for Active; 'I' for Inactive)
REMARK    1  A    between atoms: C_1  and  N_2
REMARK    2  A    between atoms: C_6  and  C_7
REMARK    3  A    between atoms: C_7  and  C_8
REMARK    4  A    between atoms: C_10  and  N_11
REMARK    5  A    between atoms: C_18  and  C_19
REMARK    6  A    between atoms: C_19  and  C_20
REMARK                            x       y       z     vdW  Elec       q    Type
REMARK                         _______ _______ _______ _____ _____    ______ ____
ROOT
ATOM      1  N   UNL     1       1.899   7.420  19.380  0.00  0.00    +0.000 N 
ATOM      2  C   UNL     1       1.167   7.772  20.591  0.00  0.00    +0.000 C 
ATOM      3  C   UNL     1       0.855   9.221  20.398  0.00  0.00    +0.000 A 
ATOM      4  C   UNL     1       1.336   9.636  19.157  0.00  0.00    +0.000 A 
ATOM      5  C   UNL     1       1.186  10.923  18.677  0.00  0.00    +0.000 A 
ATOM      6  C   UNL     1       0.510  11.832  19.487  0.00  0.00    +0.000 A 
ATOM      7  C   UNL     1       0.030  11.441  20.749  0.00  0.00    +0.000 A 
ATOM      8  C   UNL     1       0.204  10.127  21.232  0.00  0.00    +0.000 A 
ATOM      9  C   UNL     1       2.014   8.508  18.513  0.00  0.00    +0.000 C 
ATOM     10  O   UNL     1       2.555   8.608  17.428  0.00  0.00    +0.000 OA
ENDROOT
BRANCH   1  13
ATOM     11  C   UNL     1       3.573   4.478  18.163  0.00  0.00    +0.000 A 
ATOM     12  C   UNL     1       2.785   5.576  17.895  0.00  0.00    +0.000 A 
ATOM     13  C   UNL     1       2.520   6.202  19.141  0.00  0.00    +0.000 A 
ATOM     14  C   UNL     1       3.056   5.361  20.094  0.00  0.00    +0.000 A 
ATOM     15  O   UNL     1       3.689   4.308  19.511  0.00  0.00    +0.000 OA
BRANCH  11  16
ATOM     16  C   UNL     1       4.330   3.541  17.291  0.00  0.00    +0.000 C 
BRANCH  16  22
ATOM     17  C   UNL     1       5.473   4.305  14.457  0.00  0.00    +0.000 C 
ATOM     18  N   UNL     1       6.165   4.373  15.715  0.00  0.00    +0.000 N 
ATOM     19  C   UNL     1       7.453   4.779  15.882  0.00  0.00    +0.000 A 
ATOM     20  N   UNL     1       7.764   4.734  17.155  0.00  0.00    +0.000 NA
ATOM     21  N   UNL     1       6.665   4.277  17.837  0.00  0.00    +0.000 NA
ATOM     22  C   UNL     1       5.698   4.052  16.967  0.00  0.00    +0.000 A 
ENDBRANCH  16  22
ENDBRANCH  11  16
ENDBRANCH   1  13
BRANCH   8  23
ATOM     23  C   UNL     1      -0.277   9.754  22.615  0.00  0.00    +0.000 C 
ATOM     24  C   UNL     1      -1.176  10.833  23.200  0.00  0.00    +0.000 C 
ATOM     25  F   UNL     1      -0.976   8.583  22.619  0.00  0.00    +0.000 F 
ATOM     26  F   UNL     1       0.757   9.560  23.486  0.00  0.00    +0.000 F 
ENDBRANCH   8  23
TORSDOF 4
ENDMDL
MODEL 6
REMARK VINA RESULT:      -7.9      5.205      7.673
REMARK  Name = 
REMARK  6 active torsions:
REMARK  status: ('A' for Active; 'I' for Inactive)
REMARK    1  A    between atoms: C_1  and  N_2
REMARK    2  A    between atoms: C_6  and  C_7
REMARK    3  A    between atoms: C_7  and  C_8
REMARK    4  A    between atoms: C_10  and  N_11
REMARK    5  A    between atoms: C_18  and  C_19
REMARK    6  A    between atoms: C_19  and  C_20
REMARK                            x       y       z     vdW  Elec       q    Type
REMARK                         _______ _______ _______ _____ _____    ______ ____
ROOT
ATOM      1  N   UNL     1       0.921   9.268  18.982  0.00  0.00    +0.000 N 
ATOM      2  C   UNL     1      -0.141   9.523  18.016  0.00  0.00    +0.000 C 
ATOM      3  C   UNL     1      -1.016  10.513  18.717  0.00  0.00    +0.000 A 
ATOM      4  C   UNL     1      -0.463  10.820  19.959  0.00  0.00    +0.000 A 
ATOM      5  C   UNL     1      -1.030  11.721  20.840  0.00  0.00    +0.000 A 
ATOM      6  C   UNL     1      -2.208  12.348  20.443  0.00  0.00    +0.000 A 
ATOM      7  C   UNL     1      -2.792  12.043  19.200  0.00  0.00    +0.000 A 
ATOM      8  C   UNL     1      -2.210  11.109  18.318  0.00  0.00    +0.000 A 
ATOM      9  C   UNL     1       0.753  10.023  20.144  0.00  0.00    +0.000 C 
ATOM     10  O   UNL     1       1.417  10.076  21.163  0.00  0.00    +0.000 OA
ENDROOT
BRANCH   1  13
ATOM     11  C   UNL     1       3.169   6.461  19.056  0.00  0.00    +0.000 A 
ATOM     12  C   UNL     1       2.215   7.219  19.699  0.00  0.00    +0.000 A 
ATOM     13  C   UNL     1       1.919   8.313  18.846  0.00  0.00    +0.000 A 
ATOM     14  C   UNL     1       2.816   8.217  17.802  0.00  0.00    +0.000 A 
ATOM     15  O   UNL     1       3.584   7.101  17.925  0.00  0.00    +0.000 OA
BRANCH  11  16
ATOM     16  C   UNL     1       3.743   5.117  19.326  0.00  0.00    +0.000 C 
BRANCH  16  22
ATOM     17  C   UNL     1       4.854   4.146  16.542  0.00  0.00    +0.000 C 
ATOM     18  N   UNL     1       5.623   4.585  17.676  0.00  0.00    +0.000 N 
ATOM     19  C   UNL     1       6.982   4.643  17.727  0.00  0.00    +0.000 A 
ATOM     20  N   UNL     1       7.355   5.101  18.898  0.00  0.00    +0.000 NA
ATOM     21  N   UNL     1       6.222   5.334  19.635  0.00  0.00    +0.000 NA
ATOM     22  C   UNL     1       5.172   5.017  18.900  0.00  0.00    +0.000 A 
ENDBRANCH  16  22
ENDBRANCH  11  16
ENDBRANCH   1  13
BRANCH   8  23
ATOM     23  C   UNL     1      -2.892  10.764  17.015  0.00  0.00    +0.000 C 
ATOM     24  C   UNL     1      -4.241  11.458  16.894  0.00  0.00    +0.000 C 
ATOM     25  F   UNL     1      -2.143  11.119  15.931  0.00  0.00    +0.000 F 
ATOM     26  F   UNL     1      -3.105   9.422  16.883  0.00  0.00    +0.000 F 
ENDBRANCH   8  23
TORSDOF 4
ENDMDL
MODEL 7
REMARK VINA RESULT:      -7.8      5.556      8.106
REMARK  Name = 
REMARK  6 active torsions:
REMARK  status: ('A' for Active; 'I' for Inactive)
REMARK    1  A    between atoms: C_1  and  N_2
REMARK    2  A    between atoms: C_6  and  C_7
REMARK    3  A    between atoms: C_7  and  C_8
REMARK    4  A    between atoms: C_10  and  N_11
REMARK    5  A    between atoms: C_18  and  C_19
REMARK    6  A    between atoms: C_19  and  C_20
REMARK                            x       y       z     vdW  Elec       q    Type
REMARK                         _______ _______ _______ _____ _____    ______ ____
ROOT
ATOM      1  N   UNL     1       0.618   9.587  18.984  0.00  0.00    +0.000 N 
ATOM      2  C   UNL     1      -0.438   9.805  18.003  0.00  0.00    +0.000 C 
ATOM      3  C   UNL     1      -1.362  10.756  18.694  0.00  0.00    +0.000 A 
ATOM      4  C   UNL     1      -0.840  11.079  19.945  0.00  0.00    +0.000 A 
ATOM      5  C   UNL     1      -1.456  11.954  20.821  0.00  0.00    +0.000 A 
ATOM      6  C   UNL     1      -2.651  12.537  20.407  0.00  0.00    +0.000 A 
ATOM      7  C   UNL     1      -3.204  12.214  19.155  0.00  0.00    +0.000 A 
ATOM      8  C   UNL     1      -2.572  11.307  18.278  0.00  0.00    +0.000 A 
ATOM      9  C   UNL     1       0.402  10.330  20.146  0.00  0.00    +0.000 C 
ATOM     10  O   UNL     1       1.048  10.404  21.175  0.00  0.00    +0.000 OA
ENDROOT
BRANCH   1  13
ATOM     11  C   UNL     1       2.992   6.888  19.112  0.00  0.00    +0.000 A 
ATOM     12  C   UNL     1       2.022   7.629  19.750  0.00  0.00    +0.000 A 
ATOM     13  C   UNL     1       1.655   8.672  18.861  0.00  0.00    +0.000 A 
ATOM     14  C   UNL     1       2.527   8.571  17.797  0.00  0.00    +0.000 A 
ATOM     15  O   UNL     1       3.348   7.497  17.944  0.00  0.00    +0.000 OA
BRANCH  11  16
ATOM     16  C   UNL     1       3.633   5.583  19.421  0.00  0.00    +0.000 C 
BRANCH  16  22
ATOM     17  C   UNL     1       4.278   2.512  19.700  0.00  0.00    +0.000 C 
ATOM     18  N   UNL     1       3.264   3.111  18.877  0.00  0.00    +0.000 N 
ATOM     19  C   UNL     1       2.409   2.431  18.065  0.00  0.00    +0.000 A 
ATOM     20  N   UNL     1       1.604   3.279  17.470  0.00  0.00    +0.000 NA
ATOM     21  N   UNL     1       1.945   4.540  17.887  0.00  0.00    +0.000 NA
ATOM     22  C   UNL     1       2.953   4.442  18.734  0.00  0.00    +0.000 A 
ENDBRANCH  16  22
ENDBRANCH  11  16
ENDBRANCH   1  13
BRANCH   8  23
ATOM     23  C   UNL     1      -3.220  10.942  16.964  0.00  0.00    +0.000 C 
ATOM     24  C   UNL     1      -4.578  11.611  16.809  0.00  0.00    +0.000 C 
ATOM     25  F   UNL     1      -2.454  11.303  15.894  0.00  0.00    +0.000 F 
ATOM     26  F   UNL     1      -3.406   9.595  16.836  0.00  0.00    +0.000 F 
ENDBRANCH   8  23
TORSDOF 4
ENDMDL
MODEL 8
REMARK VINA RESULT:      -7.8      5.663      8.404
REMARK  Name = 
REMARK  6 active torsions:
REMARK  status: ('A' for Active; 'I' for Inactive)
REMARK    1  A    between atoms: C_1  and  N_2
REMARK    2  A    between atoms: C_6  and  C_7
REMARK    3  A    between atoms: C_7  and  C_8
REMARK    4  A    between atoms: C_10  and  N_11
REMARK    5  A    between atoms: C_18  and  C_19
REMARK    6  A    between atoms: C_19  and  C_20
REMARK                            x       y       z     vdW  Elec       q    Type
REMARK                         _______ _______ _______ _____ _____    ______ ____
ROOT
ATOM      1  N   UNL     1       0.679   9.485  18.997  0.00  0.00    +0.000 N 
ATOM      2  C   UNL     1      -0.374   9.691  18.010  0.00  0.00    +0.000 C 
ATOM      3  C   UNL     1      -1.281  10.678  18.672  0.00  0.00    +0.000 A 
ATOM      4  C   UNL     1      -0.753  11.030  19.913  0.00  0.00    +0.000 A 
ATOM      5  C   UNL     1      -1.353  11.941  20.761  0.00  0.00    +0.000 A 
ATOM      6  C   UNL     1      -2.539  12.531  20.331  0.00  0.00    +0.000 A 
ATOM      7  C   UNL     1      -3.099  12.179  19.090  0.00  0.00    +0.000 A 
ATOM      8  C   UNL     1      -2.482  11.235  18.241  0.00  0.00    +0.000 A 
ATOM      9  C   UNL     1       0.477  10.267  20.136  0.00  0.00    +0.000 C 
ATOM     10  O   UNL     1       1.125  10.361  21.162  0.00  0.00    +0.000 OA
ENDROOT
BRANCH   1  13
ATOM     11  C   UNL     1       3.026   6.769  19.228  0.00  0.00    +0.000 A 
ATOM     12  C   UNL     1       2.088   7.566  19.846  0.00  0.00    +0.000 A 
ATOM     13  C   UNL     1       1.700   8.551  18.901  0.00  0.00    +0.000 A 
ATOM     14  C   UNL     1       2.533   8.364  17.817  0.00  0.00    +0.000 A 
ATOM     15  O   UNL     1       3.346   7.292  18.009  0.00  0.00    +0.000 OA
BRANCH  11  16
ATOM     16  C   UNL     1       3.663   5.480  19.604  0.00  0.00    +0.000 C 
BRANCH  16  22
ATOM     17  C   UNL     1       2.156   3.527  17.646  0.00  0.00    +0.000 C 
ATOM     18  N   UNL     1       2.013   3.599  19.074  0.00  0.00    +0.000 N 
ATOM     19  C   UNL     1       1.180   2.823  19.820  0.00  0.00    +0.000 A 
ATOM     20  N   UNL     1       1.308   3.138  21.087  0.00  0.00    +0.000 NA
ATOM     21  N   UNL     1       2.231   4.148  21.175  0.00  0.00    +0.000 NA
ATOM     22  C   UNL     1       2.655   4.434  19.958  0.00  0.00    +0.000 A 
ENDBRANCH  16  22
ENDBRANCH  11  16
ENDBRANCH   1  13
BRANCH   8  23
ATOM     23  C   UNL     1      -3.138  10.841  16.938  0.00  0.00    +0.000 C 
ATOM     24  C   UNL     1      -4.503  11.494  16.783  0.00  0.00    +0.000 C 
ATOM     25  F   UNL     1      -2.385  11.190  15.855  0.00  0.00    +0.000 F 
ATOM     26  F   UNL     1      -3.312   9.491  16.836  0.00  0.00    +0.000 F 
ENDBRANCH   8  23
TORSDOF 4
ENDMDL
MODEL 9
REMARK VINA RESULT:      -7.7      4.860      9.052
REMARK  Name = 
REMARK  6 active torsions:
REMARK  status: ('A' for Active; 'I' for Inactive)
REMARK    1  A    between atoms: C_1  and  N_2
REMARK    2  A    between atoms: C_6  and  C_7
REMARK    3  A    between atoms: C_7  and  C_8
REMARK    4  A    between atoms: C_10  and  N_11
REMARK    5  A    between atoms: C_18  and  C_19
REMARK    6  A    between atoms: C_19  and  C_20
REMARK                            x       y       z     vdW  Elec       q    Type
REMARK                         _______ _______ _______ _____ _____    ______ ____
ROOT
ATOM      1  N   UNL     1       2.176   7.125  19.585  0.00  0.00    +0.000 N 
ATOM      2  C   UNL     1       1.808   5.796  20.058  0.00  0.00    +0.000 C 
ATOM      3  C   UNL     1       2.500   4.882  19.098  0.00  0.00    +0.000 A 
ATOM      4  C   UNL     1       3.233   5.640  18.187  0.00  0.00    +0.000 A 
ATOM      5  C   UNL     1       4.000   5.084  17.180  0.00  0.00    +0.000 A 
ATOM      6  C   UNL     1       4.034   3.694  17.097  0.00  0.00    +0.000 A 
ATOM      7  C   UNL     1       3.289   2.909  17.996  0.00  0.00    +0.000 A 
ATOM      8  C   UNL     1       2.498   3.493  19.008  0.00  0.00    +0.000 A 
ATOM      9  C   UNL     1       3.021   7.061  18.475  0.00  0.00    +0.000 C 
ATOM     10  O   UNL     1       3.523   7.944  17.805  0.00  0.00    +0.000 OA
ENDROOT
BRANCH   1  13
ATOM     11  C   UNL     1       0.675  10.323  20.260  0.00  0.00    +0.000 A 
ATOM     12  C   UNL     1       1.259   9.469  19.351  0.00  0.00    +0.000 A 
ATOM     13  C   UNL     1       1.674   8.322  20.076  0.00  0.00    +0.000 A 
ATOM     14  C   UNL     1       1.433   8.620  21.401  0.00  0.00    +0.000 A 
ATOM     15  O   UNL     1       0.835   9.835  21.524  0.00  0.00    +0.000 OA
BRANCH  11  16
ATOM     16  C   UNL     1      -0.112  11.575  20.109  0.00  0.00    +0.000 C 
BRANCH  16  22
ATOM     17  C   UNL     1       2.216  13.328  18.912  0.00  0.00    +0.000 C 
ATOM     18  N   UNL     1       1.582  13.489  20.192  0.00  0.00    +0.000 N 
ATOM     19  C   UNL     1       1.901  14.441  21.112  0.00  0.00    +0.000 A 
ATOM     20  N   UNL     1       1.121  14.316  22.159  0.00  0.00    +0.000 NA
ATOM     21  N   UNL     1       0.284  13.253  21.930  0.00  0.00    +0.000 NA
ATOM     22  C   UNL     1       0.565  12.748  20.743  0.00  0.00    +0.000 A 
ENDBRANCH  16  22
ENDBRANCH  11  16
ENDBRANCH   1  13
BRANCH   8  23
ATOM     23  C   UNL     1       1.669   2.623  19.923  0.00  0.00    +0.000 C 
ATOM     24  C   UNL     1       2.201   2.650  21.349  0.00  0.00    +0.000 C 
ATOM     25  F   UNL     1       0.362   3.012  19.960  0.00  0.00    +0.000 F 
ATOM     26  F   UNL     1       1.646   1.320  19.516  0.00  0.00    +0.000 F 
ENDBRANCH   8  23
TORSDOF 4
ENDMDL
