MODEL 1
REMARK VINA RESULT:      -8.6      0.000      0.000
REMARK  Name = 
REMARK  6 active torsions:
REMARK  status: ('A' for Active; 'I' for Inactive)
REMARK    1  A    between atoms: C_1  and  N_2
REMARK    2  A    between atoms: C_6  and  C_7
REMARK    3  A    between atoms: C_7  and  C_8
REMARK    4  A    between atoms: C_8  and  C_9
REMARK    5  A    between atoms: C_13  and  N_14
REMARK    6  A    between atoms: C_17  and  C_18
REMARK                            x       y       z     vdW  Elec       q    Type
REMARK                         _______ _______ _______ _____ _____    ______ ____
ROOT
ATOM      1  C   UNL     1       5.413   6.131  18.234  0.00  0.00    +0.000 A 
ATOM      2  C   UNL     1       4.611   7.031  17.518  0.00  0.00    +0.000 A 
ATOM      3  C   UNL     1       3.231   7.061  17.685  0.00  0.00    +0.000 A 
ATOM      4  C   UNL     1       2.610   6.162  18.554  0.00  0.00    +0.000 A 
ATOM      5  C   UNL     1       3.351   5.205  19.260  0.00  0.00    +0.000 A 
ATOM      6  C   UNL     1       4.743   5.247  19.118  0.00  0.00    +0.000 A 
ENDROOT
BRANCH   1   7
ATOM      7  C   UNL     1       7.008   6.069  18.041  0.00  0.00    +0.000 C 
ATOM      8  C   UNL     1       7.745   7.364  17.599  0.00  0.00    +0.000 C 
ATOM      9  O   UNL     1       8.544   7.395  18.800  0.00  0.00    +0.000 OA
ATOM     10  C   UNL     1       7.859   6.248  19.332  0.00  0.00    +0.000 C 
BRANCH   7  11
ATOM     11  C   UNL     1       7.407   4.791  17.276  0.00  0.00    +0.000 C 
BRANCH  11  17
ATOM     12  C   UNL     1       4.832   3.428  15.972  0.00  0.00    +0.000 C 
ATOM     13  N   UNL     1       5.898   4.126  15.305  0.00  0.00    +0.000 N 
ATOM     14  C   UNL     1       6.006   4.262  13.953  0.00  0.00    +0.000 A 
ATOM     15  N   UNL     1       7.074   4.966  13.665  0.00  0.00    +0.000 NA
ATOM     16  N   UNL     1       7.690   5.286  14.849  0.00  0.00    +0.000 NA
ATOM     17  C   UNL     1       6.994   4.761  15.840  0.00  0.00    +0.000 A 
ENDBRANCH  11  17
ENDBRANCH   7  11
ENDBRANCH   1   7
BRANCH   5  18
ATOM     18  N   UNL     1       2.697   4.251  20.063  0.00  0.00    +0.000 N 
ATOM     19  C   UNL     1       2.175   4.416  21.388  0.00  0.00    +0.000 C 
ATOM     20  C   UNL     1       1.428   3.158  21.074  0.00  0.00    +0.000 C 
ATOM     21  C   UNL     1       1.965   3.174  19.821  0.00  0.00    +0.000 C 
BRANCH  21  22
ATOM     22  C   UNL     1       1.651   2.236  18.631  0.00  0.00    +0.000 C 
ATOM     23  F   UNL     1       0.399   1.730  18.598  0.00  0.00    +0.000 F 
ATOM     24  F   UNL     1       1.885   2.853  17.443  0.00  0.00    +0.000 F 
ATOM     25  F   UNL     1       2.502   1.172  18.646  0.00  0.00    +0.000 F 
ENDBRANCH  21  22
ENDBRANCH   5  18
TORSDOF 5
ENDMDL
MODEL 2
REMARK VINA RESULT:      -8.5      1.431      1.884
REMARK  Name = 
REMARK  6 active torsions:
REMARK  status: ('A' for Active; 'I' for Inactive)
REMARK    1  A    between atoms: C_1  and  N_2
REMARK    2  A    between atoms: C_6  and  C_7
REMARK    3  A    between atoms: C_7  and  C_8
REMARK    4  A    between atoms: C_8  and  C_9
REMARK    5  A    between atoms: C_13  and  N_14
REMARK    6  A    between atoms: C_17  and  C_18
REMARK                            x       y       z     vdW  Elec       q    Type
REMARK                         _______ _______ _______ _____ _____    ______ ____
ROOT
ATOM      1  C   UNL     1       5.365   5.956  17.903  0.00  0.00    +0.000 A 
ATOM      2  C   UNL     1       4.605   7.088  17.573  0.00  0.00    +0.000 A 
ATOM      3  C   UNL     1       3.216   7.067  17.632  0.00  0.00    +0.000 A 
ATOM      4  C   UNL     1       2.545   5.897  17.991  0.00  0.00    +0.000 A 
ATOM      5  C   UNL     1       3.246   4.719  18.282  0.00  0.00    +0.000 A 
ATOM      6  C   UNL     1       4.644   4.794  18.278  0.00  0.00    +0.000 A 
ENDROOT
BRANCH   1   7
ATOM      7  C   UNL     1       6.971   5.955  17.824  0.00  0.00    +0.000 C 
ATOM      8  C   UNL     1       7.692   7.295  17.506  0.00  0.00    +0.000 C 
ATOM      9  O   UNL     1       8.401   7.284  18.763  0.00  0.00    +0.000 OA
ATOM     10  C   UNL     1       7.720   6.088  19.182  0.00  0.00    +0.000 C 
BRANCH   7  11
ATOM     11  C   UNL     1       7.468   4.734  17.024  0.00  0.00    +0.000 C 
BRANCH  11  17
ATOM     12  C   UNL     1       5.287   3.035  15.428  0.00  0.00    +0.000 C 
ATOM     13  N   UNL     1       6.230   3.985  14.901  0.00  0.00    +0.000 N 
ATOM     14  C   UNL     1       6.383   4.268  13.576  0.00  0.00    +0.000 A 
ATOM     15  N   UNL     1       7.306   5.187  13.426  0.00  0.00    +0.000 NA
ATOM     16  N   UNL     1       7.781   5.504  14.674  0.00  0.00    +0.000 NA
ATOM     17  C   UNL     1       7.149   4.763  15.565  0.00  0.00    +0.000 A 
ENDBRANCH  11  17
ENDBRANCH   7  11
ENDBRANCH   1   7
BRANCH   5  18
ATOM     18  N   UNL     1       2.549   3.527  18.556  0.00  0.00    +0.000 N 
ATOM     19  C   UNL     1       2.702   2.246  17.929  0.00  0.00    +0.000 C 
ATOM     20  C   UNL     1       1.960   1.752  19.130  0.00  0.00    +0.000 C 
ATOM     21  C   UNL     1       1.949   3.023  19.623  0.00  0.00    +0.000 C 
BRANCH  21  22
ATOM     22  C   UNL     1       1.448   3.513  21.004  0.00  0.00    +0.000 C 
ATOM     23  F   UNL     1       0.756   2.609  21.730  0.00  0.00    +0.000 F 
ATOM     24  F   UNL     1       2.476   3.966  21.768  0.00  0.00    +0.000 F 
ATOM     25  F   UNL     1       0.631   4.592  20.841  0.00  0.00    +0.000 F 
ENDBRANCH  21  22
ENDBRANCH   5  18
TORSDOF 5
ENDMDL
MODEL 3
REMARK VINA RESULT:      -8.0      2.099      3.277
REMARK  Name = 
REMARK  6 active torsions:
REMARK  status: ('A' for Active; 'I' for Inactive)
REMARK    1  A    between atoms: C_1  and  N_2
REMARK    2  A    between atoms: C_6  and  C_7
REMARK    3  A    between atoms: C_7  and  C_8
REMARK    4  A    between atoms: C_8  and  C_9
REMARK    5  A    between atoms: C_13  and  N_14
REMARK    6  A    between atoms: C_17  and  C_18
REMARK                            x       y       z     vdW  Elec       q    Type
REMARK                         _______ _______ _______ _____ _____    ______ ____
ROOT
ATOM      1  C   UNL     1       4.784   5.666  16.753  0.00  0.00    +0.000 A 
ATOM      2  C   UNL     1       4.406   7.010  16.615  0.00  0.00    +0.000 A 
ATOM      3  C   UNL     1       3.474   7.590  17.467  0.00  0.00    +0.000 A 
ATOM      4  C   UNL     1       2.865   6.827  18.465  0.00  0.00    +0.000 A 
ATOM      5  C   UNL     1       3.162   5.466  18.621  0.00  0.00    +0.000 A 
ATOM      6  C   UNL     1       4.153   4.933  17.789  0.00  0.00    +0.000 A 
ENDROOT
BRANCH   1   7
ATOM      7  C   UNL     1       5.847   4.974  15.765  0.00  0.00    +0.000 C 
ATOM      8  C   UNL     1       5.709   3.451  15.486  0.00  0.00    +0.000 C 
ATOM      9  O   UNL     1       5.511   3.664  14.072  0.00  0.00    +0.000 OA
ATOM     10  C   UNL     1       5.541   5.092  14.243  0.00  0.00    +0.000 C 
BRANCH   7  11
ATOM     11  C   UNL     1       7.275   5.457  16.091  0.00  0.00    +0.000 C 
BRANCH  11  17
ATOM     12  C   UNL     1       7.792   8.151  17.722  0.00  0.00    +0.000 C 
ATOM     13  N   UNL     1       7.828   6.798  18.211  0.00  0.00    +0.000 N 
ATOM     14  C   UNL     1       8.164   6.445  19.484  0.00  0.00    +0.000 A 
ATOM     15  N   UNL     1       8.082   5.144  19.617  0.00  0.00    +0.000 NA
ATOM     16  N   UNL     1       7.699   4.628  18.404  0.00  0.00    +0.000 NA
ATOM     17  C   UNL     1       7.568   5.623  17.547  0.00  0.00    +0.000 A 
ENDBRANCH  11  17
ENDBRANCH   7  11
ENDBRANCH   1   7
BRANCH   5  18
ATOM     18  N   UNL     1       2.473   4.693  19.575  0.00  0.00    +0.000 N 
ATOM     19  C   UNL     1       1.844   5.134  20.786  0.00  0.00    +0.000 C 
ATOM     20  C   UNL     1       1.159   3.805  20.720  0.00  0.00    +0.000 C 
ATOM     21  C   UNL     1       1.793   3.558  19.539  0.00  0.00    +0.000 C 
BRANCH  21  22
ATOM     22  C   UNL     1       1.599   2.359  18.579  0.00  0.00    +0.000 C 
ATOM     23  F   UNL     1       0.343   1.868  18.500  0.00  0.00    +0.000 F 
ATOM     24  F   UNL     1       2.009   2.665  17.320  0.00  0.00    +0.000 F 
ATOM     25  F   UNL     1       2.399   1.325  18.967  0.00  0.00    +0.000 F 
ENDBRANCH  21  22
ENDBRANCH   5  18
TORSDOF 5
ENDMDL
MODEL 4
REMARK VINA RESULT:      -7.7      2.544      3.767
REMARK  Name = 
REMARK  6 active torsions:
REMARK  status: ('A' for Active; 'I' for Inactive)
REMARK    1  A    between atoms: C_1  and  N_2
REMARK    2  A    between atoms: C_6  and  C_7
REMARK    3  A    between atoms: C_7  and  C_8
REMARK    4  A    between atoms: C_8  and  C_9
REMARK    5  A    between atoms: C_13  and  N_14
REMARK    6  A    between atoms: C_17  and  C_18
REMARK                            x       y       z     vdW  Elec       q    Type
REMARK                         _______ _______ _______ _____ _____    ______ ____
ROOT
ATOM      1  C   UNL     1       4.641   5.391  16.740  0.00  0.00    +0.000 A 
ATOM      2  C   UNL     1       4.401   6.737  17.051  0.00  0.00    +0.000 A 
ATOM      3  C   UNL     1       3.386   7.107  17.925  0.00  0.00    +0.000 A 
ATOM      4  C   UNL     1       2.556   6.136  18.488  0.00  0.00    +0.000 A 
ATOM      5  C   UNL     1       2.712   4.778  18.177  0.00  0.00    +0.000 A 
ATOM      6  C   UNL     1       3.786   4.437  17.346  0.00  0.00    +0.000 A 
ENDROOT
BRANCH   1   7
ATOM      7  C   UNL     1       5.800   4.946  15.717  0.00  0.00    +0.000 C 
ATOM      8  C   UNL     1       5.961   3.432  15.402  0.00  0.00    +0.000 C 
ATOM      9  O   UNL     1       5.695   3.632  13.998  0.00  0.00    +0.000 OA
ATOM     10  C   UNL     1       5.444   5.034  14.204  0.00  0.00    +0.000 C 
BRANCH   7  11
ATOM     11  C   UNL     1       7.110   5.696  16.032  0.00  0.00    +0.000 C 
BRANCH  11  17
ATOM     12  C   UNL     1       7.828   8.257  17.796  0.00  0.00    +0.000 C 
ATOM     13  N   UNL     1       7.815   6.877  18.202  0.00  0.00    +0.000 N 
ATOM     14  C   UNL     1       8.183   6.431  19.437  0.00  0.00    +0.000 A 
ATOM     15  N   UNL     1       8.040   5.129  19.495  0.00  0.00    +0.000 NA
ATOM     16  N   UNL     1       7.584   4.708  18.271  0.00  0.00    +0.000 NA
ATOM     17  C   UNL     1       7.469   5.759  17.481  0.00  0.00    +0.000 A 
ENDBRANCH  11  17
ENDBRANCH   7  11
ENDBRANCH   1   7
BRANCH   5  18
ATOM     18  N   UNL     1       1.811   3.824  18.686  0.00  0.00    +0.000 N 
ATOM     19  C   UNL     1       1.059   2.841  17.963  0.00  0.00    +0.000 C 
ATOM     20  C   UNL     1       0.888   2.217  19.312  0.00  0.00    +0.000 C 
ATOM     21  C   UNL     1       1.676   3.195  19.843  0.00  0.00    +0.000 C 
BRANCH  21  22
ATOM     22  C   UNL     1       2.201   3.322  21.294  0.00  0.00    +0.000 C 
ATOM     23  F   UNL     1       1.365   2.885  22.260  0.00  0.00    +0.000 F 
ATOM     24  F   UNL     1       3.389   2.680  21.445  0.00  0.00    +0.000 F 
ATOM     25  F   UNL     1       2.471   4.629  21.573  0.00  0.00    +0.000 F 
ENDBRANCH  21  22
ENDBRANCH   5  18
TORSDOF 5
ENDMDL
MODEL 5
REMARK VINA RESULT:      -7.6      2.917      3.901
REMARK  Name = 
REMARK  6 active torsions:
REMARK  status: ('A' for Active; 'I' for Inactive)
REMARK    1  A    between atoms: C_1  and  N_2
REMARK    2  A    between atoms: C_6  and  C_7
REMARK    3  A    between atoms: C_7  and  C_8
REMARK    4  A    between atoms: C_8  and  C_9
REMARK    5  A    between atoms: C_13  and  N_14
REMARK    6  A    between atoms: C_17  and  C_18
REMARK                            x       y       z     vdW  Elec       q    Type
REMARK                         _______ _______ _______ _____ _____    ______ ____
ROOT
ATOM      1  C   UNL     1       4.555   5.220  17.313  0.00  0.00    +0.000 A 
ATOM      2  C   UNL     1       3.662   4.142  17.405  0.00  0.00    +0.000 A 
ATOM      3  C   UNL     1       2.339   4.332  17.785  0.00  0.00    +0.000 A 
ATOM      4  C   UNL     1       1.879   5.607  18.118  0.00  0.00    +0.000 A 
ATOM      5  C   UNL     1       2.735   6.716  18.095  0.00  0.00    +0.000 A 
ATOM      6  C   UNL     1       4.043   6.500  17.644  0.00  0.00    +0.000 A 
ENDROOT
BRANCH   1   7
ATOM      7  C   UNL     1       6.094   5.018  16.893  0.00  0.00    +0.000 C 
ATOM      8  C   UNL     1       7.010   6.272  16.829  0.00  0.00    +0.000 C 
ATOM      9  O   UNL     1       7.895   5.756  17.846  0.00  0.00    +0.000 OA
ATOM     10  C   UNL     1       7.063   4.597  18.037  0.00  0.00    +0.000 C 
BRANCH   7  11
ATOM     11  C   UNL     1       6.200   4.064  15.686  0.00  0.00    +0.000 C 
BRANCH  11  17
ATOM     12  C   UNL     1       5.708   3.376  12.608  0.00  0.00    +0.000 C 
ATOM     13  N   UNL     1       6.667   4.290  13.170  0.00  0.00    +0.000 N 
ATOM     14  C   UNL     1       7.591   4.982  12.445  0.00  0.00    +0.000 A 
ATOM     15  N   UNL     1       8.300   5.741  13.245  0.00  0.00    +0.000 NA
ATOM     16  N   UNL     1       7.844   5.533  14.523  0.00  0.00    +0.000 NA
ATOM     17  C   UNL     1       6.873   4.640  14.483  0.00  0.00    +0.000 A 
ENDBRANCH  11  17
ENDBRANCH   7  11
ENDBRANCH   1   7
BRANCH   5  18
ATOM     18  N   UNL     1       2.275   7.978  18.518  0.00  0.00    +0.000 N 
ATOM     19  C   UNL     1       1.895   9.099  17.710  0.00  0.00    +0.000 C 
ATOM     20  C   UNL     1       1.245   9.578  18.970  0.00  0.00    +0.000 C 
ATOM     21  C   UNL     1       1.631   8.424  19.585  0.00  0.00    +0.000 C 
BRANCH  21  22
ATOM     22  C   UNL     1       1.277   7.931  21.009  0.00  0.00    +0.000 C 
ATOM     23  F   UNL     1       1.790   8.658  22.025  0.00  0.00    +0.000 F 
ATOM     24  F   UNL     1      -0.069   7.857  21.184  0.00  0.00    +0.000 F 
ATOM     25  F   UNL     1       1.722   6.654  21.178  0.00  0.00    +0.000 F 
ENDBRANCH  21  22
ENDBRANCH   5  18
TORSDOF 5
ENDMDL
MODEL 6
REMARK VINA RESULT:      -7.5      1.973      3.157
REMARK  Name = 
REMARK  6 active torsions:
REMARK  status: ('A' for Active; 'I' for Inactive)
REMARK    1  A    between atoms: C_1  and  N_2
REMARK    2  A    between atoms: C_6  and  C_7
REMARK    3  A    between atoms: C_7  and  C_8
REMARK    4  A    between atoms: C_8  and  C_9
REMARK    5  A    between atoms: C_13  and  N_14
REMARK    6  A    between atoms: C_17  and  C_18
REMARK                            x       y       z     vdW  Elec       q    Type
REMARK                         _______ _______ _______ _____ _____    ______ ____
ROOT
ATOM      1  C   UNL     1       4.826   5.492  16.898  0.00  0.00    +0.000 A 
ATOM      2  C   UNL     1       4.463   6.823  16.643  0.00  0.00    +0.000 A 
ATOM      3  C   UNL     1       3.481   7.460  17.394  0.00  0.00    +0.000 A 
ATOM      4  C   UNL     1       2.808   6.767  18.402  0.00  0.00    +0.000 A 
ATOM      5  C   UNL     1       3.090   5.421  18.670  0.00  0.00    +0.000 A 
ATOM      6  C   UNL     1       4.130   4.832  17.941  0.00  0.00    +0.000 A 
ENDROOT
BRANCH   1   7
ATOM      7  C   UNL     1       5.947   4.734  16.029  0.00  0.00    +0.000 C 
ATOM      8  C   UNL     1       5.579   3.368  15.385  0.00  0.00    +0.000 C 
ATOM      9  O   UNL     1       5.806   3.864  14.049  0.00  0.00    +0.000 OA
ATOM     10  C   UNL     1       6.081   5.187  14.545  0.00  0.00    +0.000 C 
BRANCH   7  11
ATOM     11  C   UNL     1       7.307   4.775  16.755  0.00  0.00    +0.000 C 
BRANCH  11  17
ATOM     12  C   UNL     1       7.892   5.592  19.784  0.00  0.00    +0.000 C 
ATOM     13  N   UNL     1       7.892   6.440  18.622  0.00  0.00    +0.000 N 
ATOM     14  C   UNL     1       8.090   7.789  18.649  0.00  0.00    +0.000 A 
ATOM     15  N   UNL     1       8.051   8.264  17.428  0.00  0.00    +0.000 NA
ATOM     16  N   UNL     1       7.808   7.211  16.582  0.00  0.00    +0.000 NA
ATOM     17  C   UNL     1       7.689   6.112  17.302  0.00  0.00    +0.000 A 
ENDBRANCH  11  17
ENDBRANCH   7  11
ENDBRANCH   1   7
BRANCH   5  18
ATOM     18  N   UNL     1       2.340   4.716  19.631  0.00  0.00    +0.000 N 
ATOM     19  C   UNL     1       1.654   5.237  20.777  0.00  0.00    +0.000 C 
ATOM     20  C   UNL     1       0.954   3.915  20.755  0.00  0.00    +0.000 C 
ATOM     21  C   UNL     1       1.646   3.588  19.626  0.00  0.00    +0.000 C 
BRANCH  21  22
ATOM     22  C   UNL     1       1.486   2.335  18.732  0.00  0.00    +0.000 C 
ATOM     23  F   UNL     1       2.126   1.225  19.159  0.00  0.00    +0.000 F 
ATOM     24  F   UNL     1       0.176   2.022  18.553  0.00  0.00    +0.000 F 
ATOM     25  F   UNL     1       1.957   2.600  17.480  0.00  0.00    +0.000 F 
ENDBRANCH  21  22
ENDBRANCH   5  18
TORSDOF 5
ENDMDL
MODEL 7
REMARK VINA RESULT:      -7.5      2.433      3.581
REMARK  Name = 
REMARK  6 active torsions:
REMARK  status: ('A' for Active; 'I' for Inactive)
REMARK    1  A    between atoms: C_1  and  N_2
REMARK    2  A    between atoms: C_6  and  C_7
REMARK    3  A    between atoms: C_7  and  C_8
REMARK    4  A    between atoms: C_8  and  C_9
REMARK    5  A    between atoms: C_13  and  N_14
REMARK    6  A    between atoms: C_17  and  C_18
REMARK                            x       y       z     vdW  Elec       q    Type
REMARK                         _______ _______ _______ _____ _____    ______ ____
ROOT
ATOM      1  C   UNL     1       4.623   5.131  17.007  0.00  0.00    +0.000 A 
ATOM      2  C   UNL     1       4.382   6.501  17.188  0.00  0.00    +0.000 A 
ATOM      3  C   UNL     1       3.320   6.952  17.963  0.00  0.00    +0.000 A 
ATOM      4  C   UNL     1       2.444   6.039  18.554  0.00  0.00    +0.000 A 
ATOM      5  C   UNL     1       2.601   4.659  18.369  0.00  0.00    +0.000 A 
ATOM      6  C   UNL     1       3.719   4.239  17.638  0.00  0.00    +0.000 A 
ENDROOT
BRANCH   1   7
ATOM      7  C   UNL     1       5.836   4.592  16.100  0.00  0.00    +0.000 C 
ATOM      8  C   UNL     1       5.605   3.311  15.250  0.00  0.00    +0.000 C 
ATOM      9  O   UNL     1       5.848   4.012  14.013  0.00  0.00    +0.000 OA
ATOM     10  C   UNL     1       5.995   5.264  14.705  0.00  0.00    +0.000 C 
BRANCH   7  11
ATOM     11  C   UNL     1       7.156   4.626  16.896  0.00  0.00    +0.000 C 
BRANCH  11  17
ATOM     12  C   UNL     1       7.886   5.597  19.847  0.00  0.00    +0.000 C 
ATOM     13  N   UNL     1       7.849   6.380  18.640  0.00  0.00    +0.000 N 
ATOM     14  C   UNL     1       8.070   7.724  18.584  0.00  0.00    +0.000 A 
ATOM     15  N   UNL     1       7.985   8.132  17.340  0.00  0.00    +0.000 NA
ATOM     16  N   UNL     1       7.689   7.039  16.566  0.00  0.00    +0.000 NA
ATOM     17  C   UNL     1       7.584   5.983  17.351  0.00  0.00    +0.000 A 
ENDBRANCH  11  17
ENDBRANCH   7  11
ENDBRANCH   1   7
BRANCH   5  18
ATOM     18  N   UNL     1       1.658   3.759  18.899  0.00  0.00    +0.000 N 
ATOM     19  C   UNL     1       0.788   2.866  18.191  0.00  0.00    +0.000 C 
ATOM     20  C   UNL     1       0.648   2.205  19.526  0.00  0.00    +0.000 C 
ATOM     21  C   UNL     1       1.542   3.097  20.040  0.00  0.00    +0.000 C 
BRANCH  21  22
ATOM     22  C   UNL     1       2.161   3.125  21.459  0.00  0.00    +0.000 C 
ATOM     23  F   UNL     1       3.295   2.409  21.618  0.00  0.00    +0.000 F 
ATOM     24  F   UNL     1       2.408   4.398  21.863  0.00  0.00    +0.000 F 
ATOM     25  F   UNL     1       1.263   2.639  22.362  0.00  0.00    +0.000 F 
ENDBRANCH  21  22
ENDBRANCH   5  18
TORSDOF 5
ENDMDL
MODEL 8
REMARK VINA RESULT:      -7.4      1.446      1.698
REMARK  Name = 
REMARK  6 active torsions:
REMARK  status: ('A' for Active; 'I' for Inactive)
REMARK    1  A    between atoms: C_1  and  N_2
REMARK    2  A    between atoms: C_6  and  C_7
REMARK    3  A    between atoms: C_7  and  C_8
REMARK    4  A    between atoms: C_8  and  C_9
REMARK    5  A    between atoms: C_13  and  N_14
REMARK    6  A    between atoms: C_17  and  C_18
REMARK                            x       y       z     vdW  Elec       q    Type
REMARK                         _______ _______ _______ _____ _____    ______ ____
ROOT
ATOM      1  C   UNL     1       5.581   5.883  18.018  0.00  0.00    +0.000 A 
ATOM      2  C   UNL     1       4.516   6.644  17.514  0.00  0.00    +0.000 A 
ATOM      3  C   UNL     1       3.196   6.329  17.819  0.00  0.00    +0.000 A 
ATOM      4  C   UNL     1       2.904   5.218  18.612  0.00  0.00    +0.000 A 
ATOM      5  C   UNL     1       3.922   4.389  19.103  0.00  0.00    +0.000 A 
ATOM      6  C   UNL     1       5.240   4.774  18.832  0.00  0.00    +0.000 A 
ENDROOT
BRANCH   1   7
ATOM      7  C   UNL     1       7.113   6.221  17.662  0.00  0.00    +0.000 C 
ATOM      8  C   UNL     1       7.446   7.639  17.122  0.00  0.00    +0.000 C 
ATOM      9  O   UNL     1       8.320   7.926  18.234  0.00  0.00    +0.000 OA
ATOM     10  C   UNL     1       8.007   6.667  18.856  0.00  0.00    +0.000 C 
BRANCH   7  11
ATOM     11  C   UNL     1       7.753   5.052  16.885  0.00  0.00    +0.000 C 
BRANCH  11  17
ATOM     12  C   UNL     1       5.395   3.259  15.696  0.00  0.00    +0.000 C 
ATOM     13  N   UNL     1       6.313   4.104  14.980  0.00  0.00    +0.000 N 
ATOM     14  C   UNL     1       6.356   4.223  13.622  0.00  0.00    +0.000 A 
ATOM     15  N   UNL     1       7.286   5.083  13.285  0.00  0.00    +0.000 NA
ATOM     16  N   UNL     1       7.877   5.527  14.440  0.00  0.00    +0.000 NA
ATOM     17  C   UNL     1       7.307   4.921  15.465  0.00  0.00    +0.000 A 
ENDBRANCH  11  17
ENDBRANCH   7  11
ENDBRANCH   1   7
BRANCH   5  18
ATOM     18  N   UNL     1       3.602   3.225  19.827  0.00  0.00    +0.000 N 
ATOM     19  C   UNL     1       4.499   2.276  20.421  0.00  0.00    +0.000 C 
ATOM     20  C   UNL     1       3.282   1.849  21.181  0.00  0.00    +0.000 C 
ATOM     21  C   UNL     1       2.576   2.844  20.571  0.00  0.00    +0.000 C 
BRANCH  21  22
ATOM     22  C   UNL     1       1.118   3.287  20.840  0.00  0.00    +0.000 C 
ATOM     23  F   UNL     1       0.920   4.619  20.945  0.00  0.00    +0.000 F 
ATOM     24  F   UNL     1       0.275   2.812  19.886  0.00  0.00    +0.000 F 
ATOM     25  F   UNL     1       0.675   2.734  22.005  0.00  0.00    +0.000 F 
ENDBRANCH  21  22
ENDBRANCH   5  18
TORSDOF 5
ENDMDL
MODEL 9
REMARK VINA RESULT:      -7.4      4.761      6.657
REMARK  Name = 
REMARK  6 active torsions:
REMARK  status: ('A' for Active; 'I' for Inactive)
REMARK    1  A    between atoms: C_1  and  N_2
REMARK    2  A    between atoms: C_6  and  C_7
REMARK    3  A    between atoms: C_7  and  C_8
REMARK    4  A    between atoms: C_8  and  C_9
REMARK    5  A    between atoms: C_13  and  N_14
REMARK    6  A    between atoms: C_17  and  C_18
REMARK                            x       y       z     vdW  Elec       q    Type
REMARK                         _______ _______ _______ _____ _____    ______ ____
ROOT
ATOM      1  C   UNL     1       2.500   7.381  18.681  0.00  0.00    +0.000 A 
ATOM      2  C   UNL     1       2.540   8.306  17.628  0.00  0.00    +0.000 A 
ATOM      3  C   UNL     1       1.972   9.568  17.754  0.00  0.00    +0.000 A 
ATOM      4  C   UNL     1       1.315   9.929  18.931  0.00  0.00    +0.000 A 
ATOM      5  C   UNL     1       1.197   9.031  20.000  0.00  0.00    +0.000 A 
ATOM      6  C   UNL     1       1.838   7.793  19.865  0.00  0.00    +0.000 A 
ENDROOT
BRANCH   1   7
ATOM      7  C   UNL     1       3.136   5.909  18.548  0.00  0.00    +0.000 C 
ATOM      8  C   UNL     1       4.081   5.623  17.348  0.00  0.00    +0.000 C 
ATOM      9  O   UNL     1       5.194   5.319  18.216  0.00  0.00    +0.000 OA
ATOM     10  C   UNL     1       4.422   5.645  19.385  0.00  0.00    +0.000 C 
BRANCH   7  11
ATOM     11  C   UNL     1       2.062   4.835  18.812  0.00  0.00    +0.000 C 
BRANCH  11  17
ATOM     12  C   UNL     1       3.550   2.021  19.044  0.00  0.00    +0.000 C 
ATOM     13  N   UNL     1       2.900   2.768  20.088  0.00  0.00    +0.000 N 
ATOM     14  C   UNL     1       2.762   2.339  21.374  0.00  0.00    +0.000 A 
ATOM     15  N   UNL     1       2.144   3.256  22.080  0.00  0.00    +0.000 NA
ATOM     16  N   UNL     1       1.856   4.301  21.239  0.00  0.00    +0.000 NA
ATOM     17  C   UNL     1       2.291   4.000  20.030  0.00  0.00    +0.000 A 
ENDBRANCH  11  17
ENDBRANCH   7  11
ENDBRANCH   1   7
BRANCH   5  18
ATOM     18  N   UNL     1       0.455   9.382  21.144  0.00  0.00    +0.000 N 
ATOM     19  C   UNL     1       0.742   9.076  22.515  0.00  0.00    +0.000 C 
ATOM     20  C   UNL     1      -0.250  10.161  22.794  0.00  0.00    +0.000 C 
ATOM     21  C   UNL     1      -0.369  10.372  21.453  0.00  0.00    +0.000 C 
BRANCH  21  22
ATOM     22  C   UNL     1      -1.163  11.481  20.723  0.00  0.00    +0.000 C 
ATOM     23  F   UNL     1      -2.183  12.028  21.420  0.00  0.00    +0.000 F 
ATOM     24  F   UNL     1      -0.345  12.488  20.318  0.00  0.00    +0.000 F 
ATOM     25  F   UNL     1      -1.700  10.983  19.573  0.00  0.00    +0.000 F 
ENDBRANCH  21  22
ENDBRANCH   5  18
TORSDOF 5
ENDMDL
