MODEL 1
REMARK VINA RESULT:      -8.3      0.000      0.000
REMARK  Name = 
REMARK  3 active torsions:
REMARK  status: ('A' for Active; 'I' for Inactive)
REMARK    1  A    between atoms: C_2  and  C_17
REMARK    2  A    between atoms: N_3  and  C_4
REMARK    3  A    between atoms: C_4  and  C_5
REMARK                            x       y       z     vdW  Elec       q    Type
REMARK                         _______ _______ _______ _____ _____    ______ ____
ROOT
ATOM      1  O   UNL     1       2.392   9.232  17.462  0.00  0.00    +0.000 OA
ATOM      2  C   UNL     1       2.124   8.383  18.318  0.00  0.00    +0.000 C 
ATOM      3  N   UNL     1       1.416   8.693  19.465  0.00  0.00    +0.000 N 
ATOM      4  H   UNL     1       1.358   7.987  20.190  0.00  0.00    +0.000 HD
ENDROOT
BRANCH   2   5
ATOM      5  C   UNL     1       2.639   6.986  18.154  0.00  0.00    +0.000 A 
ATOM      6  C   UNL     1       3.768   6.841  17.358  0.00  0.00    +0.000 A 
ATOM      7  C   UNL     1       4.336   5.585  17.237  0.00  0.00    +0.000 A 
ATOM      8  C   UNL     1       3.685   4.496  17.803  0.00  0.00    +0.000 A 
ATOM      9  C   UNL     1       4.191   3.210  17.572  0.00  0.00    +0.000 A 
ATOM     10  C   UNL     1       3.356   2.118  17.734  0.00  0.00    +0.000 A 
ATOM     11  C   UNL     1       2.109   2.298  18.320  0.00  0.00    +0.000 A 
ATOM     12  C   UNL     1       1.720   3.566  18.780  0.00  0.00    +0.000 A 
ATOM     13  C   UNL     1       2.464   4.705  18.489  0.00  0.00    +0.000 A 
ATOM     14  N   UNL     1       1.988   5.952  18.753  0.00  0.00    +0.000 NA
ENDBRANCH   2   5
BRANCH   3  15
ATOM     15  C   UNL     1       1.183  10.093  19.777  0.00  0.00    +0.000 C 
BRANCH  15  16
ATOM     16  C   UNL     1       0.390  10.304  21.039  0.00  0.00    +0.000 A 
ATOM     17  C   UNL     1       0.636   9.506  22.159  0.00  0.00    +0.000 A 
ATOM     18  C   UNL     1      -0.146   9.710  23.271  0.00  0.00    +0.000 A 
ATOM     19  N   UNL     1      -1.122  10.641  23.348  0.00  0.00    +0.000 NA
ATOM     20  C   UNL     1      -1.388  11.395  22.262  0.00  0.00    +0.000 A 
ATOM     21  N   UNL     1      -2.409  12.324  22.381  0.00  0.00    +0.000 N 
ATOM     22  C   UNL     1      -2.558  13.003  23.664  0.00  0.00    +0.000 C 
ATOM     23  C   UNL     1      -4.009  12.925  24.123  0.00  0.00    +0.000 C 
ATOM     24  C   UNL     1      -4.948  13.464  23.048  0.00  0.00    +0.000 C 
ATOM     25  C   UNL     1      -4.717  12.752  21.714  0.00  0.00    +0.000 C 
ATOM     26  C   UNL     1      -3.244  12.780  21.283  0.00  0.00    +0.000 C 
ATOM     27  C   UNL     1      -0.658  11.230  21.095  0.00  0.00    +0.000 A 
ENDBRANCH  15  16
ENDBRANCH   3  15
TORSDOF 3
ENDMDL
MODEL 2
REMARK VINA RESULT:      -8.2      1.939      3.214
REMARK  Name = 
REMARK  3 active torsions:
REMARK  status: ('A' for Active; 'I' for Inactive)
REMARK    1  A    between atoms: C_2  and  C_17
REMARK    2  A    between atoms: N_3  and  C_4
REMARK    3  A    between atoms: C_4  and  C_5
REMARK                            x       y       z     vdW  Elec       q    Type
REMARK                         _______ _______ _______ _____ _____    ______ ____
ROOT
ATOM      1  O   UNL     1       1.372   5.200  20.463  0.00  0.00    +0.000 OA
ATOM      2  C   UNL     1       2.179   5.964  19.923  0.00  0.00    +0.000 C 
ATOM      3  N   UNL     1       2.268   7.301  20.266  0.00  0.00    +0.000 N 
ATOM      4  H   UNL     1       2.845   7.899  19.686  0.00  0.00    +0.000 HD
ENDROOT
BRANCH   2   5
ATOM      5  C   UNL     1       3.043   5.453  18.812  0.00  0.00    +0.000 A 
ATOM      6  C   UNL     1       2.785   4.157  18.383  0.00  0.00    +0.000 A 
ATOM      7  C   UNL     1       3.498   3.663  17.305  0.00  0.00    +0.000 A 
ATOM      8  C   UNL     1       4.533   4.424  16.777  0.00  0.00    +0.000 A 
ATOM      9  C   UNL     1       5.336   3.870  15.771  0.00  0.00    +0.000 A 
ATOM     10  C   UNL     1       6.595   4.399  15.546  0.00  0.00    +0.000 A 
ATOM     11  C   UNL     1       6.954   5.588  16.170  0.00  0.00    +0.000 A 
ATOM     12  C   UNL     1       6.032   6.266  16.984  0.00  0.00    +0.000 A 
ATOM     13  C   UNL     1       4.824   5.684  17.355  0.00  0.00    +0.000 A 
ATOM     14  N   UNL     1       4.025   6.246  18.302  0.00  0.00    +0.000 NA
ENDBRANCH   2   5
BRANCH   3  15
ATOM     15  C   UNL     1       1.234   7.868  21.114  0.00  0.00    +0.000 C 
BRANCH  15  16
ATOM     16  C   UNL     1       0.641   9.140  20.571  0.00  0.00    +0.000 A 
ATOM     17  C   UNL     1       0.957   9.559  19.276  0.00  0.00    +0.000 A 
ATOM     18  C   UNL     1       0.424  10.751  18.844  0.00  0.00    +0.000 A 
ATOM     19  N   UNL     1      -0.393  11.527  19.589  0.00  0.00    +0.000 NA
ATOM     20  C   UNL     1      -0.678  11.147  20.851  0.00  0.00    +0.000 A 
ATOM     21  N   UNL     1      -1.505  11.984  21.583  0.00  0.00    +0.000 N 
ATOM     22  C   UNL     1      -2.589  12.653  20.873  0.00  0.00    +0.000 C 
ATOM     23  C   UNL     1      -2.571  14.144  21.191  0.00  0.00    +0.000 C 
ATOM     24  C   UNL     1      -2.609  14.378  22.697  0.00  0.00    +0.000 C 
ATOM     25  C   UNL     1      -1.481  13.617  23.396  0.00  0.00    +0.000 C 
ATOM     26  C   UNL     1      -1.465  12.127  23.029  0.00  0.00    +0.000 C 
ATOM     27  C   UNL     1      -0.158   9.969  21.366  0.00  0.00    +0.000 A 
ENDBRANCH  15  16
ENDBRANCH   3  15
TORSDOF 3
ENDMDL
MODEL 3
REMARK VINA RESULT:      -8.1      2.506      3.683
REMARK  Name = 
REMARK  3 active torsions:
REMARK  status: ('A' for Active; 'I' for Inactive)
REMARK    1  A    between atoms: C_2  and  C_17
REMARK    2  A    between atoms: N_3  and  C_4
REMARK    3  A    between atoms: C_4  and  C_5
REMARK                            x       y       z     vdW  Elec       q    Type
REMARK                         _______ _______ _______ _____ _____    ______ ____
ROOT
ATOM      1  O   UNL     1       1.531   5.259  20.447  0.00  0.00    +0.000 OA
ATOM      2  C   UNL     1       2.127   6.270  20.062  0.00  0.00    +0.000 C 
ATOM      3  N   UNL     1       1.933   7.506  20.649  0.00  0.00    +0.000 N 
ATOM      4  H   UNL     1       2.339   8.315  20.193  0.00  0.00    +0.000 HD
ENDROOT
BRANCH   2   5
ATOM      5  C   UNL     1       3.038   6.178  18.876  0.00  0.00    +0.000 A 
ATOM      6  C   UNL     1       3.141   7.323  18.096  0.00  0.00    +0.000 A 
ATOM      7  C   UNL     1       4.030   7.322  17.036  0.00  0.00    +0.000 A 
ATOM      8  C   UNL     1       4.686   6.143  16.708  0.00  0.00    +0.000 A 
ATOM      9  C   UNL     1       5.486   6.109  15.558  0.00  0.00    +0.000 A 
ATOM     10  C   UNL     1       5.780   4.888  14.977  0.00  0.00    +0.000 A 
ATOM     11  C   UNL     1       5.456   3.718  15.653  0.00  0.00    +0.000 A 
ATOM     12  C   UNL     1       4.877   3.777  16.932  0.00  0.00    +0.000 A 
ATOM     13  C   UNL     1       4.427   4.978  17.471  0.00  0.00    +0.000 A 
ATOM     14  N   UNL     1       3.685   5.011  18.611  0.00  0.00    +0.000 NA
ENDBRANCH   2   5
BRANCH   3  15
ATOM     15  C   UNL     1       0.834   7.662  21.586  0.00  0.00    +0.000 C 
BRANCH  15  16
ATOM     16  C   UNL     1       0.456   9.097  21.837  0.00  0.00    +0.000 A 
ATOM     17  C   UNL     1      -0.476   9.410  22.830  0.00  0.00    +0.000 A 
ATOM     18  C   UNL     1      -0.820  10.732  22.988  0.00  0.00    +0.000 A 
ATOM     19  N   UNL     1      -0.300  11.740  22.253  0.00  0.00    +0.000 NA
ATOM     20  C   UNL     1       0.576  11.445  21.272  0.00  0.00    +0.000 A 
ATOM     21  N   UNL     1       1.068  12.510  20.533  0.00  0.00    +0.000 N 
ATOM     22  C   UNL     1       1.317  13.762  21.237  0.00  0.00    +0.000 C 
ATOM     23  C   UNL     1       0.667  14.916  20.483  0.00  0.00    +0.000 C 
ATOM     24  C   UNL     1       1.129  14.944  19.030  0.00  0.00    +0.000 C 
ATOM     25  C   UNL     1       0.887  13.594  18.354  0.00  0.00    +0.000 C 
ATOM     26  C   UNL     1       1.493  12.427  19.146  0.00  0.00    +0.000 C 
ATOM     27  C   UNL     1       0.952  10.132  21.036  0.00  0.00    +0.000 A 
ENDBRANCH  15  16
ENDBRANCH   3  15
TORSDOF 3
ENDMDL
MODEL 4
REMARK VINA RESULT:      -8.1      1.962     10.052
REMARK  Name = 
REMARK  3 active torsions:
REMARK  status: ('A' for Active; 'I' for Inactive)
REMARK    1  A    between atoms: C_2  and  C_17
REMARK    2  A    between atoms: N_3  and  C_4
REMARK    3  A    between atoms: C_4  and  C_5
REMARK                            x       y       z     vdW  Elec       q    Type
REMARK                         _______ _______ _______ _____ _____    ______ ____
ROOT
ATOM      1  O   UNL     1       0.473   9.704  23.620  0.00  0.00    +0.000 OA
ATOM      2  C   UNL     1      -0.177  10.027  22.620  0.00  0.00    +0.000 C 
ATOM      3  N   UNL     1      -0.147   9.287  21.452  0.00  0.00    +0.000 N 
ATOM      4  H   UNL     1      -0.584   9.685  20.629  0.00  0.00    +0.000 HD
ENDROOT
BRANCH   2   5
ATOM      5  C   UNL     1      -0.971  11.297  22.639  0.00  0.00    +0.000 A 
ATOM      6  C   UNL     1      -0.400  12.384  21.989  0.00  0.00    +0.000 A 
ATOM      7  C   UNL     1      -1.125  13.559  21.905  0.00  0.00    +0.000 A 
ATOM      8  C   UNL     1      -2.334  13.654  22.583  0.00  0.00    +0.000 A 
ATOM      9  C   UNL     1      -3.004  14.885  22.603  0.00  0.00    +0.000 A 
ATOM     10  C   UNL     1      -3.937  15.128  23.596  0.00  0.00    +0.000 A 
ATOM     11  C   UNL     1      -4.341  14.083  24.419  0.00  0.00    +0.000 A 
ATOM     12  C   UNL     1      -3.839  12.787  24.215  0.00  0.00    +0.000 A 
ATOM     13  C   UNL     1      -2.788  12.544  23.337  0.00  0.00    +0.000 A 
ATOM     14  N   UNL     1      -2.166  11.336  23.289  0.00  0.00    +0.000 NA
ENDBRANCH   2   5
BRANCH   3  15
ATOM     15  C   UNL     1       0.850   8.237  21.324  0.00  0.00    +0.000 C 
BRANCH  15  16
ATOM     16  C   UNL     1       1.558   8.239  19.997  0.00  0.00    +0.000 A 
ATOM     17  C   UNL     1       1.332   9.275  19.087  0.00  0.00    +0.000 A 
ATOM     18  C   UNL     1       1.970   9.207  17.870  0.00  0.00    +0.000 A 
ATOM     19  N   UNL     1       2.808   8.209  17.513  0.00  0.00    +0.000 NA
ATOM     20  C   UNL     1       3.007   7.188  18.371  0.00  0.00    +0.000 A 
ATOM     21  N   UNL     1       3.861   6.179  17.954  0.00  0.00    +0.000 N 
ATOM     22  C   UNL     1       5.021   6.561  17.157  0.00  0.00    +0.000 C 
ATOM     23  C   UNL     1       5.099   5.693  15.908  0.00  0.00    +0.000 C 
ATOM     24  C   UNL     1       5.086   4.212  16.274  0.00  0.00    +0.000 C 
ATOM     25  C   UNL     1       3.876   3.876  17.146  0.00  0.00    +0.000 C 
ATOM     26  C   UNL     1       3.767   4.791  18.374  0.00  0.00    +0.000 C 
ATOM     27  C   UNL     1       2.380   7.175  19.607  0.00  0.00    +0.000 A 
ENDBRANCH  15  16
ENDBRANCH   3  15
TORSDOF 3
ENDMDL
MODEL 5
REMARK VINA RESULT:      -7.9      2.769      3.890
REMARK  Name = 
REMARK  3 active torsions:
REMARK  status: ('A' for Active; 'I' for Inactive)
REMARK    1  A    between atoms: C_2  and  C_17
REMARK    2  A    between atoms: N_3  and  C_4
REMARK    3  A    between atoms: C_4  and  C_5
REMARK                            x       y       z     vdW  Elec       q    Type
REMARK                         _______ _______ _______ _____ _____    ______ ____
ROOT
ATOM      1  O   UNL     1       1.151   4.659  20.459  0.00  0.00    +0.000 OA
ATOM      2  C   UNL     1       1.906   5.587  20.151  0.00  0.00    +0.000 C 
ATOM      3  N   UNL     1       1.689   6.884  20.580  0.00  0.00    +0.000 N 
ATOM      4  H   UNL     1       2.259   7.617  20.174  0.00  0.00    +0.000 HD
ENDROOT
BRANCH   2   5
ATOM      5  C   UNL     1       3.055   5.324  19.228  0.00  0.00    +0.000 A 
ATOM      6  C   UNL     1       2.763   4.598  18.080  0.00  0.00    +0.000 A 
ATOM      7  C   UNL     1       3.769   4.395  17.152  0.00  0.00    +0.000 A 
ATOM      8  C   UNL     1       5.060   4.806  17.459  0.00  0.00    +0.000 A 
ATOM      9  C   UNL     1       6.100   4.486  16.576  0.00  0.00    +0.000 A 
ATOM     10  C   UNL     1       7.403   4.482  17.042  0.00  0.00    +0.000 A 
ATOM     11  C   UNL     1       7.673   4.994  18.306  0.00  0.00    +0.000 A 
ATOM     12  C   UNL     1       6.641   5.547  19.081  0.00  0.00    +0.000 A 
ATOM     13  C   UNL     1       5.306   5.421  18.710  0.00  0.00    +0.000 A 
ATOM     14  N   UNL     1       4.298   5.771  19.554  0.00  0.00    +0.000 NA
ENDBRANCH   2   5
BRANCH   3  15
ATOM     15  C   UNL     1       0.420   7.200  21.213  0.00  0.00    +0.000 C 
BRANCH  15  16
ATOM     16  C   UNL     1       0.283   8.649  21.594  0.00  0.00    +0.000 A 
ATOM     17  C   UNL     1      -0.324   8.999  22.803  0.00  0.00    +0.000 A 
ATOM     18  C   UNL     1      -0.464  10.338  23.083  0.00  0.00    +0.000 A 
ATOM     19  N   UNL     1      -0.039  11.328  22.267  0.00  0.00    +0.000 NA
ATOM     20  C   UNL     1       0.519  11.001  21.084  0.00  0.00    +0.000 A 
ATOM     21  N   UNL     1       0.924  12.050  20.274  0.00  0.00    +0.000 N 
ATOM     22  C   UNL     1       1.484  13.229  20.924  0.00  0.00    +0.000 C 
ATOM     23  C   UNL     1       0.797  14.484  20.399  0.00  0.00    +0.000 C 
ATOM     24  C   UNL     1       0.874  14.547  18.877  0.00  0.00    +0.000 C 
ATOM     25  C   UNL     1       0.317  13.269  18.248  0.00  0.00    +0.000 C 
ATOM     26  C   UNL     1       0.969  12.003  18.822  0.00  0.00    +0.000 C 
ATOM     27  C   UNL     1       0.672   9.672  20.721  0.00  0.00    +0.000 A 
ENDBRANCH  15  16
ENDBRANCH   3  15
TORSDOF 3
ENDMDL
MODEL 6
REMARK VINA RESULT:      -7.9      2.145      2.694
REMARK  Name = 
REMARK  3 active torsions:
REMARK  status: ('A' for Active; 'I' for Inactive)
REMARK    1  A    between atoms: C_2  and  C_17
REMARK    2  A    between atoms: N_3  and  C_4
REMARK    3  A    between atoms: C_4  and  C_5
REMARK                            x       y       z     vdW  Elec       q    Type
REMARK                         _______ _______ _______ _____ _____    ______ ____
ROOT
ATOM      1  O   UNL     1       2.268   9.018  17.341  0.00  0.00    +0.000 OA
ATOM      2  C   UNL     1       2.000   8.511  18.436  0.00  0.00    +0.000 C 
ATOM      3  N   UNL     1       1.262   9.181  19.395  0.00  0.00    +0.000 N 
ATOM      4  H   UNL     1       1.203   8.769  20.318  0.00  0.00    +0.000 HD
ENDROOT
BRANCH   2   5
ATOM      5  C   UNL     1       2.546   7.158  18.772  0.00  0.00    +0.000 A 
ATOM      6  C   UNL     1       3.415   6.602  17.842  0.00  0.00    +0.000 A 
ATOM      7  C   UNL     1       4.013   5.390  18.139  0.00  0.00    +0.000 A 
ATOM      8  C   UNL     1       3.626   4.711  19.287  0.00  0.00    +0.000 A 
ATOM      9  C   UNL     1       4.136   3.427  19.520  0.00  0.00    +0.000 A 
ATOM     10  C   UNL     1       3.459   2.578  20.378  0.00  0.00    +0.000 A 
ATOM     11  C   UNL     1       2.415   3.080  21.147  0.00  0.00    +0.000 A 
ATOM     12  C   UNL     1       2.082   4.442  21.083  0.00  0.00    +0.000 A 
ATOM     13  C   UNL     1       2.633   5.282  20.120  0.00  0.00    +0.000 A 
ATOM     14  N   UNL     1       2.163   6.543  19.924  0.00  0.00    +0.000 NA
ENDBRANCH   2   5
BRANCH   3  15
ATOM     15  C   UNL     1       0.995  10.596  19.199  0.00  0.00    +0.000 C 
BRANCH  15  16
ATOM     16  C   UNL     1      -0.464  10.912  19.014  0.00  0.00    +0.000 A 
ATOM     17  C   UNL     1      -1.173  10.342  17.953  0.00  0.00    +0.000 A 
ATOM     18  C   UNL     1      -2.493  10.698  17.803  0.00  0.00    +0.000 A 
ATOM     19  N   UNL     1      -3.143  11.551  18.625  0.00  0.00    +0.000 NA
ATOM     20  C   UNL     1      -2.459  12.131  19.632  0.00  0.00    +0.000 A 
ATOM     21  N   UNL     1      -3.163  13.013  20.438  0.00  0.00    +0.000 N 
ATOM     22  C   UNL     1      -4.556  12.696  20.729  0.00  0.00    +0.000 C 
ATOM     23  C   UNL     1      -5.431  13.913  20.452  0.00  0.00    +0.000 C 
ATOM     24  C   UNL     1      -4.922  15.132  21.215  0.00  0.00    +0.000 C 
ATOM     25  C   UNL     1      -3.446  15.391  20.909  0.00  0.00    +0.000 C 
ATOM     26  C   UNL     1      -2.576  14.146  21.132  0.00  0.00    +0.000 C 
ATOM     27  C   UNL     1      -1.119  11.840  19.833  0.00  0.00    +0.000 A 
ENDBRANCH  15  16
ENDBRANCH   3  15
TORSDOF 3
ENDMDL
MODEL 7
REMARK VINA RESULT:      -7.9      2.209      3.432
REMARK  Name = 
REMARK  3 active torsions:
REMARK  status: ('A' for Active; 'I' for Inactive)
REMARK    1  A    between atoms: C_2  and  C_17
REMARK    2  A    between atoms: N_3  and  C_4
REMARK    3  A    between atoms: C_4  and  C_5
REMARK                            x       y       z     vdW  Elec       q    Type
REMARK                         _______ _______ _______ _____ _____    ______ ____
ROOT
ATOM      1  O   UNL     1       1.637   4.882  19.472  0.00  0.00    +0.000 OA
ATOM      2  C   UNL     1       2.629   5.614  19.547  0.00  0.00    +0.000 C 
ATOM      3  N   UNL     1       2.639   6.761  20.321  0.00  0.00    +0.000 N 
ATOM      4  H   UNL     1       3.428   7.389  20.223  0.00  0.00    +0.000 HD
ENDROOT
BRANCH   2   5
ATOM      5  C   UNL     1       3.839   5.298  18.724  0.00  0.00    +0.000 A 
ATOM      6  C   UNL     1       5.066   5.462  19.354  0.00  0.00    +0.000 A 
ATOM      7  C   UNL     1       6.215   5.108  18.668  0.00  0.00    +0.000 A 
ATOM      8  C   UNL     1       6.112   4.727  17.337  0.00  0.00    +0.000 A 
ATOM      9  C   UNL     1       7.286   4.492  16.607  0.00  0.00    +0.000 A 
ATOM     10  C   UNL     1       7.243   4.549  15.225  0.00  0.00    +0.000 A 
ATOM     11  C   UNL     1       6.011   4.629  14.586  0.00  0.00    +0.000 A 
ATOM     12  C   UNL     1       4.824   4.608  15.335  0.00  0.00    +0.000 A 
ATOM     13  C   UNL     1       4.836   4.712  16.722  0.00  0.00    +0.000 A 
ATOM     14  N   UNL     1       3.691   4.899  17.432  0.00  0.00    +0.000 NA
ENDBRANCH   2   5
BRANCH   3  15
ATOM     15  C   UNL     1       1.382   7.235  20.872  0.00  0.00    +0.000 C 
BRANCH  15  16
ATOM     16  C   UNL     1       0.954   8.571  20.328  0.00  0.00    +0.000 A 
ATOM     17  C   UNL     1       1.490   9.041  19.127  0.00  0.00    +0.000 A 
ATOM     18  C   UNL     1       1.099  10.288  18.697  0.00  0.00    +0.000 A 
ATOM     19  N   UNL     1       0.221  11.073  19.359  0.00  0.00    +0.000 NA
ATOM     20  C   UNL     1      -0.279  10.642  20.535  0.00  0.00    +0.000 A 
ATOM     21  N   UNL     1      -1.163  11.489  21.185  0.00  0.00    +0.000 N 
ATOM     22  C   UNL     1      -2.083  12.266  20.363  0.00  0.00    +0.000 C 
ATOM     23  C   UNL     1      -2.031  13.732  20.776  0.00  0.00    +0.000 C 
ATOM     24  C   UNL     1      -2.291  13.883  22.272  0.00  0.00    +0.000 C 
ATOM     25  C   UNL     1      -1.332  13.013  23.084  0.00  0.00    +0.000 C 
ATOM     26  C   UNL     1      -1.342  11.548  22.626  0.00  0.00    +0.000 C 
ATOM     27  C   UNL     1       0.087   9.406  21.045  0.00  0.00    +0.000 A 
ENDBRANCH  15  16
ENDBRANCH   3  15
TORSDOF 3
ENDMDL
MODEL 8
REMARK VINA RESULT:      -7.9      2.852      3.739
REMARK  Name = 
REMARK  3 active torsions:
REMARK  status: ('A' for Active; 'I' for Inactive)
REMARK    1  A    between atoms: C_2  and  C_17
REMARK    2  A    between atoms: N_3  and  C_4
REMARK    3  A    between atoms: C_4  and  C_5
REMARK                            x       y       z     vdW  Elec       q    Type
REMARK                         _______ _______ _______ _____ _____    ______ ____
ROOT
ATOM      1  O   UNL     1       1.183   8.566  20.894  0.00  0.00    +0.000 OA
ATOM      2  C   UNL     1       1.403   8.667  19.682  0.00  0.00    +0.000 C 
ATOM      3  N   UNL     1       0.835   9.667  18.913  0.00  0.00    +0.000 N 
ATOM      4  H   UNL     1       0.940   9.605  17.907  0.00  0.00    +0.000 HD
ENDROOT
BRANCH   2   5
ATOM      5  C   UNL     1       2.254   7.640  19.002  0.00  0.00    +0.000 A 
ATOM      6  C   UNL     1       2.940   8.066  17.872  0.00  0.00    +0.000 A 
ATOM      7  C   UNL     1       3.804   7.182  17.250  0.00  0.00    +0.000 A 
ATOM      8  C   UNL     1       3.857   5.868  17.695  0.00  0.00    +0.000 A 
ATOM      9  C   UNL     1       4.635   4.943  16.985  0.00  0.00    +0.000 A 
ATOM     10  C   UNL     1       4.369   3.592  17.123  0.00  0.00    +0.000 A 
ATOM     11  C   UNL     1       3.486   3.171  18.110  0.00  0.00    +0.000 A 
ATOM     12  C   UNL     1       2.905   4.104  18.985  0.00  0.00    +0.000 A 
ATOM     13  C   UNL     1       3.026   5.473  18.772  0.00  0.00    +0.000 A 
ATOM     14  N   UNL     1       2.300   6.371  19.491  0.00  0.00    +0.000 NA
ENDBRANCH   2   5
BRANCH   3  15
ATOM     15  C   UNL     1      -0.224  10.472  19.497  0.00  0.00    +0.000 C 
BRANCH  15  16
ATOM     16  C   UNL     1      -1.453  10.565  18.635  0.00  0.00    +0.000 A 
ATOM     17  C   UNL     1      -1.409  10.135  17.306  0.00  0.00    +0.000 A 
ATOM     18  C   UNL     1      -2.547  10.282  16.549  0.00  0.00    +0.000 A 
ATOM     19  N   UNL     1      -3.702  10.803  17.017  0.00  0.00    +0.000 NA
ATOM     20  C   UNL     1      -3.746  11.251  18.288  0.00  0.00    +0.000 A 
ATOM     21  N   UNL     1      -4.947  11.793  18.718  0.00  0.00    +0.000 N 
ATOM     22  C   UNL     1      -6.178  11.184  18.228  0.00  0.00    +0.000 C 
ATOM     23  C   UNL     1      -7.106  12.262  17.681  0.00  0.00    +0.000 C 
ATOM     24  C   UNL     1      -7.350  13.347  18.725  0.00  0.00    +0.000 C 
ATOM     25  C   UNL     1      -6.028  13.918  19.238  0.00  0.00    +0.000 C 
ATOM     26  C   UNL     1      -5.071  12.825  19.734  0.00  0.00    +0.000 C 
ATOM     27  C   UNL     1      -2.631  11.158  19.106  0.00  0.00    +0.000 A 
ENDBRANCH  15  16
ENDBRANCH   3  15
TORSDOF 3
ENDMDL
MODEL 9
REMARK VINA RESULT:      -7.9      1.880      9.786
REMARK  Name = 
REMARK  3 active torsions:
REMARK  status: ('A' for Active; 'I' for Inactive)
REMARK    1  A    between atoms: C_2  and  C_17
REMARK    2  A    between atoms: N_3  and  C_4
REMARK    3  A    between atoms: C_4  and  C_5
REMARK                            x       y       z     vdW  Elec       q    Type
REMARK                         _______ _______ _______ _____ _____    ______ ____
ROOT
ATOM      1  O   UNL     1      -1.152  11.150  18.107  0.00  0.00    +0.000 OA
ATOM      2  C   UNL     1      -0.573  11.212  19.196  0.00  0.00    +0.000 C 
ATOM      3  N   UNL     1       0.755  10.854  19.343  0.00  0.00    +0.000 N 
ATOM      4  H   UNL     1       1.125  10.790  20.285  0.00  0.00    +0.000 HD
ENDROOT
BRANCH   2   5
ATOM      5  C   UNL     1      -1.341  11.620  20.414  0.00  0.00    +0.000 A 
ATOM      6  C   UNL     1      -0.809  11.220  21.634  0.00  0.00    +0.000 A 
ATOM      7  C   UNL     1      -1.433  11.638  22.796  0.00  0.00    +0.000 A 
ATOM      8  C   UNL     1      -2.636  12.326  22.704  0.00  0.00    +0.000 A 
ATOM      9  C   UNL     1      -3.331  12.635  23.881  0.00  0.00    +0.000 A 
ATOM     10  C   UNL     1      -4.686  12.907  23.812  0.00  0.00    +0.000 A 
ATOM     11  C   UNL     1      -5.283  13.073  22.568  0.00  0.00    +0.000 A 
ATOM     12  C   UNL     1      -4.510  13.007  21.398  0.00  0.00    +0.000 A 
ATOM     13  C   UNL     1      -3.186  12.581  21.424  0.00  0.00    +0.000 A 
ATOM     14  N   UNL     1      -2.500  12.321  20.279  0.00  0.00    +0.000 NA
ENDBRANCH   2   5
BRANCH   3  15
ATOM     15  C   UNL     1       1.414  10.172  18.243  0.00  0.00    +0.000 C 
BRANCH  15  16
ATOM     16  C   UNL     1       1.909   8.796  18.598  0.00  0.00    +0.000 A 
ATOM     17  C   UNL     1       1.586   8.237  19.837  0.00  0.00    +0.000 A 
ATOM     18  C   UNL     1       2.099   6.995  20.130  0.00  0.00    +0.000 A 
ATOM     19  N   UNL     1       2.882   6.284  19.289  0.00  0.00    +0.000 NA
ATOM     20  C   UNL     1       3.225   6.829  18.104  0.00  0.00    +0.000 A 
ATOM     21  N   UNL     1       4.044   6.070  17.282  0.00  0.00    +0.000 N 
ATOM     22  C   UNL     1       3.837   4.626  17.269  0.00  0.00    +0.000 C 
ATOM     23  C   UNL     1       5.168   3.913  17.472  0.00  0.00    +0.000 C 
ATOM     24  C   UNL     1       6.195   4.379  16.445  0.00  0.00    +0.000 C 
ATOM     25  C   UNL     1       6.338   5.901  16.468  0.00  0.00    +0.000 C 
ATOM     26  C   UNL     1       4.989   6.618  16.324  0.00  0.00    +0.000 C 
ATOM     27  C   UNL     1       2.766   8.087  17.748  0.00  0.00    +0.000 A 
ENDBRANCH  15  16
ENDBRANCH   3  15
TORSDOF 3
ENDMDL
