MODEL 1
REMARK VINA RESULT:      -9.0      0.000      0.000
REMARK  Name = 
REMARK  7 active torsions:
REMARK  status: ('A' for Active; 'I' for Inactive)
REMARK    1  A    between atoms: C_1  and  C_2
REMARK    2  A    between atoms: C_7  and  C_8
REMARK    3  A    between atoms: C_11  and  C_12
REMARK    4  A    between atoms: C_15  and  C_16
REMARK    5  A    between atoms: N_18  and  C_19
REMARK    6  A    between atoms: N_18  and  C_20
REMARK    7  A    between atoms: C_20  and  C_21
REMARK                            x       y       z     vdW  Elec       q    Type
REMARK                         _______ _______ _______ _____ _____    ______ ____
ROOT
ATOM      1  C   UNL     1       0.880   9.528  19.048  0.00  0.00    +0.000 A 
ATOM      2  C   UNL     1       0.964   8.721  20.189  0.00  0.00    +0.000 A 
ATOM      3  C   UNL     1       1.819   7.612  20.231  0.00  0.00    +0.000 A 
ATOM      4  C   UNL     1       2.587   7.233  19.129  0.00  0.00    +0.000 A 
ATOM      5  C   UNL     1       2.487   8.048  17.979  0.00  0.00    +0.000 A 
ATOM      6  C   UNL     1       1.674   9.191  17.951  0.00  0.00    +0.000 A 
ENDROOT
BRANCH   1  10
ATOM      7  C   UNL     1      -1.853  11.716  18.857  0.00  0.00    +0.000 A 
ATOM      8  N   UNL     1      -0.919  12.623  19.026  0.00  0.00    +0.000 NA
ATOM      9  N   UNL     1       0.274  11.957  19.168  0.00  0.00    +0.000 NA
ATOM     10  C   UNL     1      -0.009  10.667  19.032  0.00  0.00    +0.000 A 
ATOM     11  O   UNL     1      -1.342  10.440  18.835  0.00  0.00    +0.000 OA
BRANCH   7  18
ATOM     12  C   UNL     1      -3.128  10.982  16.269  0.00  0.00    +0.000 C 
ATOM     13  C   UNL     1      -3.916  11.504  17.442  0.00  0.00    +0.000 A 
ATOM     14  C   UNL     1      -5.316  11.582  17.337  0.00  0.00    +0.000 A 
ATOM     15  C   UNL     1      -6.089  12.017  18.409  0.00  0.00    +0.000 A 
ATOM     16  C   UNL     1      -5.477  12.399  19.601  0.00  0.00    +0.000 A 
ATOM     17  C   UNL     1      -4.093  12.330  19.717  0.00  0.00    +0.000 A 
ATOM     18  C   UNL     1      -3.292  11.868  18.660  0.00  0.00    +0.000 A 
ENDBRANCH   7  18
ENDBRANCH   1  10
BRANCH   4  19
ATOM     19  C   UNL     1       3.428   5.987  19.029  0.00  0.00    +0.000 C 
ATOM     20  O   UNL     1       4.571   6.087  19.533  0.00  0.00    +0.000 OA
ATOM     21  N   UNL     1       3.037   4.786  18.426  0.00  0.00    +0.000 N 
ATOM     22  C   UNL     1       1.756   4.414  17.835  0.00  0.00    +0.000 C 
BRANCH  21  23
ATOM     23  C   UNL     1       4.040   3.712  18.351  0.00  0.00    +0.000 C 
BRANCH  23  24
ATOM     24  C   UNL     1       5.092   4.009  17.297  0.00  0.00    +0.000 A 
ATOM     25  C   UNL     1       6.409   4.352  17.649  0.00  0.00    +0.000 A 
ATOM     26  C   UNL     1       7.363   4.658  16.672  0.00  0.00    +0.000 A 
ATOM     27  C   UNL     1       7.015   4.601  15.329  0.00  0.00    +0.000 A 
ATOM     28  C   UNL     1       5.721   4.240  14.973  0.00  0.00    +0.000 A 
ATOM     29  F   UNL     1       5.386   4.185  13.676  0.00  0.00    +0.000 F 
ATOM     30  C   UNL     1       4.760   3.947  15.938  0.00  0.00    +0.000 A 
ENDBRANCH  23  24
ENDBRANCH  21  23
ENDBRANCH   4  19
TORSDOF 5
ENDMDL
MODEL 2
REMARK VINA RESULT:      -8.8      6.531      9.439
REMARK  Name = 
REMARK  7 active torsions:
REMARK  status: ('A' for Active; 'I' for Inactive)
REMARK    1  A    between atoms: C_1  and  C_2
REMARK    2  A    between atoms: C_7  and  C_8
REMARK    3  A    between atoms: C_11  and  C_12
REMARK    4  A    between atoms: C_15  and  C_16
REMARK    5  A    between atoms: N_18  and  C_19
REMARK    6  A    between atoms: N_18  and  C_20
REMARK    7  A    between atoms: C_20  and  C_21
REMARK                            x       y       z     vdW  Elec       q    Type
REMARK                         _______ _______ _______ _____ _____    ______ ____
ROOT
ATOM      1  C   UNL     1       8.539   9.109  18.515  0.00  0.00    +0.000 A 
ATOM      2  C   UNL     1       8.735   7.911  19.213  0.00  0.00    +0.000 A 
ATOM      3  C   UNL     1       8.114   6.723  18.805  0.00  0.00    +0.000 A 
ATOM      4  C   UNL     1       7.238   6.688  17.719  0.00  0.00    +0.000 A 
ATOM      5  C   UNL     1       7.038   7.903  17.028  0.00  0.00    +0.000 A 
ATOM      6  C   UNL     1       7.700   9.083  17.399  0.00  0.00    +0.000 A 
ENDROOT
BRANCH   1  10
ATOM      7  C   UNL     1       9.826  12.350  18.875  0.00  0.00    +0.000 A 
ATOM      8  N   UNL     1      10.359  11.832  19.958  0.00  0.00    +0.000 NA
ATOM      9  N   UNL     1       9.936  10.527  20.036  0.00  0.00    +0.000 NA
ATOM     10  C   UNL     1       9.194  10.319  18.956  0.00  0.00    +0.000 A 
ATOM     11  O   UNL     1       9.078  11.434  18.175  0.00  0.00    +0.000 OA
BRANCH   7  18
ATOM     12  C   UNL     1      12.122  13.088  17.133  0.00  0.00    +0.000 C 
ATOM     13  C   UNL     1      11.017  14.054  17.469  0.00  0.00    +0.000 A 
ATOM     14  C   UNL     1      11.031  15.332  16.883  0.00  0.00    +0.000 A 
ATOM     15  C   UNL     1      10.008  16.242  17.129  0.00  0.00    +0.000 A 
ATOM     16  C   UNL     1       8.960  15.900  17.981  0.00  0.00    +0.000 A 
ATOM     17  C   UNL     1       8.936  14.641  18.571  0.00  0.00    +0.000 A 
ATOM     18  C   UNL     1       9.941  13.693  18.317  0.00  0.00    +0.000 A 
ENDBRANCH   7  18
ENDBRANCH   1  10
BRANCH   4  19
ATOM     19  C   UNL     1       6.420   5.498  17.288  0.00  0.00    +0.000 C 
ATOM     20  O   UNL     1       7.092   4.494  16.955  0.00  0.00    +0.000 OA
ATOM     21  N   UNL     1       5.022   5.449  17.225  0.00  0.00    +0.000 N 
ATOM     22  C   UNL     1       4.037   6.453  17.612  0.00  0.00    +0.000 C 
BRANCH  21  23
ATOM     23  C   UNL     1       4.414   4.222  16.689  0.00  0.00    +0.000 C 
BRANCH  23  24
ATOM     24  C   UNL     1       3.558   3.526  17.732  0.00  0.00    +0.000 A 
ATOM     25  C   UNL     1       2.199   3.247  17.501  0.00  0.00    +0.000 A 
ATOM     26  C   UNL     1       1.409   2.637  18.481  0.00  0.00    +0.000 A 
ATOM     27  C   UNL     1       1.977   2.277  19.697  0.00  0.00    +0.000 A 
ATOM     28  C   UNL     1       3.324   2.528  19.923  0.00  0.00    +0.000 A 
ATOM     29  F   UNL     1       3.871   2.180  21.096  0.00  0.00    +0.000 F 
ATOM     30  C   UNL     1       4.117   3.147  18.958  0.00  0.00    +0.000 A 
ENDBRANCH  23  24
ENDBRANCH  21  23
ENDBRANCH   4  19
TORSDOF 5
ENDMDL
MODEL 3
REMARK VINA RESULT:      -8.8      1.363      2.345
REMARK  Name = 
REMARK  7 active torsions:
REMARK  status: ('A' for Active; 'I' for Inactive)
REMARK    1  A    between atoms: C_1  and  C_2
REMARK    2  A    between atoms: C_7  and  C_8
REMARK    3  A    between atoms: C_11  and  C_12
REMARK    4  A    between atoms: C_15  and  C_16
REMARK    5  A    between atoms: N_18  and  C_19
REMARK    6  A    between atoms: N_18  and  C_20
REMARK    7  A    between atoms: C_20  and  C_21
REMARK                            x       y       z     vdW  Elec       q    Type
REMARK                         _______ _______ _______ _____ _____    ______ ____
ROOT
ATOM      1  C   UNL     1       0.930   9.641  19.349  0.00  0.00    +0.000 A 
ATOM      2  C   UNL     1       1.501   9.310  18.115  0.00  0.00    +0.000 A 
ATOM      3  C   UNL     1       2.220   8.119  17.944  0.00  0.00    +0.000 A 
ATOM      4  C   UNL     1       2.441   7.236  19.001  0.00  0.00    +0.000 A 
ATOM      5  C   UNL     1       1.870   7.584  20.246  0.00  0.00    +0.000 A 
ATOM      6  C   UNL     1       1.103   8.747  20.408  0.00  0.00    +0.000 A 
ENDROOT
BRANCH   1  10
ATOM      7  C   UNL     1      -1.382  12.154  20.142  0.00  0.00    +0.000 A 
ATOM      8  N   UNL     1      -0.588  12.881  19.391  0.00  0.00    +0.000 NA
ATOM      9  N   UNL     1       0.447  12.073  18.990  0.00  0.00    +0.000 NA
ATOM     10  C   UNL     1       0.191  10.873  19.497  0.00  0.00    +0.000 A 
ATOM     11  O   UNL     1      -0.953  10.852  20.244  0.00  0.00    +0.000 OA
BRANCH   7  18
ATOM     12  C   UNL     1      -1.410  12.702  23.067  0.00  0.00    +0.000 C 
ATOM     13  C   UNL     1      -2.648  12.792  22.213  0.00  0.00    +0.000 A 
ATOM     14  C   UNL     1      -3.849  13.220  22.805  0.00  0.00    +0.000 A 
ATOM     15  C   UNL     1      -5.008  13.361  22.047  0.00  0.00    +0.000 A 
ATOM     16  C   UNL     1      -4.993  13.060  20.687  0.00  0.00    +0.000 A 
ATOM     17  C   UNL     1      -3.812  12.632  20.090  0.00  0.00    +0.000 A 
ATOM     18  C   UNL     1      -2.622  12.509  20.826  0.00  0.00    +0.000 A 
ENDBRANCH   7  18
ENDBRANCH   1  10
BRANCH   4  19
ATOM     19  C   UNL     1       3.311   6.006  18.953  0.00  0.00    +0.000 C 
ATOM     20  O   UNL     1       4.427   6.133  19.505  0.00  0.00    +0.000 OA
ATOM     21  N   UNL     1       2.971   4.791  18.346  0.00  0.00    +0.000 N 
ATOM     22  C   UNL     1       1.724   4.388  17.702  0.00  0.00    +0.000 C 
BRANCH  21  23
ATOM     23  C   UNL     1       3.996   3.737  18.326  0.00  0.00    +0.000 C 
BRANCH  23  24
ATOM     24  C   UNL     1       5.066   4.023  17.287  0.00  0.00    +0.000 A 
ATOM     25  C   UNL     1       6.383   4.347  17.657  0.00  0.00    +0.000 A 
ATOM     26  C   UNL     1       7.353   4.643  16.694  0.00  0.00    +0.000 A 
ATOM     27  C   UNL     1       7.021   4.596  15.346  0.00  0.00    +0.000 A 
ATOM     28  C   UNL     1       5.728   4.253  14.972  0.00  0.00    +0.000 A 
ATOM     29  F   UNL     1       5.409   4.207  13.671  0.00  0.00    +0.000 F 
ATOM     30  C   UNL     1       4.750   3.969  15.924  0.00  0.00    +0.000 A 
ENDBRANCH  23  24
ENDBRANCH  21  23
ENDBRANCH   4  19
TORSDOF 5
ENDMDL
MODEL 4
REMARK VINA RESULT:      -8.8      6.536      9.601
REMARK  Name = 
REMARK  7 active torsions:
REMARK  status: ('A' for Active; 'I' for Inactive)
REMARK    1  A    between atoms: C_1  and  C_2
REMARK    2  A    between atoms: C_7  and  C_8
REMARK    3  A    between atoms: C_11  and  C_12
REMARK    4  A    between atoms: C_15  and  C_16
REMARK    5  A    between atoms: N_18  and  C_19
REMARK    6  A    between atoms: N_18  and  C_20
REMARK    7  A    between atoms: C_20  and  C_21
REMARK                            x       y       z     vdW  Elec       q    Type
REMARK                         _______ _______ _______ _____ _____    ______ ____
ROOT
ATOM      1  C   UNL     1       8.606   9.126  18.571  0.00  0.00    +0.000 A 
ATOM      2  C   UNL     1       8.796   7.936  19.282  0.00  0.00    +0.000 A 
ATOM      3  C   UNL     1       8.163   6.748  18.891  0.00  0.00    +0.000 A 
ATOM      4  C   UNL     1       7.281   6.707  17.811  0.00  0.00    +0.000 A 
ATOM      5  C   UNL     1       7.088   7.916  17.106  0.00  0.00    +0.000 A 
ATOM      6  C   UNL     1       7.762   9.094  17.460  0.00  0.00    +0.000 A 
ENDROOT
BRANCH   1  10
ATOM      7  C   UNL     1      10.150  12.266  18.798  0.00  0.00    +0.000 A 
ATOM      8  N   UNL     1      10.325  11.897  20.046  0.00  0.00    +0.000 NA
ATOM      9  N   UNL     1       9.738  10.664  20.193  0.00  0.00    +0.000 NA
ATOM     10  C   UNL     1       9.273  10.336  18.995  0.00  0.00    +0.000 A 
ATOM     11  O   UNL     1       9.495  11.308  18.061  0.00  0.00    +0.000 OA
BRANCH   7  18
ATOM     12  C   UNL     1       8.308  14.589  18.548  0.00  0.00    +0.000 C 
ATOM     13  C   UNL     1       9.709  14.603  17.995  0.00  0.00    +0.000 A 
ATOM     14  C   UNL     1      10.191  15.781  17.400  0.00  0.00    +0.000 A 
ATOM     15  C   UNL     1      11.494  15.855  16.916  0.00  0.00    +0.000 A 
ATOM     16  C   UNL     1      12.333  14.746  17.000  0.00  0.00    +0.000 A 
ATOM     17  C   UNL     1      11.867  13.572  17.583  0.00  0.00    +0.000 A 
ATOM     18  C   UNL     1      10.567  13.481  18.105  0.00  0.00    +0.000 A 
ENDBRANCH   7  18
ENDBRANCH   1  10
BRANCH   4  19
ATOM     19  C   UNL     1       6.452   5.518  17.397  0.00  0.00    +0.000 C 
ATOM     20  O   UNL     1       7.114   4.497  17.101  0.00  0.00    +0.000 OA
ATOM     21  N   UNL     1       5.055   5.489  17.314  0.00  0.00    +0.000 N 
ATOM     22  C   UNL     1       4.079   6.518  17.660  0.00  0.00    +0.000 C 
BRANCH  21  23
ATOM     23  C   UNL     1       4.436   4.257  16.800  0.00  0.00    +0.000 C 
BRANCH  23  24
ATOM     24  C   UNL     1       3.638   3.546  17.879  0.00  0.00    +0.000 A 
ATOM     25  C   UNL     1       4.217   3.196  19.112  0.00  0.00    +0.000 A 
ATOM     26  C   UNL     1       3.485   2.510  20.086  0.00  0.00    +0.000 A 
ATOM     27  C   UNL     1       2.155   2.185  19.846  0.00  0.00    +0.000 A 
ATOM     28  C   UNL     1       1.570   2.548  18.640  0.00  0.00    +0.000 A 
ATOM     29  F   UNL     1       0.287   2.235  18.409  0.00  0.00    +0.000 F 
ATOM     30  C   UNL     1       2.295   3.221  17.657  0.00  0.00    +0.000 A 
ENDBRANCH  23  24
ENDBRANCH  21  23
ENDBRANCH   4  19
TORSDOF 5
ENDMDL
MODEL 5
REMARK VINA RESULT:      -8.8      1.569      2.327
REMARK  Name = 
REMARK  7 active torsions:
REMARK  status: ('A' for Active; 'I' for Inactive)
REMARK    1  A    between atoms: C_1  and  C_2
REMARK    2  A    between atoms: C_7  and  C_8
REMARK    3  A    between atoms: C_11  and  C_12
REMARK    4  A    between atoms: C_15  and  C_16
REMARK    5  A    between atoms: N_18  and  C_19
REMARK    6  A    between atoms: N_18  and  C_20
REMARK    7  A    between atoms: C_20  and  C_21
REMARK                            x       y       z     vdW  Elec       q    Type
REMARK                         _______ _______ _______ _____ _____    ______ ____
ROOT
ATOM      1  C   UNL     1       0.942   9.506  19.758  0.00  0.00    +0.000 A 
ATOM      2  C   UNL     1       1.517   9.256  18.506  0.00  0.00    +0.000 A 
ATOM      3  C   UNL     1       2.210   8.065  18.251  0.00  0.00    +0.000 A 
ATOM      4  C   UNL     1       2.400   7.099  19.240  0.00  0.00    +0.000 A 
ATOM      5  C   UNL     1       1.825   7.365  20.503  0.00  0.00    +0.000 A 
ATOM      6  C   UNL     1       1.084   8.531  20.747  0.00  0.00    +0.000 A 
ENDROOT
BRANCH   1  10
ATOM      7  C   UNL     1      -1.246  12.029  20.825  0.00  0.00    +0.000 A 
ATOM      8  N   UNL     1      -0.549  12.752  19.980  0.00  0.00    +0.000 NA
ATOM      9  N   UNL     1       0.427  11.940  19.456  0.00  0.00    +0.000 NA
ATOM     10  C   UNL     1       0.232  10.742  19.993  0.00  0.00    +0.000 A 
ATOM     11  O   UNL     1      -0.812  10.725  20.876  0.00  0.00    +0.000 OA
BRANCH   7  18
ATOM     12  C   UNL     1      -3.930  12.471  19.620  0.00  0.00    +0.000 C 
ATOM     13  C   UNL     1      -3.678  12.583  21.101  0.00  0.00    +0.000 A 
ATOM     14  C   UNL     1      -4.765  12.837  21.956  0.00  0.00    +0.000 A 
ATOM     15  C   UNL     1      -4.588  12.905  23.335  0.00  0.00    +0.000 A 
ATOM     16  C   UNL     1      -3.319  12.739  23.884  0.00  0.00    +0.000 A 
ATOM     17  C   UNL     1      -2.234  12.491  23.049  0.00  0.00    +0.000 A 
ATOM     18  C   UNL     1      -2.390  12.389  21.657  0.00  0.00    +0.000 A 
ENDBRANCH   7  18
ENDBRANCH   1  10
BRANCH   4  19
ATOM     19  C   UNL     1       3.240   5.855  19.105  0.00  0.00    +0.000 C 
ATOM     20  O   UNL     1       4.342   5.903  19.699  0.00  0.00    +0.000 OA
ATOM     21  N   UNL     1       2.890   4.710  18.381  0.00  0.00    +0.000 N 
ATOM     22  C   UNL     1       1.655   4.400  17.667  0.00  0.00    +0.000 C 
BRANCH  21  23
ATOM     23  C   UNL     1       3.890   3.635  18.295  0.00  0.00    +0.000 C 
BRANCH  23  24
ATOM     24  C   UNL     1       4.976   3.966  17.287  0.00  0.00    +0.000 A 
ATOM     25  C   UNL     1       6.277   4.311  17.693  0.00  0.00    +0.000 A 
ATOM     26  C   UNL     1       7.261   4.649  16.759  0.00  0.00    +0.000 A 
ATOM     27  C   UNL     1       6.961   4.623  15.403  0.00  0.00    +0.000 A 
ATOM     28  C   UNL     1       5.684   4.261  14.992  0.00  0.00    +0.000 A 
ATOM     29  F   UNL     1       5.395   4.236  13.684  0.00  0.00    +0.000 F 
ATOM     30  C   UNL     1       4.692   3.936  15.916  0.00  0.00    +0.000 A 
ENDBRANCH  23  24
ENDBRANCH  21  23
ENDBRANCH   4  19
TORSDOF 5
ENDMDL
MODEL 6
REMARK VINA RESULT:      -8.7      3.790     10.865
REMARK  Name = 
REMARK  7 active torsions:
REMARK  status: ('A' for Active; 'I' for Inactive)
REMARK    1  A    between atoms: C_1  and  C_2
REMARK    2  A    between atoms: C_7  and  C_8
REMARK    3  A    between atoms: C_11  and  C_12
REMARK    4  A    between atoms: C_15  and  C_16
REMARK    5  A    between atoms: N_18  and  C_19
REMARK    6  A    between atoms: N_18  and  C_20
REMARK    7  A    between atoms: C_20  and  C_21
REMARK                            x       y       z     vdW  Elec       q    Type
REMARK                         _______ _______ _______ _____ _____    ______ ____
ROOT
ATOM      1  C   UNL     1       1.840   7.858  19.733  0.00  0.00    +0.000 A 
ATOM      2  C   UNL     1       1.312   8.033  21.018  0.00  0.00    +0.000 A 
ATOM      3  C   UNL     1       0.647   9.214  21.374  0.00  0.00    +0.000 A 
ATOM      4  C   UNL     1       0.523  10.284  20.487  0.00  0.00    +0.000 A 
ATOM      5  C   UNL     1       1.069  10.102  19.196  0.00  0.00    +0.000 A 
ATOM      6  C   UNL     1       1.687   8.901  18.817  0.00  0.00    +0.000 A 
ENDROOT
BRANCH   1  10
ATOM      7  C   UNL     1       3.912   5.369  18.390  0.00  0.00    +0.000 A 
ATOM      8  N   UNL     1       3.181   4.591  19.154  0.00  0.00    +0.000 NA
ATOM      9  N   UNL     1       2.295   5.396  19.827  0.00  0.00    +0.000 NA
ATOM     10  C   UNL     1       2.519   6.629  19.391  0.00  0.00    +0.000 A 
ATOM     11  O   UNL     1       3.535   6.688  18.479  0.00  0.00    +0.000 OA
BRANCH   7  18
ATOM     12  C   UNL     1       6.750   5.486  19.276  0.00  0.00    +0.000 C 
ATOM     13  C   UNL     1       6.352   5.072  17.883  0.00  0.00    +0.000 A 
ATOM     14  C   UNL     1       7.353   4.656  16.988  0.00  0.00    +0.000 A 
ATOM     15  C   UNL     1       7.029   4.223  15.706  0.00  0.00    +0.000 A 
ATOM     16  C   UNL     1       5.700   4.214  15.288  0.00  0.00    +0.000 A 
ATOM     17  C   UNL     1       4.700   4.627  16.162  0.00  0.00    +0.000 A 
ATOM     18  C   UNL     1       4.998   5.041  17.471  0.00  0.00    +0.000 A 
ENDBRANCH   7  18
ENDBRANCH   1  10
BRANCH   4  19
ATOM     19  C   UNL     1      -0.050  11.639  20.817  0.00  0.00    +0.000 C 
ATOM     20  O   UNL     1       0.621  12.303  21.640  0.00  0.00    +0.000 OA
ATOM     21  N   UNL     1      -1.235  12.171  20.296  0.00  0.00    +0.000 N 
ATOM     22  C   UNL     1      -2.141  11.621  19.292  0.00  0.00    +0.000 C 
BRANCH  21  23
ATOM     23  C   UNL     1      -1.673  13.476  20.814  0.00  0.00    +0.000 C 
BRANCH  23  24
ATOM     24  C   UNL     1      -2.805  13.323  21.815  0.00  0.00    +0.000 A 
ATOM     25  C   UNL     1      -2.634  12.610  23.015  0.00  0.00    +0.000 A 
ATOM     26  C   UNL     1      -3.693  12.445  23.914  0.00  0.00    +0.000 A 
ATOM     27  C   UNL     1      -4.929  13.013  23.635  0.00  0.00    +0.000 A 
ATOM     28  C   UNL     1      -5.098  13.739  22.462  0.00  0.00    +0.000 A 
ATOM     29  F   UNL     1      -6.291  14.287  22.193  0.00  0.00    +0.000 F 
ATOM     30  C   UNL     1      -4.054  13.898  21.553  0.00  0.00    +0.000 A 
ENDBRANCH  23  24
ENDBRANCH  21  23
ENDBRANCH   4  19
TORSDOF 5
ENDMDL
MODEL 7
REMARK VINA RESULT:      -8.6      1.011      1.339
REMARK  Name = 
REMARK  7 active torsions:
REMARK  status: ('A' for Active; 'I' for Inactive)
REMARK    1  A    between atoms: C_1  and  C_2
REMARK    2  A    between atoms: C_7  and  C_8
REMARK    3  A    between atoms: C_11  and  C_12
REMARK    4  A    between atoms: C_15  and  C_16
REMARK    5  A    between atoms: N_18  and  C_19
REMARK    6  A    between atoms: N_18  and  C_20
REMARK    7  A    between atoms: C_20  and  C_21
REMARK                            x       y       z     vdW  Elec       q    Type
REMARK                         _______ _______ _______ _____ _____    ______ ____
ROOT
ATOM      1  C   UNL     1       0.704   9.670  19.027  0.00  0.00    +0.000 A 
ATOM      2  C   UNL     1       0.836   8.930  20.207  0.00  0.00    +0.000 A 
ATOM      3  C   UNL     1       1.658   7.796  20.265  0.00  0.00    +0.000 A 
ATOM      4  C   UNL     1       2.342   7.327  19.142  0.00  0.00    +0.000 A 
ATOM      5  C   UNL     1       2.193   8.075  17.953  0.00  0.00    +0.000 A 
ATOM      6  C   UNL     1       1.415   9.241  17.905  0.00  0.00    +0.000 A 
ENDROOT
BRANCH   1  10
ATOM      7  C   UNL     1      -1.971  11.936  19.003  0.00  0.00    +0.000 A 
ATOM      8  N   UNL     1      -1.004  12.810  18.849  0.00  0.00    +0.000 NA
ATOM      9  N   UNL     1       0.181  12.116  18.870  0.00  0.00    +0.000 NA
ATOM     10  C   UNL     1      -0.149  10.836  18.996  0.00  0.00    +0.000 A 
ATOM     11  O   UNL     1      -1.499  10.648  19.090  0.00  0.00    +0.000 OA
BRANCH   7  18
ATOM     12  C   UNL     1      -3.709  11.101  16.736  0.00  0.00    +0.000 C 
ATOM     13  C   UNL     1      -4.260  11.717  17.995  0.00  0.00    +0.000 A 
ATOM     14  C   UNL     1      -5.653  11.839  18.136  0.00  0.00    +0.000 A 
ATOM     15  C   UNL     1      -6.210  12.361  19.300  0.00  0.00    +0.000 A 
ATOM     16  C   UNL     1      -5.384  12.788  20.337  0.00  0.00    +0.000 A 
ATOM     17  C   UNL     1      -4.004  12.677  20.209  0.00  0.00    +0.000 A 
ATOM     18  C   UNL     1      -3.417  12.128  19.057  0.00  0.00    +0.000 A 
ENDBRANCH   7  18
ENDBRANCH   1  10
BRANCH   4  19
ATOM     19  C   UNL     1       3.137   6.048  19.067  0.00  0.00    +0.000 C 
ATOM     20  O   UNL     1       4.263   6.101  19.612  0.00  0.00    +0.000 OA
ATOM     21  N   UNL     1       2.721   4.866  18.445  0.00  0.00    +0.000 N 
ATOM     22  C   UNL     1       1.448   4.547  17.806  0.00  0.00    +0.000 C 
BRANCH  21  23
ATOM     23  C   UNL     1       3.682   3.753  18.400  0.00  0.00    +0.000 C 
BRANCH  23  24
ATOM     24  C   UNL     1       4.839   4.057  17.465  0.00  0.00    +0.000 A 
ATOM     25  C   UNL     1       4.636   4.278  16.091  0.00  0.00    +0.000 A 
ATOM     26  C   UNL     1       5.712   4.522  15.231  0.00  0.00    +0.000 A 
ATOM     27  C   UNL     1       7.003   4.573  15.741  0.00  0.00    +0.000 A 
ATOM     28  C   UNL     1       7.209   4.379  17.101  0.00  0.00    +0.000 A 
ATOM     29  F   UNL     1       8.455   4.428  17.592  0.00  0.00    +0.000 F 
ATOM     30  C   UNL     1       6.146   4.121  17.964  0.00  0.00    +0.000 A 
ENDBRANCH  23  24
ENDBRANCH  21  23
ENDBRANCH   4  19
TORSDOF 5
ENDMDL
MODEL 8
REMARK VINA RESULT:      -8.6      3.398     10.706
REMARK  Name = 
REMARK  7 active torsions:
REMARK  status: ('A' for Active; 'I' for Inactive)
REMARK    1  A    between atoms: C_1  and  C_2
REMARK    2  A    between atoms: C_7  and  C_8
REMARK    3  A    between atoms: C_11  and  C_12
REMARK    4  A    between atoms: C_15  and  C_16
REMARK    5  A    between atoms: N_18  and  C_19
REMARK    6  A    between atoms: N_18  and  C_20
REMARK    7  A    between atoms: C_20  and  C_21
REMARK                            x       y       z     vdW  Elec       q    Type
REMARK                         _______ _______ _______ _____ _____    ______ ____
ROOT
ATOM      1  C   UNL     1       2.167   7.951  18.969  0.00  0.00    +0.000 A 
ATOM      2  C   UNL     1       1.632   8.091  20.255  0.00  0.00    +0.000 A 
ATOM      3  C   UNL     1       0.895   9.228  20.614  0.00  0.00    +0.000 A 
ATOM      4  C   UNL     1       0.702  10.289  19.727  0.00  0.00    +0.000 A 
ATOM      5  C   UNL     1       1.255  10.142  18.436  0.00  0.00    +0.000 A 
ATOM      6  C   UNL     1       1.946   8.982  18.054  0.00  0.00    +0.000 A 
ENDROOT
BRANCH   1  10
ATOM      7  C   UNL     1       4.259   5.549  17.503  0.00  0.00    +0.000 A 
ATOM      8  N   UNL     1       3.777   4.795  18.463  0.00  0.00    +0.000 NA
ATOM      9  N   UNL     1       2.932   5.577  19.211  0.00  0.00    +0.000 NA
ATOM     10  C   UNL     1       2.921   6.767  18.624  0.00  0.00    +0.000 A 
ATOM     11  O   UNL     1       3.744   6.823  17.535  0.00  0.00    +0.000 OA
BRANCH   7  18
ATOM     12  C   UNL     1       7.136   6.275  17.725  0.00  0.00    +0.000 C 
ATOM     13  C   UNL     1       6.573   5.550  16.531  0.00  0.00    +0.000 A 
ATOM     14  C   UNL     1       7.450   5.137  15.513  0.00  0.00    +0.000 A 
ATOM     15  C   UNL     1       6.982   4.426  14.412  0.00  0.00    +0.000 A 
ATOM     16  C   UNL     1       5.626   4.130  14.298  0.00  0.00    +0.000 A 
ATOM     17  C   UNL     1       4.746   4.536  15.296  0.00  0.00    +0.000 A 
ATOM     18  C   UNL     1       5.197   5.230  16.431  0.00  0.00    +0.000 A 
ENDBRANCH   7  18
ENDBRANCH   1  10
BRANCH   4  19
ATOM     19  C   UNL     1       0.046  11.604  20.060  0.00  0.00    +0.000 C 
ATOM     20  O   UNL     1       0.689  12.322  20.859  0.00  0.00    +0.000 OA
ATOM     21  N   UNL     1      -1.186  12.048  19.565  0.00  0.00    +0.000 N 
ATOM     22  C   UNL     1      -2.078  11.426  18.591  0.00  0.00    +0.000 C 
BRANCH  21  23
ATOM     23  C   UNL     1      -1.700  13.325  20.083  0.00  0.00    +0.000 C 
BRANCH  23  24
ATOM     24  C   UNL     1      -2.903  13.115  20.984  0.00  0.00    +0.000 A 
ATOM     25  C   UNL     1      -4.215  13.314  20.519  0.00  0.00    +0.000 A 
ATOM     26  C   UNL     1      -5.316  13.152  21.367  0.00  0.00    +0.000 A 
ATOM     27  C   UNL     1      -5.118  12.764  22.686  0.00  0.00    +0.000 A 
ATOM     28  C   UNL     1      -3.826  12.542  23.146  0.00  0.00    +0.000 A 
ATOM     29  F   UNL     1      -3.636  12.168  24.419  0.00  0.00    +0.000 F 
ATOM     30  C   UNL     1      -2.721  12.714  22.314  0.00  0.00    +0.000 A 
ENDBRANCH  23  24
ENDBRANCH  21  23
ENDBRANCH   4  19
TORSDOF 5
ENDMDL
MODEL 9
REMARK VINA RESULT:      -8.6      3.862     10.768
REMARK  Name = 
REMARK  7 active torsions:
REMARK  status: ('A' for Active; 'I' for Inactive)
REMARK    1  A    between atoms: C_1  and  C_2
REMARK    2  A    between atoms: C_7  and  C_8
REMARK    3  A    between atoms: C_11  and  C_12
REMARK    4  A    between atoms: C_15  and  C_16
REMARK    5  A    between atoms: N_18  and  C_19
REMARK    6  A    between atoms: N_18  and  C_20
REMARK    7  A    between atoms: C_20  and  C_21
REMARK                            x       y       z     vdW  Elec       q    Type
REMARK                         _______ _______ _______ _____ _____    ______ ____
ROOT
ATOM      1  C   UNL     1       2.223   7.492  19.279  0.00  0.00    +0.000 A 
ATOM      2  C   UNL     1       1.788   7.514  20.609  0.00  0.00    +0.000 A 
ATOM      3  C   UNL     1       1.080   8.609  21.123  0.00  0.00    +0.000 A 
ATOM      4  C   UNL     1       0.820   9.743  20.353  0.00  0.00    +0.000 A 
ATOM      5  C   UNL     1       1.273   9.716  19.015  0.00  0.00    +0.000 A 
ATOM      6  C   UNL     1       1.933   8.600  18.480  0.00  0.00    +0.000 A 
ENDROOT
BRANCH   1  10
ATOM      7  C   UNL     1       4.266   5.267  17.499  0.00  0.00    +0.000 A 
ATOM      8  N   UNL     1       3.753   4.397  18.338  0.00  0.00    +0.000 NA
ATOM      9  N   UNL     1       2.922   5.088  19.185  0.00  0.00    +0.000 NA
ATOM     10  C   UNL     1       2.949   6.349  18.774  0.00  0.00    +0.000 A 
ATOM     11  O   UNL     1       3.785   6.537  17.710  0.00  0.00    +0.000 OA
BRANCH   7  18
ATOM     12  C   UNL     1       7.118   6.071  17.773  0.00  0.00    +0.000 C 
ATOM     13  C   UNL     1       6.571   5.436  16.521  0.00  0.00    +0.000 A 
ATOM     14  C   UNL     1       7.455   5.147  15.467  0.00  0.00    +0.000 A 
ATOM     15  C   UNL     1       7.003   4.521  14.309  0.00  0.00    +0.000 A 
ATOM     16  C   UNL     1       5.658   4.189  14.175  0.00  0.00    +0.000 A 
ATOM     17  C   UNL     1       4.772   4.473  15.209  0.00  0.00    +0.000 A 
ATOM     18  C   UNL     1       5.207   5.078  16.400  0.00  0.00    +0.000 A 
ENDBRANCH   7  18
ENDBRANCH   1  10
BRANCH   4  19
ATOM     19  C   UNL     1       0.191  11.019  20.850  0.00  0.00    +0.000 C 
ATOM     20  O   UNL     1       0.306  11.995  20.074  0.00  0.00    +0.000 OA
ATOM     21  N   UNL     1      -0.470  11.178  22.074  0.00  0.00    +0.000 N 
ATOM     22  C   UNL     1      -0.778  10.189  23.102  0.00  0.00    +0.000 C 
BRANCH  21  23
ATOM     23  C   UNL     1      -0.936  12.531  22.417  0.00  0.00    +0.000 C 
BRANCH  23  24
ATOM     24  C   UNL     1      -2.447  12.641  22.307  0.00  0.00    +0.000 A 
ATOM     25  C   UNL     1      -3.091  12.710  21.059  0.00  0.00    +0.000 A 
ATOM     26  C   UNL     1      -4.480  12.847  20.969  0.00  0.00    +0.000 A 
ATOM     27  C   UNL     1      -5.244  12.894  22.128  0.00  0.00    +0.000 A 
ATOM     28  C   UNL     1      -4.617  12.803  23.364  0.00  0.00    +0.000 A 
ATOM     29  F   UNL     1      -5.355  12.847  24.482  0.00  0.00    +0.000 F 
ATOM     30  C   UNL     1      -3.232  12.679  23.466  0.00  0.00    +0.000 A 
ENDBRANCH  23  24
ENDBRANCH  21  23
ENDBRANCH   4  19
TORSDOF 5
ENDMDL
