MODEL 1
REMARK VINA RESULT:      -9.1      0.000      0.000
REMARK  Name = 
REMARK  6 active torsions:
REMARK  status: ('A' for Active; 'I' for Inactive)
REMARK    1  A    between atoms: C_1  and  N_2
REMARK    2  A    between atoms: C_8  and  S_9
REMARK    3  A    between atoms: S_9  and  N_12
REMARK    4  A    between atoms: N_12  and  C_13
REMARK    5  A    between atoms: C_18  and  C_19
REMARK    6  A    between atoms: C_19  and  O_21
REMARK                            x       y       z     vdW  Elec       q    Type
REMARK                         _______ _______ _______ _____ _____    ______ ____
ROOT
ATOM      1  N   UNL     1       5.315   3.692  18.960  0.00  0.00    +0.000 N 
ATOM      2  H   UNL     1       5.653   2.759  19.225  0.00  0.00    +0.000 HD
ENDROOT
BRANCH   1   3
ATOM      3  C   UNL     1       5.937   4.184  17.747  0.00  0.00    +0.000 A 
ATOM      4  C   UNL     1       5.515   3.670  16.514  0.00  0.00    +0.000 A 
ATOM      5  C   UNL     1       6.124   4.104  15.332  0.00  0.00    +0.000 A 
ATOM      6  C   UNL     1       7.090   5.112  15.363  0.00  0.00    +0.000 A 
ATOM      7  C   UNL     1       7.493   5.649  16.583  0.00  0.00    +0.000 A 
ATOM      8  C   UNL     1       6.936   5.172  17.780  0.00  0.00    +0.000 A 
ATOM      9  O   UNL     1       7.713   5.595  14.243  0.00  0.00    +0.000 OA
ATOM     10  C   UNL     1       7.066   5.167  13.039  0.00  0.00    +0.000 C 
ATOM     11  C   UNL     1       6.694   3.697  13.123  0.00  0.00    +0.000 C 
ATOM     12  O   UNL     1       5.739   3.479  14.171  0.00  0.00    +0.000 OA
BRANCH   8  13
ATOM     13  C   UNL     1       7.509   5.703  19.040  0.00  0.00    +0.000 C 
ATOM     14  O   UNL     1       7.305   5.199  20.129  0.00  0.00    +0.000 OA
BRANCH  13  15
ATOM     15  O   UNL     1       8.199   6.853  18.880  0.00  0.00    +0.000 OA
ATOM     16  H   UNL     1       8.624   7.171  19.703  0.00  0.00    +0.000 HD
ENDBRANCH  13  15
ENDBRANCH   8  13
ENDBRANCH   1   3
BRANCH   1  17
ATOM     17  S   UNL     1       3.604   3.504  18.878  0.00  0.00    +0.000 S 
ATOM     18  O   UNL     1       3.281   2.644  19.997  0.00  0.00    +0.000 OA
ATOM     19  O   UNL     1       3.210   3.176  17.527  0.00  0.00    +0.000 OA
BRANCH  17  27
ATOM     20  C   UNL     1       0.576   9.480  20.870  0.00  0.00    +0.000 C 
ATOM     21  N   UNL     1       1.328   8.901  19.789  0.00  0.00    +0.000 N 
ATOM     22  C   UNL     1       1.622   9.567  18.594  0.00  0.00    +0.000 C 
ATOM     23  O   UNL     1       1.308  10.708  18.290  0.00  0.00    +0.000 OA
ATOM     24  C   UNL     1       2.413   8.595  17.713  0.00  0.00    +0.000 C 
ATOM     25  C   UNL     1       2.487   7.364  18.568  0.00  0.00    +0.000 A 
ATOM     26  C   UNL     1       3.066   6.136  18.283  0.00  0.00    +0.000 A 
ATOM     27  C   UNL     1       2.993   5.136  19.260  0.00  0.00    +0.000 A 
ATOM     28  C   UNL     1       2.328   5.369  20.483  0.00  0.00    +0.000 A 
ATOM     29  C   UNL     1       1.747   6.618  20.751  0.00  0.00    +0.000 A 
ATOM     30  C   UNL     1       1.837   7.599  19.782  0.00  0.00    +0.000 A 
ENDBRANCH  17  27
ENDBRANCH   1  17
TORSDOF 5
ENDMDL
MODEL 2
REMARK VINA RESULT:      -8.9      0.862      1.581
REMARK  Name = 
REMARK  6 active torsions:
REMARK  status: ('A' for Active; 'I' for Inactive)
REMARK    1  A    between atoms: C_1  and  N_2
REMARK    2  A    between atoms: C_8  and  S_9
REMARK    3  A    between atoms: S_9  and  N_12
REMARK    4  A    between atoms: N_12  and  C_13
REMARK    5  A    between atoms: C_18  and  C_19
REMARK    6  A    between atoms: C_19  and  O_21
REMARK                            x       y       z     vdW  Elec       q    Type
REMARK                         _______ _______ _______ _____ _____    ______ ____
ROOT
ATOM      1  N   UNL     1       5.059   4.279  19.268  0.00  0.00    +0.000 N 
ATOM      2  H   UNL     1       5.407   3.425  19.721  0.00  0.00    +0.000 HD
ENDROOT
BRANCH   1   3
ATOM      3  C   UNL     1       5.743   4.564  18.022  0.00  0.00    +0.000 A 
ATOM      4  C   UNL     1       5.201   4.077  16.826  0.00  0.00    +0.000 A 
ATOM      5  C   UNL     1       5.861   4.310  15.615  0.00  0.00    +0.000 A 
ATOM      6  C   UNL     1       7.013   5.101  15.579  0.00  0.00    +0.000 A 
ATOM      7  C   UNL     1       7.540   5.613  16.761  0.00  0.00    +0.000 A 
ATOM      8  C   UNL     1       6.922   5.328  17.989  0.00  0.00    +0.000 A 
ATOM      9  O   UNL     1       7.698   5.382  14.427  0.00  0.00    +0.000 OA
ATOM     10  C   UNL     1       6.953   5.027  13.256  0.00  0.00    +0.000 C 
ATOM     11  C   UNL     1       6.293   3.670  13.430  0.00  0.00    +0.000 C 
ATOM     12  O   UNL     1       5.335   3.712  14.498  0.00  0.00    +0.000 OA
BRANCH   8  13
ATOM     13  C   UNL     1       7.617   5.803  19.210  0.00  0.00    +0.000 C 
ATOM     14  O   UNL     1       7.465   5.289  20.304  0.00  0.00    +0.000 OA
BRANCH  13  15
ATOM     15  O   UNL     1       8.357   6.915  19.015  0.00  0.00    +0.000 OA
ATOM     16  H   UNL     1       7.975   7.526  18.352  0.00  0.00    +0.000 HD
ENDBRANCH  13  15
ENDBRANCH   8  13
ENDBRANCH   1   3
BRANCH   1  17
ATOM     17  S   UNL     1       3.363   4.011  19.123  0.00  0.00    +0.000 S 
ATOM     18  O   UNL     1       2.989   3.381  20.372  0.00  0.00    +0.000 OA
ATOM     19  O   UNL     1       3.069   3.403  17.846  0.00  0.00    +0.000 OA
BRANCH  17  27
ATOM     20  C   UNL     1       1.374  10.689  18.578  0.00  0.00    +0.000 C 
ATOM     21  N   UNL     1       1.358   9.576  19.490  0.00  0.00    +0.000 N 
ATOM     22  C   UNL     1       0.875   9.646  20.801  0.00  0.00    +0.000 C 
ATOM     23  O   UNL     1       0.399  10.623  21.360  0.00  0.00    +0.000 OA
ATOM     24  C   UNL     1       1.058   8.261  21.428  0.00  0.00    +0.000 C 
ATOM     25  C   UNL     1       1.690   7.478  20.316  0.00  0.00    +0.000 A 
ATOM     26  C   UNL     1       2.113   6.157  20.307  0.00  0.00    +0.000 A 
ATOM     27  C   UNL     1       2.684   5.661  19.129  0.00  0.00    +0.000 A 
ATOM     28  C   UNL     1       2.844   6.491  17.999  0.00  0.00    +0.000 A 
ATOM     29  C   UNL     1       2.412   7.826  18.029  0.00  0.00    +0.000 A 
ATOM     30  C   UNL     1       1.840   8.298  19.194  0.00  0.00    +0.000 A 
ENDBRANCH  17  27
ENDBRANCH   1  17
TORSDOF 5
ENDMDL
MODEL 3
REMARK VINA RESULT:      -8.8      3.951      8.760
REMARK  Name = 
REMARK  6 active torsions:
REMARK  status: ('A' for Active; 'I' for Inactive)
REMARK    1  A    between atoms: C_1  and  N_2
REMARK    2  A    between atoms: C_8  and  S_9
REMARK    3  A    between atoms: S_9  and  N_12
REMARK    4  A    between atoms: N_12  and  C_13
REMARK    5  A    between atoms: C_18  and  C_19
REMARK    6  A    between atoms: C_19  and  O_21
REMARK                            x       y       z     vdW  Elec       q    Type
REMARK                         _______ _______ _______ _____ _____    ______ ____
ROOT
ATOM      1  N   UNL     1       1.120  10.200  20.173  0.00  0.00    +0.000 N 
ATOM      2  H   UNL     1       1.763   9.821  19.467  0.00  0.00    +0.000 HD
ENDROOT
BRANCH   1   3
ATOM      3  C   UNL     1      -0.128  10.660  19.598  0.00  0.00    +0.000 A 
ATOM      4  C   UNL     1      -0.582  10.074  18.409  0.00  0.00    +0.000 A 
ATOM      5  C   UNL     1      -1.766  10.525  17.817  0.00  0.00    +0.000 A 
ATOM      6  C   UNL     1      -2.547  11.495  18.449  0.00  0.00    +0.000 A 
ATOM      7  C   UNL     1      -2.117  12.061  19.647  0.00  0.00    +0.000 A 
ATOM      8  C   UNL     1      -0.896  11.663  20.214  0.00  0.00    +0.000 A 
ATOM      9  O   UNL     1      -3.725  11.969  17.934  0.00  0.00    +0.000 OA
ATOM     10  C   UNL     1      -4.200  11.164  16.848  0.00  0.00    +0.000 C 
ATOM     11  C   UNL     1      -3.061  10.794  15.914  0.00  0.00    +0.000 C 
ATOM     12  O   UNL     1      -2.094   9.985  16.599  0.00  0.00    +0.000 OA
BRANCH   8  13
ATOM     13  C   UNL     1      -0.449  12.403  21.418  0.00  0.00    +0.000 C 
ATOM     14  O   UNL     1       0.018  13.526  21.374  0.00  0.00    +0.000 OA
BRANCH  13  15
ATOM     15  O   UNL     1      -0.518  11.679  22.556  0.00  0.00    +0.000 OA
ATOM     16  H   UNL     1      -0.652  12.225  23.358  0.00  0.00    +0.000 HD
ENDBRANCH  13  15
ENDBRANCH   8  13
ENDBRANCH   1   3
BRANCH   1  17
ATOM     17  S   UNL     1       0.967   8.923  21.321  0.00  0.00    +0.000 S 
ATOM     18  O   UNL     1      -0.460   8.716  21.442  0.00  0.00    +0.000 OA
ATOM     19  O   UNL     1       1.798   9.195  22.471  0.00  0.00    +0.000 OA
BRANCH  17  27
ATOM     20  C   UNL     1       3.448   3.862  17.187  0.00  0.00    +0.000 C 
ATOM     21  N   UNL     1       2.816   4.071  18.462  0.00  0.00    +0.000 N 
ATOM     22  C   UNL     1       2.414   3.037  19.315  0.00  0.00    +0.000 C 
ATOM     23  O   UNL     1       2.538   1.835  19.127  0.00  0.00    +0.000 OA
ATOM     24  C   UNL     1       1.771   3.685  20.545  0.00  0.00    +0.000 C 
ATOM     25  C   UNL     1       1.873   5.149  20.236  0.00  0.00    +0.000 A 
ATOM     26  C   UNL     1       1.429   6.232  20.980  0.00  0.00    +0.000 A 
ATOM     27  C   UNL     1       1.644   7.514  20.460  0.00  0.00    +0.000 A 
ATOM     28  C   UNL     1       2.270   7.690  19.207  0.00  0.00    +0.000 A 
ATOM     29  C   UNL     1       2.710   6.581  18.469  0.00  0.00    +0.000 A 
ATOM     30  C   UNL     1       2.501   5.323  19.000  0.00  0.00    +0.000 A 
ENDBRANCH  17  27
ENDBRANCH   1  17
TORSDOF 5
ENDMDL
MODEL 4
REMARK VINA RESULT:      -8.6      3.386      8.506
REMARK  Name = 
REMARK  6 active torsions:
REMARK  status: ('A' for Active; 'I' for Inactive)
REMARK    1  A    between atoms: C_1  and  N_2
REMARK    2  A    between atoms: C_8  and  S_9
REMARK    3  A    between atoms: S_9  and  N_12
REMARK    4  A    between atoms: N_12  and  C_13
REMARK    5  A    between atoms: C_18  and  C_19
REMARK    6  A    between atoms: C_19  and  O_21
REMARK                            x       y       z     vdW  Elec       q    Type
REMARK                         _______ _______ _______ _____ _____    ______ ____
ROOT
ATOM      1  N   UNL     1       1.146   9.989  19.944  0.00  0.00    +0.000 N 
ATOM      2  H   UNL     1       1.749   9.584  19.217  0.00  0.00    +0.000 HD
ENDROOT
BRANCH   1   3
ATOM      3  C   UNL     1      -0.102  10.497  19.410  0.00  0.00    +0.000 A 
ATOM      4  C   UNL     1      -0.598   9.956  18.216  0.00  0.00    +0.000 A 
ATOM      5  C   UNL     1      -1.782  10.454  17.664  0.00  0.00    +0.000 A 
ATOM      6  C   UNL     1      -2.523  11.428  18.339  0.00  0.00    +0.000 A 
ATOM      7  C   UNL     1      -2.051  11.948  19.541  0.00  0.00    +0.000 A 
ATOM      8  C   UNL     1      -0.829  11.503  20.070  0.00  0.00    +0.000 A 
ATOM      9  O   UNL     1      -3.698  11.946  17.863  0.00  0.00    +0.000 OA
ATOM     10  C   UNL     1      -4.219  11.184  16.767  0.00  0.00    +0.000 C 
ATOM     11  C   UNL     1      -3.111  10.810  15.798  0.00  0.00    +0.000 C 
ATOM     12  O   UNL     1      -2.151   9.957  16.439  0.00  0.00    +0.000 OA
BRANCH   8  13
ATOM     13  C   UNL     1      -0.336  12.197  21.283  0.00  0.00    +0.000 C 
ATOM     14  O   UNL     1       0.014  13.363  21.287  0.00  0.00    +0.000 OA
BRANCH  13  15
ATOM     15  O   UNL     1      -0.219  11.390  22.360  0.00  0.00    +0.000 OA
ATOM     16  H   UNL     1      -0.870  11.585  23.065  0.00  0.00    +0.000 HD
ENDBRANCH  13  15
ENDBRANCH   8  13
ENDBRANCH   1   3
BRANCH   1  17
ATOM     17  S   UNL     1       0.981   8.719  21.098  0.00  0.00    +0.000 S 
ATOM     18  O   UNL     1      -0.446   8.492  21.184  0.00  0.00    +0.000 OA
ATOM     19  O   UNL     1       1.777   9.012  22.267  0.00  0.00    +0.000 OA
BRANCH  17  27
ATOM     20  C   UNL     1       3.915   2.859  18.670  0.00  0.00    +0.000 C 
ATOM     21  N   UNL     1       3.752   4.253  18.357  0.00  0.00    +0.000 N 
ATOM     22  C   UNL     1       4.351   4.886  17.262  0.00  0.00    +0.000 C 
ATOM     23  O   UNL     1       5.075   4.374  16.421  0.00  0.00    +0.000 OA
ATOM     24  C   UNL     1       3.940   6.361  17.307  0.00  0.00    +0.000 C 
ATOM     25  C   UNL     1       3.082   6.424  18.536  0.00  0.00    +0.000 A 
ATOM     26  C   UNL     1       2.446   7.520  19.101  0.00  0.00    +0.000 A 
ATOM     27  C   UNL     1       1.700   7.313  20.267  0.00  0.00    +0.000 A 
ATOM     28  C   UNL     1       1.622   6.033  20.858  0.00  0.00    +0.000 A 
ATOM     29  C   UNL     1       2.275   4.938  20.271  0.00  0.00    +0.000 A 
ATOM     30  C   UNL     1       2.999   5.156  19.114  0.00  0.00    +0.000 A 
ENDBRANCH  17  27
ENDBRANCH   1  17
TORSDOF 5
ENDMDL
MODEL 5
REMARK VINA RESULT:      -8.4      0.844      1.102
REMARK  Name = 
REMARK  6 active torsions:
REMARK  status: ('A' for Active; 'I' for Inactive)
REMARK    1  A    between atoms: C_1  and  N_2
REMARK    2  A    between atoms: C_8  and  S_9
REMARK    3  A    between atoms: S_9  and  N_12
REMARK    4  A    between atoms: N_12  and  C_13
REMARK    5  A    between atoms: C_18  and  C_19
REMARK    6  A    between atoms: C_19  and  O_21
REMARK                            x       y       z     vdW  Elec       q    Type
REMARK                         _______ _______ _______ _____ _____    ______ ____
ROOT
ATOM      1  N   UNL     1       4.836   4.731  19.004  0.00  0.00    +0.000 N 
ATOM      2  H   UNL     1       5.090   3.883  19.525  0.00  0.00    +0.000 HD
ENDROOT
BRANCH   1   3
ATOM      3  C   UNL     1       5.587   4.872  17.773  0.00  0.00    +0.000 A 
ATOM      4  C   UNL     1       5.041   4.367  16.586  0.00  0.00    +0.000 A 
ATOM      5  C   UNL     1       5.762   4.460  15.391  0.00  0.00    +0.000 A 
ATOM      6  C   UNL     1       6.986   5.133  15.355  0.00  0.00    +0.000 A 
ATOM      7  C   UNL     1       7.520   5.664  16.526  0.00  0.00    +0.000 A 
ATOM      8  C   UNL     1       6.836   5.516  17.742  0.00  0.00    +0.000 A 
ATOM      9  O   UNL     1       7.735   5.276  14.217  0.00  0.00    +0.000 OA
ATOM     10  C   UNL     1       6.999   4.922  13.039  0.00  0.00    +0.000 C 
ATOM     11  C   UNL     1       6.203   3.649  13.265  0.00  0.00    +0.000 C 
ATOM     12  O   UNL     1       5.218   3.848  14.290  0.00  0.00    +0.000 OA
BRANCH   8  13
ATOM     13  C   UNL     1       7.531   5.996  18.960  0.00  0.00    +0.000 C 
ATOM     14  O   UNL     1       8.230   6.993  18.979  0.00  0.00    +0.000 OA
BRANCH  13  15
ATOM     15  O   UNL     1       7.397   5.172  20.021  0.00  0.00    +0.000 OA
ATOM     16  H   UNL     1       6.688   4.505  19.911  0.00  0.00    +0.000 HD
ENDBRANCH  13  15
ENDBRANCH   8  13
ENDBRANCH   1   3
BRANCH   1  17
ATOM     17  S   UNL     1       3.128   4.600  18.806  0.00  0.00    +0.000 S 
ATOM     18  O   UNL     1       2.717   3.663  19.830  0.00  0.00    +0.000 OA
ATOM     19  O   UNL     1       2.810   4.393  17.412  0.00  0.00    +0.000 OA
BRANCH  17  27
ATOM     20  C   UNL     1       0.193  10.480  21.185  0.00  0.00    +0.000 C 
ATOM     21  N   UNL     1       0.892   9.947  20.046  0.00  0.00    +0.000 N 
ATOM     22  C   UNL     1       1.127  10.663  18.867  0.00  0.00    +0.000 C 
ATOM     23  O   UNL     1       0.797  11.815  18.625  0.00  0.00    +0.000 OA
ATOM     24  C   UNL     1       1.876   9.730  17.910  0.00  0.00    +0.000 C 
ATOM     25  C   UNL     1       1.993   8.466  18.709  0.00  0.00    +0.000 A 
ATOM     26  C   UNL     1       2.558   7.252  18.346  0.00  0.00    +0.000 A 
ATOM     27  C   UNL     1       2.534   6.213  19.284  0.00  0.00    +0.000 A 
ATOM     28  C   UNL     1       1.929   6.394  20.547  0.00  0.00    +0.000 A 
ATOM     29  C   UNL     1       1.360   7.629  20.893  0.00  0.00    +0.000 A 
ATOM     30  C   UNL     1       1.402   8.648  19.961  0.00  0.00    +0.000 A 
ENDBRANCH  17  27
ENDBRANCH   1  17
TORSDOF 5
ENDMDL
MODEL 6
REMARK VINA RESULT:      -8.3      3.997     10.165
REMARK  Name = 
REMARK  6 active torsions:
REMARK  status: ('A' for Active; 'I' for Inactive)
REMARK    1  A    between atoms: C_1  and  N_2
REMARK    2  A    between atoms: C_8  and  S_9
REMARK    3  A    between atoms: S_9  and  N_12
REMARK    4  A    between atoms: N_12  and  C_13
REMARK    5  A    between atoms: C_18  and  C_19
REMARK    6  A    between atoms: C_19  and  O_21
REMARK                            x       y       z     vdW  Elec       q    Type
REMARK                         _______ _______ _______ _____ _____    ______ ____
ROOT
ATOM      1  N   UNL     1       0.933  11.160  20.907  0.00  0.00    +0.000 N 
ATOM      2  H   UNL     1       1.693  11.846  20.813  0.00  0.00    +0.000 HD
ENDROOT
BRANCH   1   3
ATOM      3  C   UNL     1      -0.203  11.688  21.636  0.00  0.00    +0.000 A 
ATOM      4  C   UNL     1      -0.707  12.947  21.286  0.00  0.00    +0.000 A 
ATOM      5  C   UNL     1      -1.780  13.492  21.997  0.00  0.00    +0.000 A 
ATOM      6  C   UNL     1      -2.414  12.751  22.999  0.00  0.00    +0.000 A 
ATOM      7  C   UNL     1      -1.937  11.485  23.331  0.00  0.00    +0.000 A 
ATOM      8  C   UNL     1      -0.818  10.958  22.669  0.00  0.00    +0.000 A 
ATOM      9  O   UNL     1      -3.480  13.216  23.722  0.00  0.00    +0.000 OA
ATOM     10  C   UNL     1      -4.043  14.402  23.148  0.00  0.00    +0.000 C 
ATOM     11  C   UNL     1      -2.949  15.361  22.713  0.00  0.00    +0.000 C 
ATOM     12  O   UNL     1      -2.151  14.773  21.675  0.00  0.00    +0.000 OA
BRANCH   8  13
ATOM     13  C   UNL     1      -0.297   9.663  23.168  0.00  0.00    +0.000 C 
ATOM     14  O   UNL     1       0.715   9.567  23.840  0.00  0.00    +0.000 OA
BRANCH  13  15
ATOM     15  O   UNL     1      -0.993   8.593  22.729  0.00  0.00    +0.000 OA
ATOM     16  H   UNL     1      -1.432   8.741  21.866  0.00  0.00    +0.000 HD
ENDBRANCH  13  15
ENDBRANCH   8  13
ENDBRANCH   1   3
BRANCH   1  17
ATOM     17  S   UNL     1       0.601  10.685  19.284  0.00  0.00    +0.000 S 
ATOM     18  O   UNL     1       1.243  11.699  18.473  0.00  0.00    +0.000 OA
ATOM     19  O   UNL     1      -0.802  10.372  19.141  0.00  0.00    +0.000 OA
BRANCH  17  27
ATOM     20  C   UNL     1       4.126   4.871  17.665  0.00  0.00    +0.000 C 
ATOM     21  N   UNL     1       3.331   5.456  18.712  0.00  0.00    +0.000 N 
ATOM     22  C   UNL     1       2.960   4.782  19.881  0.00  0.00    +0.000 C 
ATOM     23  O   UNL     1       3.247   3.637  20.195  0.00  0.00    +0.000 OA
ATOM     24  C   UNL     1       2.107   5.748  20.711  0.00  0.00    +0.000 C 
ATOM     25  C   UNL     1       2.069   6.975  19.849  0.00  0.00    +0.000 A 
ATOM     26  C   UNL     1       1.417   8.178  20.072  0.00  0.00    +0.000 A 
ATOM     27  C   UNL     1       1.535   9.177  19.098  0.00  0.00    +0.000 A 
ATOM     28  C   UNL     1       2.276   8.950  17.917  0.00  0.00    +0.000 A 
ATOM     29  C   UNL     1       2.927   7.724  17.710  0.00  0.00    +0.000 A 
ATOM     30  C   UNL     1       2.810   6.753  18.686  0.00  0.00    +0.000 A 
ENDBRANCH  17  27
ENDBRANCH   1  17
TORSDOF 5
ENDMDL
MODEL 7
REMARK VINA RESULT:      -8.2      3.663      9.700
REMARK  Name = 
REMARK  6 active torsions:
REMARK  status: ('A' for Active; 'I' for Inactive)
REMARK    1  A    between atoms: C_1  and  N_2
REMARK    2  A    between atoms: C_8  and  S_9
REMARK    3  A    between atoms: S_9  and  N_12
REMARK    4  A    between atoms: N_12  and  C_13
REMARK    5  A    between atoms: C_18  and  C_19
REMARK    6  A    between atoms: C_19  and  O_21
REMARK                            x       y       z     vdW  Elec       q    Type
REMARK                         _______ _______ _______ _____ _____    ______ ____
ROOT
ATOM      1  N   UNL     1       0.833   9.949  20.149  0.00  0.00    +0.000 N 
ATOM      2  H   UNL     1       0.706   9.470  19.249  0.00  0.00    +0.000 HD
ENDROOT
BRANCH   1   3
ATOM      3  C   UNL     1      -0.189  10.947  20.396  0.00  0.00    +0.000 A 
ATOM      4  C   UNL     1      -0.113  11.720  21.562  0.00  0.00    +0.000 A 
ATOM      5  C   UNL     1      -1.106  12.665  21.838  0.00  0.00    +0.000 A 
ATOM      6  C   UNL     1      -2.127  12.908  20.916  0.00  0.00    +0.000 A 
ATOM      7  C   UNL     1      -2.191  12.164  19.741  0.00  0.00    +0.000 A 
ATOM      8  C   UNL     1      -1.238  11.166  19.486  0.00  0.00    +0.000 A 
ATOM      9  O   UNL     1      -3.120  13.830  21.116  0.00  0.00    +0.000 OA
ATOM     10  C   UNL     1      -2.832  14.702  22.216  0.00  0.00    +0.000 C 
ATOM     11  C   UNL     1      -2.282  13.918  23.394  0.00  0.00    +0.000 C 
ATOM     12  O   UNL     1      -1.029  13.307  23.049  0.00  0.00    +0.000 OA
BRANCH   8  13
ATOM     13  C   UNL     1      -1.450  10.335  18.277  0.00  0.00    +0.000 C 
ATOM     14  O   UNL     1      -2.516   9.810  18.010  0.00  0.00    +0.000 OA
BRANCH  13  15
ATOM     15  O   UNL     1      -0.329  10.135  17.553  0.00  0.00    +0.000 OA
ATOM     16  H   UNL     1      -0.448  10.302  16.595  0.00  0.00    +0.000 HD
ENDBRANCH  13  15
ENDBRANCH   8  13
ENDBRANCH   1   3
BRANCH   1  17
ATOM     17  S   UNL     1       0.889   8.664  21.297  0.00  0.00    +0.000 S 
ATOM     18  O   UNL     1      -0.497   8.291  21.489  0.00  0.00    +0.000 OA
ATOM     19  O   UNL     1       1.739   9.032  22.405  0.00  0.00    +0.000 OA
BRANCH  17  27
ATOM     20  C   UNL     1       3.797   3.963  17.020  0.00  0.00    +0.000 C 
ATOM     21  N   UNL     1       3.132   4.075  18.291  0.00  0.00    +0.000 N 
ATOM     22  C   UNL     1       2.795   2.981  19.096  0.00  0.00    +0.000 C 
ATOM     23  O   UNL     1       3.010   1.801  18.865  0.00  0.00    +0.000 OA
ATOM     24  C   UNL     1       2.087   3.532  20.338  0.00  0.00    +0.000 C 
ATOM     25  C   UNL     1       2.086   5.011  20.086  0.00  0.00    +0.000 A 
ATOM     26  C   UNL     1       1.553   6.029  20.862  0.00  0.00    +0.000 A 
ATOM     27  C   UNL     1       1.680   7.343  20.396  0.00  0.00    +0.000 A 
ATOM     28  C   UNL     1       2.311   7.613  19.162  0.00  0.00    +0.000 A 
ATOM     29  C   UNL     1       2.842   6.568  18.390  0.00  0.00    +0.000 A 
ATOM     30  C   UNL     1       2.718   5.278  18.869  0.00  0.00    +0.000 A 
ENDBRANCH  17  27
ENDBRANCH   1  17
TORSDOF 5
ENDMDL
MODEL 8
REMARK VINA RESULT:      -8.0      2.444      4.129
REMARK  Name = 
REMARK  6 active torsions:
REMARK  status: ('A' for Active; 'I' for Inactive)
REMARK    1  A    between atoms: C_1  and  N_2
REMARK    2  A    between atoms: C_8  and  S_9
REMARK    3  A    between atoms: S_9  and  N_12
REMARK    4  A    between atoms: N_12  and  C_13
REMARK    5  A    between atoms: C_18  and  C_19
REMARK    6  A    between atoms: C_19  and  O_21
REMARK                            x       y       z     vdW  Elec       q    Type
REMARK                         _______ _______ _______ _____ _____    ______ ____
ROOT
ATOM      1  N   UNL     1       1.845   5.490  18.441  0.00  0.00    +0.000 N 
ATOM      2  H   UNL     1       1.520   6.391  18.067  0.00  0.00    +0.000 HD
ENDROOT
BRANCH   1   3
ATOM      3  C   UNL     1       2.965   4.952  17.695  0.00  0.00    +0.000 A 
ATOM      4  C   UNL     1       3.887   5.839  17.125  0.00  0.00    +0.000 A 
ATOM      5  C   UNL     1       4.957   5.345  16.372  0.00  0.00    +0.000 A 
ATOM      6  C   UNL     1       5.164   3.968  16.257  0.00  0.00    +0.000 A 
ATOM      7  C   UNL     1       4.268   3.080  16.846  0.00  0.00    +0.000 A 
ATOM      8  C   UNL     1       3.154   3.567  17.547  0.00  0.00    +0.000 A 
ATOM      9  O   UNL     1       6.200   3.417  15.550  0.00  0.00    +0.000 OA
ATOM     10  C   UNL     1       7.190   4.391  15.196  0.00  0.00    +0.000 C 
ATOM     11  C   UNL     1       6.534   5.669  14.704  0.00  0.00    +0.000 C 
ATOM     12  O   UNL     1       5.758   6.271  15.751  0.00  0.00    +0.000 OA
BRANCH   8  13
ATOM     13  C   UNL     1       2.181   2.560  18.034  0.00  0.00    +0.000 C 
ATOM     14  O   UNL     1       0.992   2.790  18.160  0.00  0.00    +0.000 OA
BRANCH  13  15
ATOM     15  O   UNL     1       2.750   1.396  18.416  0.00  0.00    +0.000 OA
ATOM     16  H   UNL     1       3.703   1.339  18.198  0.00  0.00    +0.000 HD
ENDBRANCH  13  15
ENDBRANCH   8  13
ENDBRANCH   1   3
BRANCH   1  17
ATOM     17  S   UNL     1       2.167   5.822  20.101  0.00  0.00    +0.000 S 
ATOM     18  O   UNL     1       3.607   5.959  20.169  0.00  0.00    +0.000 OA
ATOM     19  O   UNL     1       1.451   4.887  20.937  0.00  0.00    +0.000 OA
BRANCH  17  27
ATOM     20  C   UNL     1       0.097  12.483  20.547  0.00  0.00    +0.000 C 
ATOM     21  N   UNL     1       0.052  11.236  21.263  0.00  0.00    +0.000 N 
ATOM     22  C   UNL     1      -0.499  11.086  22.540  0.00  0.00    +0.000 C 
ATOM     23  O   UNL     1      -1.020  11.954  23.225  0.00  0.00    +0.000 OA
ATOM     24  C   UNL     1      -0.325   9.618  22.941  0.00  0.00    +0.000 C 
ATOM     25  C   UNL     1       0.377   9.034  21.752  0.00  0.00    +0.000 A 
ATOM     26  C   UNL     1       0.822   7.735  21.550  0.00  0.00    +0.000 A 
ATOM     27  C   UNL     1       1.461   7.443  20.340  0.00  0.00    +0.000 A 
ATOM     28  C   UNL     1       1.666   8.449  19.370  0.00  0.00    +0.000 A 
ATOM     29  C   UNL     1       1.210   9.757  19.594  0.00  0.00    +0.000 A 
ATOM     30  C   UNL     1       0.571  10.027  20.789  0.00  0.00    +0.000 A 
ENDBRANCH  17  27
ENDBRANCH   1  17
TORSDOF 5
ENDMDL
MODEL 9
REMARK VINA RESULT:      -8.0      2.050      3.016
REMARK  Name = 
REMARK  6 active torsions:
REMARK  status: ('A' for Active; 'I' for Inactive)
REMARK    1  A    between atoms: C_1  and  N_2
REMARK    2  A    between atoms: C_8  and  S_9
REMARK    3  A    between atoms: S_9  and  N_12
REMARK    4  A    between atoms: N_12  and  C_13
REMARK    5  A    between atoms: C_18  and  C_19
REMARK    6  A    between atoms: C_19  and  O_21
REMARK                            x       y       z     vdW  Elec       q    Type
REMARK                         _______ _______ _______ _____ _____    ______ ____
ROOT
ATOM      1  N   UNL     1       3.878   5.677  19.917  0.00  0.00    +0.000 N 
ATOM      2  H   UNL     1       4.164   5.175  20.767  0.00  0.00    +0.000 HD
ENDROOT
BRANCH   1   3
ATOM      3  C   UNL     1       4.442   5.097  18.715  0.00  0.00    +0.000 A 
ATOM      4  C   UNL     1       4.806   5.945  17.661  0.00  0.00    +0.000 A 
ATOM      5  C   UNL     1       5.320   5.406  16.477  0.00  0.00    +0.000 A 
ATOM      6  C   UNL     1       5.559   4.033  16.371  0.00  0.00    +0.000 A 
ATOM      7  C   UNL     1       5.228   3.188  17.427  0.00  0.00    +0.000 A 
ATOM      8  C   UNL     1       4.648   3.712  18.593  0.00  0.00    +0.000 A 
ATOM      9  O   UNL     1       6.076   3.442  15.249  0.00  0.00    +0.000 OA
ATOM     10  C   UNL     1       6.606   4.404  14.329  0.00  0.00    +0.000 C 
ATOM     11  C   UNL     1       5.670   5.592  14.194  0.00  0.00    +0.000 C 
ATOM     12  O   UNL     1       5.551   6.282  15.446  0.00  0.00    +0.000 OA
BRANCH   8  13
ATOM     13  C   UNL     1       4.208   2.733  19.616  0.00  0.00    +0.000 C 
ATOM     14  O   UNL     1       4.985   2.092  20.301  0.00  0.00    +0.000 OA
BRANCH  13  15
ATOM     15  O   UNL     1       2.872   2.548  19.650  0.00  0.00    +0.000 OA
ATOM     16  H   UNL     1       2.380   3.320  19.999  0.00  0.00    +0.000 HD
ENDBRANCH  13  15
ENDBRANCH   8  13
ENDBRANCH   1   3
BRANCH   1  17
ATOM     17  S   UNL     1       2.156   5.669  19.992  0.00  0.00    +0.000 S 
ATOM     18  O   UNL     1       1.852   5.034  21.257  0.00  0.00    +0.000 OA
ATOM     19  O   UNL     1       1.613   5.180  18.745  0.00  0.00    +0.000 OA
BRANCH  17  27
ATOM     20  C   UNL     1      -0.145  12.172  21.118  0.00  0.00    +0.000 C 
ATOM     21  N   UNL     1       0.542  11.370  20.141  0.00  0.00    +0.000 N 
ATOM     22  C   UNL     1       0.926  11.834  18.878  0.00  0.00    +0.000 C 
ATOM     23  O   UNL     1       0.756  12.955  18.421  0.00  0.00    +0.000 OA
ATOM     24  C   UNL     1       1.602  10.668  18.150  0.00  0.00    +0.000 C 
ATOM     25  C   UNL     1       1.518   9.560  19.158  0.00  0.00    +0.000 A 
ATOM     26  C   UNL     1       1.946   8.245  19.049  0.00  0.00    +0.000 A 
ATOM     27  C   UNL     1       1.743   7.398  20.144  0.00  0.00    +0.000 A 
ATOM     28  C   UNL     1       1.100   7.867  21.310  0.00  0.00    +0.000 A 
ATOM     29  C   UNL     1       0.672   9.200  21.400  0.00  0.00    +0.000 A 
ATOM     30  C   UNL     1       0.889  10.027  20.315  0.00  0.00    +0.000 A 
ENDBRANCH  17  27
ENDBRANCH   1  17
TORSDOF 5
ENDMDL
