MODEL 1
REMARK VINA RESULT:      -9.0      0.000      0.000
REMARK  Name = 
REMARK  2 active torsions:
REMARK  status: ('A' for Active; 'I' for Inactive)
REMARK    1  A    between atoms: C_2  and  C_12
REMARK    2  A    between atoms: N_3  and  C_4
REMARK                            x       y       z     vdW  Elec       q    Type
REMARK                         _______ _______ _______ _____ _____    ______ ____
ROOT
ATOM      1  O   UNL     1       7.066   4.393  17.169  0.00  0.00    +0.000 OA
ATOM      2  C   UNL     1       5.909   4.068  16.900  0.00  0.00    +0.000 C 
ATOM      3  N   UNL     1       5.371   3.961  15.635  0.00  0.00    +0.000 N 
ATOM      4  H   UNL     1       4.363   3.940  15.552  0.00  0.00    +0.000 HD
ENDROOT
BRANCH   2   5
ATOM      5  C   UNL     1       4.963   3.862  18.051  0.00  0.00    +0.000 A 
ATOM      6  C   UNL     1       3.725   4.376  18.111  0.00  0.00    +0.000 A 
ATOM      7  C   UNL     1       2.856   4.018  19.239  0.00  0.00    +0.000 A 
ATOM      8  C   UNL     1       1.552   4.509  19.323  0.00  0.00    +0.000 A 
ATOM      9  C   UNL     1       0.723   4.120  20.381  0.00  0.00    +0.000 A 
ATOM     10  C   UNL     1       1.192   3.242  21.359  0.00  0.00    +0.000 A 
ATOM     11  C   UNL     1       2.495   2.751  21.290  0.00  0.00    +0.000 A 
ATOM     12  C   UNL     1       3.320   3.139  20.231  0.00  0.00    +0.000 A 
ATOM     13  C   UNL     1       4.699   2.604  20.127  0.00  0.00    +0.000 A 
ATOM     14  O   UNL     1       5.159   1.837  20.965  0.00  0.00    +0.000 OA
ATOM     15  N   UNL     1       5.418   3.010  19.034  0.00  0.00    +0.000 N 
ATOM     16  H   UNL     1       6.345   2.607  18.913  0.00  0.00    +0.000 HD
ENDBRANCH   2   5
BRANCH   3  17
ATOM     17  C   UNL     1       6.101   4.103  14.433  0.00  0.00    +0.000 A 
ATOM     18  C   UNL     1       7.128   5.040  14.274  0.00  0.00    +0.000 A 
ATOM     19  C   UNL     1       7.752   5.194  13.040  0.00  0.00    +0.000 A 
ATOM     20  F   UNL     1       8.715   6.115  12.903  0.00  0.00    +0.000 F 
ATOM     21  C   UNL     1       7.389   4.418  11.953  0.00  0.00    +0.000 A 
ATOM     22  C   UNL     1       6.407   3.454  12.127  0.00  0.00    +0.000 A 
ATOM     23  F   UNL     1       6.050   2.688  11.087  0.00  0.00    +0.000 F 
ATOM     24  C   UNL     1       5.771   3.276  13.354  0.00  0.00    +0.000 A 
ENDBRANCH   3  17
TORSDOF 2
ENDMDL
MODEL 2
REMARK VINA RESULT:      -8.7      0.118      1.750
REMARK  Name = 
REMARK  2 active torsions:
REMARK  status: ('A' for Active; 'I' for Inactive)
REMARK    1  A    between atoms: C_2  and  C_12
REMARK    2  A    between atoms: N_3  and  C_4
REMARK                            x       y       z     vdW  Elec       q    Type
REMARK                         _______ _______ _______ _____ _____    ______ ____
ROOT
ATOM      1  O   UNL     1       6.962   4.401  17.062  0.00  0.00    +0.000 OA
ATOM      2  C   UNL     1       5.802   4.062  16.825  0.00  0.00    +0.000 C 
ATOM      3  N   UNL     1       5.234   3.941  15.574  0.00  0.00    +0.000 N 
ATOM      4  H   UNL     1       4.224   3.908  15.517  0.00  0.00    +0.000 HD
ENDROOT
BRANCH   2   5
ATOM      5  C   UNL     1       4.888   3.853  18.000  0.00  0.00    +0.000 A 
ATOM      6  C   UNL     1       3.644   4.348  18.086  0.00  0.00    +0.000 A 
ATOM      7  C   UNL     1       2.809   3.987  19.238  0.00  0.00    +0.000 A 
ATOM      8  C   UNL     1       1.499   4.459  19.350  0.00  0.00    +0.000 A 
ATOM      9  C   UNL     1       0.702   4.067  20.430  0.00  0.00    +0.000 A 
ATOM     10  C   UNL     1       1.209   3.206  21.405  0.00  0.00    +0.000 A 
ATOM     11  C   UNL     1       2.517   2.734  21.309  0.00  0.00    +0.000 A 
ATOM     12  C   UNL     1       3.310   3.126  20.227  0.00  0.00    +0.000 A 
ATOM     13  C   UNL     1       4.695   2.610  20.094  0.00  0.00    +0.000 A 
ATOM     14  O   UNL     1       5.187   1.859  20.927  0.00  0.00    +0.000 OA
ATOM     15  N   UNL     1       5.380   3.018  18.979  0.00  0.00    +0.000 N 
ATOM     16  H   UNL     1       6.311   2.627  18.840  0.00  0.00    +0.000 HD
ENDBRANCH   2   5
BRANCH   3  17
ATOM     17  C   UNL     1       5.932   4.084  14.353  0.00  0.00    +0.000 A 
ATOM     18  C   UNL     1       5.646   3.316  13.220  0.00  0.00    +0.000 A 
ATOM     19  C   UNL     1       6.425   3.440  12.074  0.00  0.00    +0.000 A 
ATOM     20  F   UNL     1       6.150   2.676  11.008  0.00  0.00    +0.000 F 
ATOM     21  C   UNL     1       7.481   4.333  12.019  0.00  0.00    +0.000 A 
ATOM     22  C   UNL     1       7.730   5.131  13.126  0.00  0.00    +0.000 A 
ATOM     23  F   UNL     1       8.743   6.007  13.088  0.00  0.00    +0.000 F 
ATOM     24  C   UNL     1       6.961   5.029  14.284  0.00  0.00    +0.000 A 
ENDBRANCH   3  17
TORSDOF 2
ENDMDL
MODEL 3
REMARK VINA RESULT:      -8.5      1.855      2.229
REMARK  Name = 
REMARK  2 active torsions:
REMARK  status: ('A' for Active; 'I' for Inactive)
REMARK    1  A    between atoms: C_2  and  C_12
REMARK    2  A    between atoms: N_3  and  C_4
REMARK                            x       y       z     vdW  Elec       q    Type
REMARK                         _______ _______ _______ _____ _____    ______ ____
ROOT
ATOM      1  O   UNL     1       5.028   6.468  15.879  0.00  0.00    +0.000 OA
ATOM      2  C   UNL     1       4.894   5.296  16.233  0.00  0.00    +0.000 C 
ATOM      3  N   UNL     1       5.327   4.186  15.540  0.00  0.00    +0.000 N 
ATOM      4  H   UNL     1       4.940   3.288  15.798  0.00  0.00    +0.000 HD
ENDROOT
BRANCH   2   5
ATOM      5  C   UNL     1       4.102   5.037  17.485  0.00  0.00    +0.000 A 
ATOM      6  C   UNL     1       4.015   3.843  18.090  0.00  0.00    +0.000 A 
ATOM      7  C   UNL     1       3.297   3.738  19.366  0.00  0.00    +0.000 A 
ATOM      8  C   UNL     1       3.209   2.518  20.040  0.00  0.00    +0.000 A 
ATOM      9  C   UNL     1       2.561   2.446  21.278  0.00  0.00    +0.000 A 
ATOM     10  C   UNL     1       1.998   3.590  21.847  0.00  0.00    +0.000 A 
ATOM     11  C   UNL     1       2.073   4.811  21.180  0.00  0.00    +0.000 A 
ATOM     12  C   UNL     1       2.722   4.881  19.945  0.00  0.00    +0.000 A 
ATOM     13  C   UNL     1       2.837   6.178  19.235  0.00  0.00    +0.000 A 
ATOM     14  O   UNL     1       2.352   7.208  19.689  0.00  0.00    +0.000 OA
ATOM     15  N   UNL     1       3.526   6.154  18.051  0.00  0.00    +0.000 N 
ATOM     16  H   UNL     1       3.666   7.046  17.579  0.00  0.00    +0.000 HD
ENDBRANCH   2   5
BRANCH   3  17
ATOM     17  C   UNL     1       6.097   4.224  14.354  0.00  0.00    +0.000 A 
ATOM     18  C   UNL     1       7.184   5.087  14.182  0.00  0.00    +0.000 A 
ATOM     19  C   UNL     1       7.849   5.143  12.961  0.00  0.00    +0.000 A 
ATOM     20  F   UNL     1       8.871   5.995  12.809  0.00  0.00    +0.000 F 
ATOM     21  C   UNL     1       7.467   4.339  11.901  0.00  0.00    +0.000 A 
ATOM     22  C   UNL     1       6.422   3.447  12.091  0.00  0.00    +0.000 A 
ATOM     23  F   UNL     1       6.045   2.655  11.078  0.00  0.00    +0.000 F 
ATOM     24  C   UNL     1       5.744   3.368  13.306  0.00  0.00    +0.000 A 
ENDBRANCH   3  17
TORSDOF 2
ENDMDL
MODEL 4
REMARK VINA RESULT:      -8.2      5.646      8.659
REMARK  Name = 
REMARK  2 active torsions:
REMARK  status: ('A' for Active; 'I' for Inactive)
REMARK    1  A    between atoms: C_2  and  C_12
REMARK    2  A    between atoms: N_3  and  C_4
REMARK                            x       y       z     vdW  Elec       q    Type
REMARK                         _______ _______ _______ _____ _____    ______ ____
ROOT
ATOM      1  O   UNL     1       1.583   6.022  20.763  0.00  0.00    +0.000 OA
ATOM      2  C   UNL     1       2.189   6.741  19.968  0.00  0.00    +0.000 C 
ATOM      3  N   UNL     1       1.966   8.086  19.760  0.00  0.00    +0.000 N 
ATOM      4  H   UNL     1       2.340   8.501  18.916  0.00  0.00    +0.000 HD
ENDROOT
BRANCH   2   5
ATOM      5  C   UNL     1       3.199   6.082  19.069  0.00  0.00    +0.000 A 
ATOM      6  C   UNL     1       3.552   6.549  17.862  0.00  0.00    +0.000 A 
ATOM      7  C   UNL     1       4.627   5.876  17.122  0.00  0.00    +0.000 A 
ATOM      8  C   UNL     1       5.044   6.348  15.876  0.00  0.00    +0.000 A 
ATOM      9  C   UNL     1       6.100   5.722  15.206  0.00  0.00    +0.000 A 
ATOM     10  C   UNL     1       6.744   4.622  15.776  0.00  0.00    +0.000 A 
ATOM     11  C   UNL     1       6.333   4.137  17.016  0.00  0.00    +0.000 A 
ATOM     12  C   UNL     1       5.278   4.765  17.684  0.00  0.00    +0.000 A 
ATOM     13  C   UNL     1       4.846   4.280  19.017  0.00  0.00    +0.000 A 
ATOM     14  O   UNL     1       5.374   3.314  19.555  0.00  0.00    +0.000 OA
ATOM     15  N   UNL     1       3.832   4.985  19.611  0.00  0.00    +0.000 N 
ATOM     16  H   UNL     1       3.562   4.703  20.552  0.00  0.00    +0.000 HD
ENDBRANCH   2   5
BRANCH   3  17
ATOM     17  C   UNL     1       1.071   8.881  20.512  0.00  0.00    +0.000 A 
ATOM     18  C   UNL     1       0.231   9.836  19.931  0.00  0.00    +0.000 A 
ATOM     19  C   UNL     1      -0.565  10.650  20.730  0.00  0.00    +0.000 A 
ATOM     20  F   UNL     1      -1.344  11.576  20.154  0.00  0.00    +0.000 F 
ATOM     21  C   UNL     1      -0.560  10.524  22.109  0.00  0.00    +0.000 A 
ATOM     22  C   UNL     1       0.235   9.542  22.679  0.00  0.00    +0.000 A 
ATOM     23  F   UNL     1       0.246   9.400  24.012  0.00  0.00    +0.000 F 
ATOM     24  C   UNL     1       1.037   8.710  21.899  0.00  0.00    +0.000 A 
ENDBRANCH   3  17
TORSDOF 2
ENDMDL
MODEL 5
REMARK VINA RESULT:      -8.2      4.652      5.665
REMARK  Name = 
REMARK  2 active torsions:
REMARK  status: ('A' for Active; 'I' for Inactive)
REMARK    1  A    between atoms: C_2  and  C_12
REMARK    2  A    between atoms: N_3  and  C_4
REMARK                            x       y       z     vdW  Elec       q    Type
REMARK                         _______ _______ _______ _____ _____    ______ ____
ROOT
ATOM      1  O   UNL     1       2.826   5.459  18.299  0.00  0.00    +0.000 OA
ATOM      2  C   UNL     1       3.181   6.627  18.138  0.00  0.00    +0.000 C 
ATOM      3  N   UNL     1       4.355   7.042  17.546  0.00  0.00    +0.000 N 
ATOM      4  H   UNL     1       4.649   7.998  17.702  0.00  0.00    +0.000 HD
ENDROOT
BRANCH   2   5
ATOM      5  C   UNL     1       2.309   7.703  18.724  0.00  0.00    +0.000 A 
ATOM      6  C   UNL     1       1.622   8.597  17.997  0.00  0.00    +0.000 A 
ATOM      7  C   UNL     1       0.721   9.533  18.680  0.00  0.00    +0.000 A 
ATOM      8  C   UNL     1      -0.033  10.460  17.956  0.00  0.00    +0.000 A 
ATOM      9  C   UNL     1      -0.921  11.313  18.619  0.00  0.00    +0.000 A 
ATOM     10  C   UNL     1      -1.059  11.247  20.007  0.00  0.00    +0.000 A 
ATOM     11  C   UNL     1      -0.307  10.331  20.741  0.00  0.00    +0.000 A 
ATOM     12  C   UNL     1       0.578   9.479  20.076  0.00  0.00    +0.000 A 
ATOM     13  C   UNL     1       1.365   8.479  20.839  0.00  0.00    +0.000 A 
ATOM     14  O   UNL     1       1.284   8.388  22.058  0.00  0.00    +0.000 OA
ATOM     15  N   UNL     1       2.174   7.662  20.095  0.00  0.00    +0.000 N 
ATOM     16  H   UNL     1       2.678   6.930  20.595  0.00  0.00    +0.000 HD
ENDBRANCH   2   5
BRANCH   3  17
ATOM     17  C   UNL     1       5.294   6.185  16.927  0.00  0.00    +0.000 A 
ATOM     18  C   UNL     1       5.211   5.812  15.582  0.00  0.00    +0.000 A 
ATOM     19  C   UNL     1       6.113   4.896  15.051  0.00  0.00    +0.000 A 
ATOM     20  F   UNL     1       6.000   4.533  13.766  0.00  0.00    +0.000 F 
ATOM     21  C   UNL     1       7.120   4.351  15.828  0.00  0.00    +0.000 A 
ATOM     22  C   UNL     1       7.232   4.762  17.148  0.00  0.00    +0.000 A 
ATOM     23  F   UNL     1       8.206   4.250  17.913  0.00  0.00    +0.000 F 
ATOM     24  C   UNL     1       6.344   5.682  17.702  0.00  0.00    +0.000 A 
ENDBRANCH   3  17
TORSDOF 2
ENDMDL
MODEL 6
REMARK VINA RESULT:      -8.2      6.088      7.780
REMARK  Name = 
REMARK  2 active torsions:
REMARK  status: ('A' for Active; 'I' for Inactive)
REMARK    1  A    between atoms: C_2  and  C_12
REMARK    2  A    between atoms: N_3  and  C_4
REMARK                            x       y       z     vdW  Elec       q    Type
REMARK                         _______ _______ _______ _____ _____    ______ ____
ROOT
ATOM      1  O   UNL     1       2.328   7.906  18.748  0.00  0.00    +0.000 OA
ATOM      2  C   UNL     1       1.902   7.677  19.881  0.00  0.00    +0.000 C 
ATOM      3  N   UNL     1       1.991   6.475  20.552  0.00  0.00    +0.000 N 
ATOM      4  H   UNL     1       1.390   6.338  21.354  0.00  0.00    +0.000 HD
ENDROOT
BRANCH   2   5
ATOM      5  C   UNL     1       1.128   8.770  20.564  0.00  0.00    +0.000 A 
ATOM      6  C   UNL     1       0.367   9.670  19.923  0.00  0.00    +0.000 A 
ATOM      7  C   UNL     1      -0.425  10.625  20.708  0.00  0.00    +0.000 A 
ATOM      8  C   UNL     1      -1.252  11.558  20.079  0.00  0.00    +0.000 A 
ATOM      9  C   UNL     1      -2.034  12.430  20.843  0.00  0.00    +0.000 A 
ATOM     10  C   UNL     1      -1.994  12.376  22.237  0.00  0.00    +0.000 A 
ATOM     11  C   UNL     1      -1.168  11.454  22.877  0.00  0.00    +0.000 A 
ATOM     12  C   UNL     1      -0.388  10.583  22.111  0.00  0.00    +0.000 A 
ATOM     13  C   UNL     1       0.476   9.576  22.775  0.00  0.00    +0.000 A 
ATOM     14  O   UNL     1       0.551   9.495  23.996  0.00  0.00    +0.000 OA
ATOM     15  N   UNL     1       1.171   8.741  21.941  0.00  0.00    +0.000 N 
ATOM     16  H   UNL     1       1.723   8.005  22.379  0.00  0.00    +0.000 HD
ENDBRANCH   2   5
BRANCH   3  17
ATOM     17  C   UNL     1       2.688   5.338  20.082  0.00  0.00    +0.000 A 
ATOM     18  C   UNL     1       4.016   5.388  19.645  0.00  0.00    +0.000 A 
ATOM     19  C   UNL     1       4.621   4.255  19.111  0.00  0.00    +0.000 A 
ATOM     20  F   UNL     1       5.885   4.332  18.674  0.00  0.00    +0.000 F 
ATOM     21  C   UNL     1       3.938   3.055  19.018  0.00  0.00    +0.000 A 
ATOM     22  C   UNL     1       2.639   2.995  19.500  0.00  0.00    +0.000 A 
ATOM     23  F   UNL     1       1.966   1.839  19.426  0.00  0.00    +0.000 F 
ATOM     24  C   UNL     1       2.012   4.115  20.045  0.00  0.00    +0.000 A 
ENDBRANCH   3  17
TORSDOF 2
ENDMDL
MODEL 7
REMARK VINA RESULT:      -8.2      5.658      8.641
REMARK  Name = 
REMARK  2 active torsions:
REMARK  status: ('A' for Active; 'I' for Inactive)
REMARK    1  A    between atoms: C_2  and  C_12
REMARK    2  A    between atoms: N_3  and  C_4
REMARK                            x       y       z     vdW  Elec       q    Type
REMARK                         _______ _______ _______ _____ _____    ______ ____
ROOT
ATOM      1  O   UNL     1       1.591   5.991  20.819  0.00  0.00    +0.000 OA
ATOM      2  C   UNL     1       2.075   6.674  19.916  0.00  0.00    +0.000 C 
ATOM      3  N   UNL     1       1.855   8.020  19.712  0.00  0.00    +0.000 N 
ATOM      4  H   UNL     1       2.093   8.405  18.808  0.00  0.00    +0.000 HD
ENDROOT
BRANCH   2   5
ATOM      5  C   UNL     1       2.903   5.966  18.879  0.00  0.00    +0.000 A 
ATOM      6  C   UNL     1       3.550   6.584  17.880  0.00  0.00    +0.000 A 
ATOM      7  C   UNL     1       4.413   5.795  16.992  0.00  0.00    +0.000 A 
ATOM      8  C   UNL     1       5.126   6.406  15.957  0.00  0.00    +0.000 A 
ATOM      9  C   UNL     1       5.979   5.647  15.150  0.00  0.00    +0.000 A 
ATOM     10  C   UNL     1       6.123   4.276  15.370  0.00  0.00    +0.000 A 
ATOM     11  C   UNL     1       5.412   3.654  16.394  0.00  0.00    +0.000 A 
ATOM     12  C   UNL     1       4.562   4.415  17.200  0.00  0.00    +0.000 A 
ATOM     13  C   UNL     1       3.818   3.774  18.313  0.00  0.00    +0.000 A 
ATOM     14  O   UNL     1       3.906   2.573  18.540  0.00  0.00    +0.000 OA
ATOM     15  N   UNL     1       3.042   4.609  19.072  0.00  0.00    +0.000 N 
ATOM     16  H   UNL     1       2.571   4.198  19.877  0.00  0.00    +0.000 HD
ENDBRANCH   2   5
BRANCH   3  17
ATOM     17  C   UNL     1       1.118   8.858  20.582  0.00  0.00    +0.000 A 
ATOM     18  C   UNL     1       1.142   8.717  21.973  0.00  0.00    +0.000 A 
ATOM     19  C   UNL     1       0.329   9.514  22.772  0.00  0.00    +0.000 A 
ATOM     20  F   UNL     1       0.348   9.346  24.101  0.00  0.00    +0.000 F 
ATOM     21  C   UNL     1      -0.503  10.471  22.218  0.00  0.00    +0.000 A 
ATOM     22  C   UNL     1      -0.486  10.644  20.842  0.00  0.00    +0.000 A 
ATOM     23  F   UNL     1      -1.278  11.572  20.288  0.00  0.00    +0.000 F 
ATOM     24  C   UNL     1       0.324   9.862  20.019  0.00  0.00    +0.000 A 
ENDBRANCH   3  17
TORSDOF 2
ENDMDL
MODEL 8
REMARK VINA RESULT:      -8.2      4.685      5.576
REMARK  Name = 
REMARK  2 active torsions:
REMARK  status: ('A' for Active; 'I' for Inactive)
REMARK    1  A    between atoms: C_2  and  C_12
REMARK    2  A    between atoms: N_3  and  C_4
REMARK                            x       y       z     vdW  Elec       q    Type
REMARK                         _______ _______ _______ _____ _____    ______ ____
ROOT
ATOM      1  O   UNL     1       2.880   5.415  18.813  0.00  0.00    +0.000 OA
ATOM      2  C   UNL     1       3.158   6.557  18.448  0.00  0.00    +0.000 C 
ATOM      3  N   UNL     1       4.255   6.922  17.694  0.00  0.00    +0.000 N 
ATOM      4  H   UNL     1       4.510   7.901  17.677  0.00  0.00    +0.000 HD
ENDROOT
BRANCH   2   5
ATOM      5  C   UNL     1       2.284   7.676  18.943  0.00  0.00    +0.000 A 
ATOM      6  C   UNL     1       1.625   8.529  18.145  0.00  0.00    +0.000 A 
ATOM      7  C   UNL     1       0.717   9.514  18.746  0.00  0.00    +0.000 A 
ATOM      8  C   UNL     1      -0.008  10.401  17.947  0.00  0.00    +0.000 A 
ATOM      9  C   UNL     1      -0.903  11.302  18.534  0.00  0.00    +0.000 A 
ATOM     10  C   UNL     1      -1.075  11.324  19.919  0.00  0.00    +0.000 A 
ATOM     11  C   UNL     1      -0.351  10.450  20.727  0.00  0.00    +0.000 A 
ATOM     12  C   UNL     1       0.541   9.549  20.138  0.00  0.00    +0.000 A 
ATOM     13  C   UNL     1       1.298   8.592  20.981  0.00  0.00    +0.000 A 
ATOM     14  O   UNL     1       1.187   8.578  22.201  0.00  0.00    +0.000 OA
ATOM     15  N   UNL     1       2.116   7.722  20.310  0.00  0.00    +0.000 N 
ATOM     16  H   UNL     1       2.600   7.018  20.867  0.00  0.00    +0.000 HD
ENDBRANCH   2   5
BRANCH   3  17
ATOM     17  C   UNL     1       5.181   6.017  17.127  0.00  0.00    +0.000 A 
ATOM     18  C   UNL     1       6.275   5.507  17.834  0.00  0.00    +0.000 A 
ATOM     19  C   UNL     1       7.202   4.689  17.196  0.00  0.00    +0.000 A 
ATOM     20  F   UNL     1       8.257   4.232  17.885  0.00  0.00    +0.000 F 
ATOM     21  C   UNL     1       7.057   4.346  15.863  0.00  0.00    +0.000 A 
ATOM     22  C   UNL     1       5.944   4.810  15.179  0.00  0.00    +0.000 A 
ATOM     23  F   UNL     1       5.782   4.481  13.890  0.00  0.00    +0.000 F 
ATOM     24  C   UNL     1       4.998   5.627  15.797  0.00  0.00    +0.000 A 
ENDBRANCH   3  17
TORSDOF 2
ENDMDL
MODEL 9
REMARK VINA RESULT:      -8.2      1.871      2.845
REMARK  Name = 
REMARK  2 active torsions:
REMARK  status: ('A' for Active; 'I' for Inactive)
REMARK    1  A    between atoms: C_2  and  C_12
REMARK    2  A    between atoms: N_3  and  C_4
REMARK                            x       y       z     vdW  Elec       q    Type
REMARK                         _______ _______ _______ _____ _____    ______ ____
ROOT
ATOM      1  O   UNL     1       5.004   6.471  15.863  0.00  0.00    +0.000 OA
ATOM      2  C   UNL     1       4.832   5.298  16.196  0.00  0.00    +0.000 C 
ATOM      3  N   UNL     1       5.199   4.186  15.467  0.00  0.00    +0.000 N 
ATOM      4  H   UNL     1       4.782   3.299  15.717  0.00  0.00    +0.000 HD
ENDROOT
BRANCH   2   5
ATOM      5  C   UNL     1       4.068   5.043  17.466  0.00  0.00    +0.000 A 
ATOM      6  C   UNL     1       3.999   3.852  18.080  0.00  0.00    +0.000 A 
ATOM      7  C   UNL     1       3.308   3.753  19.371  0.00  0.00    +0.000 A 
ATOM      8  C   UNL     1       3.238   2.537  20.055  0.00  0.00    +0.000 A 
ATOM      9  C   UNL     1       2.617   2.470  21.306  0.00  0.00    +0.000 A 
ATOM     10  C   UNL     1       2.060   3.615  21.879  0.00  0.00    +0.000 A 
ATOM     11  C   UNL     1       2.117   4.832  21.203  0.00  0.00    +0.000 A 
ATOM     12  C   UNL     1       2.740   4.896  19.955  0.00  0.00    +0.000 A 
ATOM     13  C   UNL     1       2.834   6.190  19.234  0.00  0.00    +0.000 A 
ATOM     14  O   UNL     1       2.354   7.220  19.692  0.00  0.00    +0.000 OA
ATOM     15  N   UNL     1       3.498   6.161  18.037  0.00  0.00    +0.000 N 
ATOM     16  H   UNL     1       3.625   7.050  17.556  0.00  0.00    +0.000 HD
ENDBRANCH   2   5
BRANCH   3  17
ATOM     17  C   UNL     1       5.934   4.220  14.259  0.00  0.00    +0.000 A 
ATOM     18  C   UNL     1       5.629   3.409  13.162  0.00  0.00    +0.000 A 
ATOM     19  C   UNL     1       6.442   3.423  12.032  0.00  0.00    +0.000 A 
ATOM     20  F   UNL     1       6.147   2.619  11.002  0.00  0.00    +0.000 F 
ATOM     21  C   UNL     1       7.552   4.247  11.959  0.00  0.00    +0.000 A 
ATOM     22  C   UNL     1       7.822   5.088  13.028  0.00  0.00    +0.000 A 
ATOM     23  F   UNL     1       8.887   5.899  12.971  0.00  0.00    +0.000 F 
ATOM     24  C   UNL     1       7.020   5.097  14.168  0.00  0.00    +0.000 A 
ENDBRANCH   3  17
TORSDOF 2
ENDMDL
