MODEL 1
REMARK VINA RESULT:      -9.0      0.000      0.000
REMARK  Name = 
REMARK  5 active torsions:
REMARK  status: ('A' for Active; 'I' for Inactive)
REMARK    1  A    between atoms: C_1  and  C_2
REMARK    2  A    between atoms: C_4  and  C_5
REMARK    3  A    between atoms: C_9  and  C_10
REMARK    4  A    between atoms: N_12  and  C_13
REMARK    5  A    between atoms: C_17  and  C_18
REMARK                            x       y       z     vdW  Elec       q    Type
REMARK                         _______ _______ _______ _____ _____    ______ ____
ROOT
ATOM      1  C   UNL     1       3.125   6.431  18.399  0.00  0.00    +0.000 C 
ATOM      2  O   UNL     1       2.233   5.661  18.742  0.00  0.00    +0.000 OA
ATOM      3  N   UNL     1       3.005   7.801  18.217  0.00  0.00    +0.000 N 
ATOM      4  H   UNL     1       3.761   8.273  17.736  0.00  0.00    +0.000 HD
ENDROOT
BRANCH   1   9
ATOM      5  C   UNL     1       6.128   5.067  16.504  0.00  0.00    +0.000 A 
ATOM      6  C   UNL     1       7.011   4.842  17.572  0.00  0.00    +0.000 A 
ATOM      7  C   UNL     1       6.630   5.128  18.883  0.00  0.00    +0.000 A 
ATOM      8  C   UNL     1       5.358   5.637  19.140  0.00  0.00    +0.000 A 
ATOM      9  C   UNL     1       4.458   5.850  18.087  0.00  0.00    +0.000 A 
ATOM     10  C   UNL     1       4.847   5.575  16.772  0.00  0.00    +0.000 A 
BRANCH   5  14
ATOM     11  C   UNL     1       6.210   3.186  11.951  0.00  0.00    +0.000 C 
ATOM     12  C   UNL     1       6.496   3.941  13.187  0.00  0.00    +0.000 A 
ATOM     13  N   UNL     1       5.865   3.885  14.337  0.00  0.00    +0.000 NA
ATOM     14  C   UNL     1       6.529   4.800  15.128  0.00  0.00    +0.000 A 
ATOM     15  N   UNL     1       7.554   5.403  14.506  0.00  0.00    +0.000 NA
ATOM     16  N   UNL     1       7.511   4.846  13.288  0.00  0.00    +0.000 N 
ATOM     17  H   UNL     1       8.189   5.128  12.588  0.00  0.00    +0.000 HD
ENDBRANCH   5  14
ENDBRANCH   1   9
BRANCH   3  18
ATOM     18  C   UNL     1       1.856   8.577  18.494  0.00  0.00    +0.000 A 
ATOM     19  C   UNL     1       1.019   9.073  17.496  0.00  0.00    +0.000 A 
ATOM     20  C   UNL     1      -0.083   9.863  17.820  0.00  0.00    +0.000 A 
ATOM     21  C   UNL     1      -0.367  10.157  19.150  0.00  0.00    +0.000 A 
ATOM     22  C   UNL     1       0.434   9.642  20.180  0.00  0.00    +0.000 A 
ATOM     23  C   UNL     1       1.544   8.848  19.836  0.00  0.00    +0.000 A 
BRANCH  22  24
ATOM     24  C   UNL     1       0.139   9.916  21.587  0.00  0.00    +0.000 A 
ATOM     25  N   UNL     1      -0.609  10.885  22.085  0.00  0.00    +0.000 NA
ATOM     26  N   UNL     1      -0.581  10.744  23.451  0.00  0.00    +0.000 NA
ATOM     27  N   UNL     1       0.170   9.712  23.806  0.00  0.00    +0.000 NA
ATOM     28  N   UNL     1       0.614   9.199  22.653  0.00  0.00    +0.000 N 
ATOM     29  H   UNL     1       1.223   8.393  22.674  0.00  0.00    +0.000 HD
ENDBRANCH  22  24
ENDBRANCH   3  18
TORSDOF 4
ENDMDL
MODEL 2
REMARK VINA RESULT:      -8.9      2.985      4.011
REMARK  Name = 
REMARK  5 active torsions:
REMARK  status: ('A' for Active; 'I' for Inactive)
REMARK    1  A    between atoms: C_1  and  C_2
REMARK    2  A    between atoms: C_4  and  C_5
REMARK    3  A    between atoms: C_9  and  C_10
REMARK    4  A    between atoms: N_12  and  C_13
REMARK    5  A    between atoms: C_17  and  C_18
REMARK                            x       y       z     vdW  Elec       q    Type
REMARK                         _______ _______ _______ _____ _____    ______ ____
ROOT
ATOM      1  C   UNL     1       1.936   8.861  18.329  0.00  0.00    +0.000 C 
ATOM      2  O   UNL     1       2.127   9.590  17.362  0.00  0.00    +0.000 OA
ATOM      3  N   UNL     1       1.098   9.120  19.404  0.00  0.00    +0.000 N 
ATOM      4  H   UNL     1       1.197   8.532  20.223  0.00  0.00    +0.000 HD
ENDROOT
BRANCH   1   9
ATOM      5  C   UNL     1       4.413   6.079  17.555  0.00  0.00    +0.000 A 
ATOM      6  C   UNL     1       4.196   5.242  18.661  0.00  0.00    +0.000 A 
ATOM      7  C   UNL     1       3.258   5.580  19.637  0.00  0.00    +0.000 A 
ATOM      8  C   UNL     1       2.522   6.757  19.512  0.00  0.00    +0.000 A 
ATOM      9  C   UNL     1       2.713   7.595  18.406  0.00  0.00    +0.000 A 
ATOM     10  C   UNL     1       3.664   7.260  17.436  0.00  0.00    +0.000 A 
BRANCH   5  14
ATOM     11  C   UNL     1       6.580   4.052  13.622  0.00  0.00    +0.000 C 
ATOM     12  C   UNL     1       6.275   4.832  14.838  0.00  0.00    +0.000 A 
ATOM     13  N   UNL     1       5.164   4.843  15.538  0.00  0.00    +0.000 NA
ATOM     14  C   UNL     1       5.415   5.749  16.548  0.00  0.00    +0.000 A 
ATOM     15  N   UNL     1       6.645   6.281  16.499  0.00  0.00    +0.000 NA
ATOM     16  N   UNL     1       7.165   5.689  15.415  0.00  0.00    +0.000 N 
ATOM     17  H   UNL     1       8.112   5.914  15.131  0.00  0.00    +0.000 HD
ENDBRANCH   5  14
ENDBRANCH   1   9
BRANCH   3  18
ATOM     18  C   UNL     1       0.231  10.230  19.531  0.00  0.00    +0.000 A 
ATOM     19  C   UNL     1       0.440  11.254  20.453  0.00  0.00    +0.000 A 
ATOM     20  C   UNL     1      -0.464  12.309  20.561  0.00  0.00    +0.000 A 
ATOM     21  C   UNL     1      -1.586  12.358  19.738  0.00  0.00    +0.000 A 
ATOM     22  C   UNL     1      -1.805  11.363  18.774  0.00  0.00    +0.000 A 
ATOM     23  C   UNL     1      -0.883  10.303  18.679  0.00  0.00    +0.000 A 
BRANCH  22  24
ATOM     24  C   UNL     1      -2.962  11.408  17.879  0.00  0.00    +0.000 A 
ATOM     25  N   UNL     1      -3.087  10.850  16.688  0.00  0.00    +0.000 NA
ATOM     26  N   UNL     1      -4.340  11.175  16.229  0.00  0.00    +0.000 NA
ATOM     27  N   UNL     1      -4.989  11.923  17.109  0.00  0.00    +0.000 NA
ATOM     28  N   UNL     1      -4.137  12.066  18.130  0.00  0.00    +0.000 N 
ATOM     29  H   UNL     1      -4.415  12.614  18.932  0.00  0.00    +0.000 HD
ENDBRANCH  22  24
ENDBRANCH   3  18
TORSDOF 4
ENDMDL
MODEL 3
REMARK VINA RESULT:      -8.9      3.014      3.965
REMARK  Name = 
REMARK  5 active torsions:
REMARK  status: ('A' for Active; 'I' for Inactive)
REMARK    1  A    between atoms: C_1  and  C_2
REMARK    2  A    between atoms: C_4  and  C_5
REMARK    3  A    between atoms: C_9  and  C_10
REMARK    4  A    between atoms: N_12  and  C_13
REMARK    5  A    between atoms: C_17  and  C_18
REMARK                            x       y       z     vdW  Elec       q    Type
REMARK                         _______ _______ _______ _____ _____    ______ ____
ROOT
ATOM      1  C   UNL     1       2.191   8.486  18.248  0.00  0.00    +0.000 C 
ATOM      2  O   UNL     1       2.365   9.086  17.192  0.00  0.00    +0.000 OA
ATOM      3  N   UNL     1       1.413   8.907  19.317  0.00  0.00    +0.000 N 
ATOM      4  H   UNL     1       1.527   8.417  20.196  0.00  0.00    +0.000 HD
ENDROOT
BRANCH   1   9
ATOM      5  C   UNL     1       4.663   5.625  17.827  0.00  0.00    +0.000 A 
ATOM      6  C   UNL     1       4.308   4.830  18.928  0.00  0.00    +0.000 A 
ATOM      7  C   UNL     1       3.281   5.220  19.787  0.00  0.00    +0.000 A 
ATOM      8  C   UNL     1       2.593   6.410  19.549  0.00  0.00    +0.000 A 
ATOM      9  C   UNL     1       2.923   7.206  18.445  0.00  0.00    +0.000 A 
ATOM     10  C   UNL     1       3.962   6.818  17.593  0.00  0.00    +0.000 A 
BRANCH   5  14
ATOM     11  C   UNL     1       7.274   4.773  13.737  0.00  0.00    +0.000 C 
ATOM     12  C   UNL     1       6.814   4.898  15.134  0.00  0.00    +0.000 A 
ATOM     13  N   UNL     1       5.640   5.296  15.569  0.00  0.00    +0.000 NA
ATOM     14  C   UNL     1       5.757   5.240  16.943  0.00  0.00    +0.000 A 
ATOM     15  N   UNL     1       6.956   4.808  17.363  0.00  0.00    +0.000 NA
ATOM     16  N   UNL     1       7.601   4.601  16.207  0.00  0.00    +0.000 N 
ATOM     17  H   UNL     1       8.558   4.267  16.224  0.00  0.00    +0.000 HD
ENDBRANCH   5  14
ENDBRANCH   1   9
BRANCH   3  18
ATOM     18  C   UNL     1       0.595  10.060  19.343  0.00  0.00    +0.000 A 
ATOM     19  C   UNL     1       0.807  11.120  20.223  0.00  0.00    +0.000 A 
ATOM     20  C   UNL     1      -0.049  12.219  20.233  0.00  0.00    +0.000 A 
ATOM     21  C   UNL     1      -1.126  12.276  19.351  0.00  0.00    +0.000 A 
ATOM     22  C   UNL     1      -1.344  11.244  18.428  0.00  0.00    +0.000 A 
ATOM     23  C   UNL     1      -0.471  10.139  18.433  0.00  0.00    +0.000 A 
BRANCH  22  24
ATOM     24  C   UNL     1      -2.453  11.294  17.473  0.00  0.00    +0.000 A 
ATOM     25  N   UNL     1      -3.738  11.456  17.733  0.00  0.00    +0.000 NA
ATOM     26  N   UNL     1      -4.392  11.425  16.525  0.00  0.00    +0.000 NA
ATOM     27  N   UNL     1      -3.539  11.245  15.528  0.00  0.00    +0.000 NA
ATOM     28  N   UNL     1      -2.339  11.166  16.115  0.00  0.00    +0.000 N 
ATOM     29  H   UNL     1      -1.518  11.019  15.543  0.00  0.00    +0.000 HD
ENDBRANCH  22  24
ENDBRANCH   3  18
TORSDOF 4
ENDMDL
MODEL 4
REMARK VINA RESULT:      -8.8      3.331      8.987
REMARK  Name = 
REMARK  5 active torsions:
REMARK  status: ('A' for Active; 'I' for Inactive)
REMARK    1  A    between atoms: C_1  and  C_2
REMARK    2  A    between atoms: C_4  and  C_5
REMARK    3  A    between atoms: C_9  and  C_10
REMARK    4  A    between atoms: N_12  and  C_13
REMARK    5  A    between atoms: C_17  and  C_18
REMARK                            x       y       z     vdW  Elec       q    Type
REMARK                         _______ _______ _______ _____ _____    ______ ____
ROOT
ATOM      1  C   UNL     1       1.909   8.296  18.013  0.00  0.00    +0.000 C 
ATOM      2  O   UNL     1       2.740   8.599  17.163  0.00  0.00    +0.000 OA
ATOM      3  N   UNL     1       1.694   7.031  18.542  0.00  0.00    +0.000 N 
ATOM      4  H   UNL     1       0.845   6.889  19.076  0.00  0.00    +0.000 HD
ENDROOT
BRANCH   1   9
ATOM      5  C   UNL     1      -1.033  10.690  18.294  0.00  0.00    +0.000 A 
ATOM      6  C   UNL     1      -0.724  11.318  19.511  0.00  0.00    +0.000 A 
ATOM      7  C   UNL     1       0.424  10.967  20.222  0.00  0.00    +0.000 A 
ATOM      8  C   UNL     1       1.278   9.987  19.718  0.00  0.00    +0.000 A 
ATOM      9  C   UNL     1       0.993   9.364  18.497  0.00  0.00    +0.000 A 
ATOM     10  C   UNL     1      -0.165   9.708  17.793  0.00  0.00    +0.000 A 
BRANCH   5  14
ATOM     11  C   UNL     1      -5.656  12.087  17.319  0.00  0.00    +0.000 C 
ATOM     12  C   UNL     1      -4.253  11.638  17.225  0.00  0.00    +0.000 A 
ATOM     13  N   UNL     1      -3.411  11.398  18.204  0.00  0.00    +0.000 NA
ATOM     14  C   UNL     1      -2.248  11.029  17.561  0.00  0.00    +0.000 A 
ATOM     15  N   UNL     1      -2.353  11.020  16.223  0.00  0.00    +0.000 NA
ATOM     16  N   UNL     1      -3.623  11.407  16.038  0.00  0.00    +0.000 N 
ATOM     17  H   UNL     1      -3.985  11.494  15.095  0.00  0.00    +0.000 HD
ENDBRANCH   5  14
ENDBRANCH   1   9
BRANCH   3  18
ATOM     18  C   UNL     1       2.465   5.877  18.271  0.00  0.00    +0.000 A 
ATOM     19  C   UNL     1       1.924   4.717  17.718  0.00  0.00    +0.000 A 
ATOM     20  C   UNL     1       2.720   3.594  17.502  0.00  0.00    +0.000 A 
ATOM     21  C   UNL     1       4.074   3.622  17.828  0.00  0.00    +0.000 A 
ATOM     22  C   UNL     1       4.656   4.785  18.350  0.00  0.00    +0.000 A 
ATOM     23  C   UNL     1       3.837   5.911  18.564  0.00  0.00    +0.000 A 
BRANCH  22  24
ATOM     24  C   UNL     1       6.082   4.847  18.675  0.00  0.00    +0.000 A 
ATOM     25  N   UNL     1       6.649   5.392  19.736  0.00  0.00    +0.000 NA
ATOM     26  N   UNL     1       8.004   5.214  19.597  0.00  0.00    +0.000 NA
ATOM     27  N   UNL     1       8.285   4.574  18.471  0.00  0.00    +0.000 NA
ATOM     28  N   UNL     1       7.096   4.346  17.902  0.00  0.00    +0.000 N 
ATOM     29  H   UNL     1       7.058   3.866  17.013  0.00  0.00    +0.000 HD
ENDBRANCH  22  24
ENDBRANCH   3  18
TORSDOF 4
ENDMDL
MODEL 5
REMARK VINA RESULT:      -8.7      1.134      9.836
REMARK  Name = 
REMARK  5 active torsions:
REMARK  status: ('A' for Active; 'I' for Inactive)
REMARK    1  A    between atoms: C_1  and  C_2
REMARK    2  A    between atoms: C_4  and  C_5
REMARK    3  A    between atoms: C_9  and  C_10
REMARK    4  A    between atoms: N_12  and  C_13
REMARK    5  A    between atoms: C_17  and  C_18
REMARK                            x       y       z     vdW  Elec       q    Type
REMARK                         _______ _______ _______ _____ _____    ______ ____
ROOT
ATOM      1  C   UNL     1       3.211   6.886  18.737  0.00  0.00    +0.000 C 
ATOM      2  O   UNL     1       3.141   5.955  19.532  0.00  0.00    +0.000 OA
ATOM      3  N   UNL     1       4.201   7.085  17.786  0.00  0.00    +0.000 N 
ATOM      4  H   UNL     1       4.245   7.995  17.344  0.00  0.00    +0.000 HD
ENDROOT
BRANCH   1   9
ATOM      5  C   UNL     1       0.641   9.339  20.098  0.00  0.00    +0.000 A 
ATOM      6  C   UNL     1       0.292  10.010  18.915  0.00  0.00    +0.000 A 
ATOM      7  C   UNL     1       0.883   9.666  17.700  0.00  0.00    +0.000 A 
ATOM      8  C   UNL     1       1.826   8.640  17.654  0.00  0.00    +0.000 A 
ATOM      9  C   UNL     1       2.172   7.948  18.821  0.00  0.00    +0.000 A 
ATOM     10  C   UNL     1       1.588   8.304  20.041  0.00  0.00    +0.000 A 
BRANCH   5  14
ATOM     11  C   UNL     1      -1.967  11.771  23.496  0.00  0.00    +0.000 C 
ATOM     12  C   UNL     1      -1.096  10.819  22.781  0.00  0.00    +0.000 A 
ATOM     13  N   UNL     1      -0.750  10.829  21.514  0.00  0.00    +0.000 NA
ATOM     14  C   UNL     1       0.051   9.714  21.378  0.00  0.00    +0.000 A 
ATOM     15  N   UNL     1       0.219   9.030  22.520  0.00  0.00    +0.000 NA
ATOM     16  N   UNL     1      -0.513   9.745  23.386  0.00  0.00    +0.000 N 
ATOM     17  H   UNL     1      -0.571   9.446  24.353  0.00  0.00    +0.000 HD
ENDBRANCH   5  14
ENDBRANCH   1   9
BRANCH   3  18
ATOM     18  C   UNL     1       5.259   6.193  17.491  0.00  0.00    +0.000 A 
ATOM     19  C   UNL     1       6.085   5.648  18.472  0.00  0.00    +0.000 A 
ATOM     20  C   UNL     1       7.136   4.800  18.126  0.00  0.00    +0.000 A 
ATOM     21  C   UNL     1       7.366   4.480  16.791  0.00  0.00    +0.000 A 
ATOM     22  C   UNL     1       6.530   4.981  15.784  0.00  0.00    +0.000 A 
ATOM     23  C   UNL     1       5.473   5.838  16.150  0.00  0.00    +0.000 A 
BRANCH  22  24
ATOM     24  C   UNL     1       6.735   4.636  14.376  0.00  0.00    +0.000 A 
ATOM     25  N   UNL     1       7.475   5.272  13.486  0.00  0.00    +0.000 NA
ATOM     26  N   UNL     1       7.350   4.584  12.303  0.00  0.00    +0.000 NA
ATOM     27  N   UNL     1       6.547   3.540  12.445  0.00  0.00    +0.000 NA
ATOM     28  N   UNL     1       6.168   3.572  13.727  0.00  0.00    +0.000 N 
ATOM     29  H   UNL     1       5.535   2.862  14.073  0.00  0.00    +0.000 HD
ENDBRANCH  22  24
ENDBRANCH   3  18
TORSDOF 4
ENDMDL
MODEL 6
REMARK VINA RESULT:      -8.6      2.873      8.828
REMARK  Name = 
REMARK  5 active torsions:
REMARK  status: ('A' for Active; 'I' for Inactive)
REMARK    1  A    between atoms: C_1  and  C_2
REMARK    2  A    between atoms: C_4  and  C_5
REMARK    3  A    between atoms: C_9  and  C_10
REMARK    4  A    between atoms: N_12  and  C_13
REMARK    5  A    between atoms: C_17  and  C_18
REMARK                            x       y       z     vdW  Elec       q    Type
REMARK                         _______ _______ _______ _____ _____    ______ ____
ROOT
ATOM      1  C   UNL     1       1.536   8.312  20.303  0.00  0.00    +0.000 C 
ATOM      2  O   UNL     1       1.837   7.967  21.441  0.00  0.00    +0.000 OA
ATOM      3  N   UNL     1       1.924   7.692  19.124  0.00  0.00    +0.000 N 
ATOM      4  H   UNL     1       1.776   8.201  18.261  0.00  0.00    +0.000 HD
ENDROOT
BRANCH   1   9
ATOM      5  C   UNL     1      -0.959  10.862  18.984  0.00  0.00    +0.000 A 
ATOM      6  C   UNL     1      -0.840  11.856  19.968  0.00  0.00    +0.000 A 
ATOM      7  C   UNL     1       0.041  11.695  21.038  0.00  0.00    +0.000 A 
ATOM      8  C   UNL     1       0.815  10.539  21.131  0.00  0.00    +0.000 A 
ATOM      9  C   UNL     1       0.721   9.546  20.147  0.00  0.00    +0.000 A 
ATOM     10  C   UNL     1      -0.172   9.704  19.082  0.00  0.00    +0.000 A 
BRANCH   5  14
ATOM     11  C   UNL     1      -3.245  10.144  14.679  0.00  0.00    +0.000 C 
ATOM     12  C   UNL     1      -2.828  10.636  16.006  0.00  0.00    +0.000 A 
ATOM     13  N   UNL     1      -1.819  10.230  16.742  0.00  0.00    +0.000 NA
ATOM     14  C   UNL     1      -1.900  11.008  17.879  0.00  0.00    +0.000 A 
ATOM     15  N   UNL     1      -2.914  11.887  17.857  0.00  0.00    +0.000 NA
ATOM     16  N   UNL     1      -3.482  11.632  16.670  0.00  0.00    +0.000 N 
ATOM     17  H   UNL     1      -4.298  12.162  16.385  0.00  0.00    +0.000 HD
ENDBRANCH   5  14
ENDBRANCH   1   9
BRANCH   3  18
ATOM     18  C   UNL     1       2.656   6.487  19.023  0.00  0.00    +0.000 A 
ATOM     19  C   UNL     1       2.281   5.315  19.679  0.00  0.00    +0.000 A 
ATOM     20  C   UNL     1       3.057   4.162  19.574  0.00  0.00    +0.000 A 
ATOM     21  C   UNL     1       4.215   4.165  18.802  0.00  0.00    +0.000 A 
ATOM     22  C   UNL     1       4.599   5.316  18.099  0.00  0.00    +0.000 A 
ATOM     23  C   UNL     1       3.805   6.473  18.217  0.00  0.00    +0.000 A 
BRANCH  22  24
ATOM     24  C   UNL     1       5.797   5.334  17.259  0.00  0.00    +0.000 A 
ATOM     25  N   UNL     1       6.204   6.294  16.448  0.00  0.00    +0.000 NA
ATOM     26  N   UNL     1       7.369   5.855  15.867  0.00  0.00    +0.000 NA
ATOM     27  N   UNL     1       7.687   4.644  16.299  0.00  0.00    +0.000 NA
ATOM     28  N   UNL     1       6.715   4.322  17.160  0.00  0.00    +0.000 N 
ATOM     29  H   UNL     1       6.742   3.422  17.620  0.00  0.00    +0.000 HD
ENDBRANCH  22  24
ENDBRANCH   3  18
TORSDOF 4
ENDMDL
MODEL 7
REMARK VINA RESULT:      -8.6      2.582      3.218
REMARK  Name = 
REMARK  5 active torsions:
REMARK  status: ('A' for Active; 'I' for Inactive)
REMARK    1  A    between atoms: C_1  and  C_2
REMARK    2  A    between atoms: C_4  and  C_5
REMARK    3  A    between atoms: C_9  and  C_10
REMARK    4  A    between atoms: N_12  and  C_13
REMARK    5  A    between atoms: C_17  and  C_18
REMARK                            x       y       z     vdW  Elec       q    Type
REMARK                         _______ _______ _______ _____ _____    ______ ____
ROOT
ATOM      1  C   UNL     1       2.277   7.553  18.792  0.00  0.00    +0.000 C 
ATOM      2  O   UNL     1       2.165   7.662  20.009  0.00  0.00    +0.000 OA
ATOM      3  N   UNL     1       1.844   8.464  17.839  0.00  0.00    +0.000 N 
ATOM      4  H   UNL     1       1.815   8.150  16.876  0.00  0.00    +0.000 HD
ENDROOT
BRANCH   1   9
ATOM      5  C   UNL     1       4.514   5.137  16.886  0.00  0.00    +0.000 A 
ATOM      6  C   UNL     1       4.033   3.914  17.380  0.00  0.00    +0.000 A 
ATOM      7  C   UNL     1       2.997   3.882  18.315  0.00  0.00    +0.000 A 
ATOM      8  C   UNL     1       2.428   5.075  18.760  0.00  0.00    +0.000 A 
ATOM      9  C   UNL     1       2.884   6.302  18.263  0.00  0.00    +0.000 A 
ATOM     10  C   UNL     1       3.932   6.332  17.336  0.00  0.00    +0.000 A 
BRANCH   5  14
ATOM     11  C   UNL     1       7.205   4.381  12.829  0.00  0.00    +0.000 C 
ATOM     12  C   UNL     1       6.712   4.807  14.153  0.00  0.00    +0.000 A 
ATOM     13  N   UNL     1       5.566   4.516  14.726  0.00  0.00    +0.000 NA
ATOM     14  C   UNL     1       5.617   5.181  15.933  0.00  0.00    +0.000 A 
ATOM     15  N   UNL     1       6.760   5.856  16.127  0.00  0.00    +0.000 NA
ATOM     16  N   UNL     1       7.430   5.605  14.994  0.00  0.00    +0.000 N 
ATOM     17  H   UNL     1       8.353   6.006  14.862  0.00  0.00    +0.000 HD
ENDBRANCH   5  14
ENDBRANCH   1   9
BRANCH   3  18
ATOM     18  C   UNL     1       1.283   9.735  18.101  0.00  0.00    +0.000 A 
ATOM     19  C   UNL     1       2.057  10.865  18.361  0.00  0.00    +0.000 A 
ATOM     20  C   UNL     1       1.455  12.089  18.648  0.00  0.00    +0.000 A 
ATOM     21  C   UNL     1       0.067  12.198  18.669  0.00  0.00    +0.000 A 
ATOM     22  C   UNL     1      -0.739  11.090  18.375  0.00  0.00    +0.000 A 
ATOM     23  C   UNL     1      -0.115   9.860  18.089  0.00  0.00    +0.000 A 
BRANCH  22  24
ATOM     24  C   UNL     1      -2.199  11.188  18.364  0.00  0.00    +0.000 A 
ATOM     25  N   UNL     1      -3.066  10.324  17.865  0.00  0.00    +0.000 NA
ATOM     26  N   UNL     1      -4.316  10.850  18.078  0.00  0.00    +0.000 NA
ATOM     27  N   UNL     1      -4.240  12.020  18.695  0.00  0.00    +0.000 NA
ATOM     28  N   UNL     1      -2.930  12.228  18.872  0.00  0.00    +0.000 N 
ATOM     29  H   UNL     1      -2.622  13.078  19.326  0.00  0.00    +0.000 HD
ENDBRANCH  22  24
ENDBRANCH   3  18
TORSDOF 4
ENDMDL
MODEL 8
REMARK VINA RESULT:      -8.5      2.295      2.972
REMARK  Name = 
REMARK  5 active torsions:
REMARK  status: ('A' for Active; 'I' for Inactive)
REMARK    1  A    between atoms: C_1  and  C_2
REMARK    2  A    between atoms: C_4  and  C_5
REMARK    3  A    between atoms: C_9  and  C_10
REMARK    4  A    between atoms: N_12  and  C_13
REMARK    5  A    between atoms: C_17  and  C_18
REMARK                            x       y       z     vdW  Elec       q    Type
REMARK                         _______ _______ _______ _____ _____    ______ ____
ROOT
ATOM      1  C   UNL     1       2.113   8.648  18.279  0.00  0.00    +0.000 C 
ATOM      2  O   UNL     1       2.213   9.352  17.280  0.00  0.00    +0.000 OA
ATOM      3  N   UNL     1       1.371   8.931  19.417  0.00  0.00    +0.000 N 
ATOM      4  H   UNL     1       1.545   8.365  20.238  0.00  0.00    +0.000 HD
ENDROOT
BRANCH   1   9
ATOM      5  C   UNL     1       4.589   5.895  17.402  0.00  0.00    +0.000 A 
ATOM      6  C   UNL     1       4.415   5.047  18.507  0.00  0.00    +0.000 A 
ATOM      7  C   UNL     1       3.505   5.368  19.515  0.00  0.00    +0.000 A 
ATOM      8  C   UNL     1       2.755   6.540  19.424  0.00  0.00    +0.000 A 
ATOM      9  C   UNL     1       2.904   7.388  18.320  0.00  0.00    +0.000 A 
ATOM     10  C   UNL     1       3.826   7.071  17.317  0.00  0.00    +0.000 A 
BRANCH   5  14
ATOM     11  C   UNL     1       6.617   3.990  13.336  0.00  0.00    +0.000 C 
ATOM     12  C   UNL     1       6.360   4.721  14.593  0.00  0.00    +0.000 A 
ATOM     13  N   UNL     1       5.263   4.733  15.315  0.00  0.00    +0.000 NA
ATOM     14  C   UNL     1       5.560   5.583  16.360  0.00  0.00    +0.000 A 
ATOM     15  N   UNL     1       6.806   6.080  16.311  0.00  0.00    +0.000 NA
ATOM     16  N   UNL     1       7.286   5.523  15.191  0.00  0.00    +0.000 N 
ATOM     17  H   UNL     1       8.234   5.734  14.898  0.00  0.00    +0.000 HD
ENDBRANCH   5  14
ENDBRANCH   1   9
BRANCH   3  18
ATOM     18  C   UNL     1       0.510  10.039  19.590  0.00  0.00    +0.000 A 
ATOM     19  C   UNL     1      -0.771  10.096  19.043  0.00  0.00    +0.000 A 
ATOM     20  C   UNL     1      -1.568  11.226  19.214  0.00  0.00    +0.000 A 
ATOM     21  C   UNL     1      -1.095  12.312  19.946  0.00  0.00    +0.000 A 
ATOM     22  C   UNL     1       0.173  12.271  20.542  0.00  0.00    +0.000 A 
ATOM     23  C   UNL     1       0.966  11.122  20.358  0.00  0.00    +0.000 A 
BRANCH  22  24
ATOM     24  C   UNL     1       0.680  13.388  21.339  0.00  0.00    +0.000 A 
ATOM     25  N   UNL     1       1.938  13.744  21.527  0.00  0.00    +0.000 NA
ATOM     26  N   UNL     1       1.920  14.841  22.355  0.00  0.00    +0.000 NA
ATOM     27  N   UNL     1       0.678  15.167  22.683  0.00  0.00    +0.000 NA
ATOM     28  N   UNL     1      -0.088  14.269  22.053  0.00  0.00    +0.000 N 
ATOM     29  H   UNL     1      -1.093  14.314  22.162  0.00  0.00    +0.000 HD
ENDBRANCH  22  24
ENDBRANCH   3  18
TORSDOF 4
ENDMDL
MODEL 9
REMARK VINA RESULT:      -8.5      2.784      9.213
REMARK  Name = 
REMARK  5 active torsions:
REMARK  status: ('A' for Active; 'I' for Inactive)
REMARK    1  A    between atoms: C_1  and  C_2
REMARK    2  A    between atoms: C_4  and  C_5
REMARK    3  A    between atoms: C_9  and  C_10
REMARK    4  A    between atoms: N_12  and  C_13
REMARK    5  A    between atoms: C_17  and  C_18
REMARK                            x       y       z     vdW  Elec       q    Type
REMARK                         _______ _______ _______ _____ _____    ______ ____
ROOT
ATOM      1  C   UNL     1       1.837   8.379  18.525  0.00  0.00    +0.000 C 
ATOM      2  O   UNL     1       2.047   8.707  17.362  0.00  0.00    +0.000 OA
ATOM      3  N   UNL     1       1.968   7.105  19.059  0.00  0.00    +0.000 N 
ATOM      4  H   UNL     1       1.565   6.940  19.974  0.00  0.00    +0.000 HD
ENDROOT
BRANCH   1   9
ATOM      5  C   UNL     1       0.611  11.695  19.930  0.00  0.00    +0.000 A 
ATOM      6  C   UNL     1       0.318  11.310  21.248  0.00  0.00    +0.000 A 
ATOM      7  C   UNL     1       0.520   9.995  21.667  0.00  0.00    +0.000 A 
ATOM      8  C   UNL     1       1.024   9.052  20.773  0.00  0.00    +0.000 A 
ATOM      9  C   UNL     1       1.339   9.423  19.459  0.00  0.00    +0.000 A 
ATOM     10  C   UNL     1       1.123  10.739  19.037  0.00  0.00    +0.000 A 
BRANCH   5  14
ATOM     11  C   UNL     1       1.400  16.378  18.619  0.00  0.00    +0.000 C 
ATOM     12  C   UNL     1       0.797  15.067  18.928  0.00  0.00    +0.000 A 
ATOM     13  N   UNL     1       1.390  13.988  19.385  0.00  0.00    +0.000 NA
ATOM     14  C   UNL     1       0.373  13.060  19.474  0.00  0.00    +0.000 A 
ATOM     15  N   UNL     1      -0.824  13.537  19.103  0.00  0.00    +0.000 NA
ATOM     16  N   UNL     1      -0.531  14.800  18.763  0.00  0.00    +0.000 N 
ATOM     17  H   UNL     1      -1.269  15.411  18.431  0.00  0.00    +0.000 HD
ENDBRANCH   5  14
ENDBRANCH   1   9
BRANCH   3  18
ATOM     18  C   UNL     1       2.467   5.969  18.380  0.00  0.00    +0.000 A 
ATOM     19  C   UNL     1       1.720   4.805  18.201  0.00  0.00    +0.000 A 
ATOM     20  C   UNL     1       2.270   3.700  17.554  0.00  0.00    +0.000 A 
ATOM     21  C   UNL     1       3.574   3.750  17.069  0.00  0.00    +0.000 A 
ATOM     22  C   UNL     1       4.338   4.918  17.199  0.00  0.00    +0.000 A 
ATOM     23  C   UNL     1       3.768   6.026  17.857  0.00  0.00    +0.000 A 
BRANCH  22  24
ATOM     24  C   UNL     1       5.701   5.003  16.672  0.00  0.00    +0.000 A 
ATOM     25  N   UNL     1       6.197   5.914  15.854  0.00  0.00    +0.000 NA
ATOM     26  N   UNL     1       7.510   5.573  15.632  0.00  0.00    +0.000 NA
ATOM     27  N   UNL     1       7.831   4.471  16.294  0.00  0.00    +0.000 NA
ATOM     28  N   UNL     1       6.713   4.120  16.937  0.00  0.00    +0.000 N 
ATOM     29  H   UNL     1       6.715   3.288  17.513  0.00  0.00    +0.000 HD
ENDBRANCH  22  24
ENDBRANCH   3  18
TORSDOF 4
ENDMDL
