MODEL 1
REMARK VINA RESULT:      -8.8      0.000      0.000
REMARK  Name = 
REMARK  8 active torsions:
REMARK  status: ('A' for Active; 'I' for Inactive)
REMARK    1  A    between atoms: C_1  and  C_2
REMARK    2  A    between atoms: C_2  and  C_3
REMARK    3  A    between atoms: C_2  and  C_10
REMARK    4  A    between atoms: C_3  and  C_4
REMARK    5  A    between atoms: N_8  and  C_9
REMARK    6  A    between atoms: C_14  and  N_15
REMARK    7  A    between atoms: C_16  and  C_18
REMARK    8  A    between atoms: C_19  and  C_20
REMARK                            x       y       z     vdW  Elec       q    Type
REMARK                         _______ _______ _______ _____ _____    ______ ____
ROOT
ATOM      1  N   UNL     1       2.440   7.224  19.484  0.00  0.00    +0.000 N 
ATOM      2  C   UNL     1       2.334   6.307  18.464  0.00  0.00    +0.000 C 
ATOM      3  O   UNL     1       1.518   6.288  17.552  0.00  0.00    +0.000 OA
ATOM      4  H   UNL     1       3.165   7.091  20.175  0.00  0.00    +0.000 HD
ENDROOT
BRANCH   2   5
ATOM      5  C   UNL     1       3.427   5.313  18.356  0.00  0.00    +0.000 A 
ATOM      6  C   UNL     1       3.143   3.939  18.548  0.00  0.00    +0.000 A 
ATOM      7  C   UNL     1       3.939   2.958  17.902  0.00  0.00    +0.000 A 
ATOM      8  C   UNL     1       4.885   3.329  16.951  0.00  0.00    +0.000 A 
ATOM      9  C   UNL     1       5.101   4.682  16.774  0.00  0.00    +0.000 A 
ATOM     10  C   UNL     1       4.507   5.671  17.557  0.00  0.00    +0.000 A 
ATOM     11  C   UNL     1       4.955   6.993  17.034  0.00  0.00    +0.000 C 
ATOM     12  N   UNL     1       5.216   6.695  15.656  0.00  0.00    +0.000 N 
ATOM     13  C   UNL     1       5.433   5.334  15.493  0.00  0.00    +0.000 C 
ATOM     14  O   UNL     1       5.609   4.753  14.443  0.00  0.00    +0.000 OA
ATOM     15  H   UNL     1       4.604   7.085  14.942  0.00  0.00    +0.000 HD
BRANCH   6  16
ATOM     16  C   UNL     1       1.904   3.459  19.276  0.00  0.00    +0.000 C 
ATOM     17  F   UNL     1       1.532   4.191  20.356  0.00  0.00    +0.000 F 
ATOM     18  F   UNL     1       0.822   3.386  18.452  0.00  0.00    +0.000 F 
ATOM     19  F   UNL     1       2.078   2.192  19.756  0.00  0.00    +0.000 F 
ENDBRANCH   6  16
ENDBRANCH   2   5
BRANCH   1  24
ATOM     20  C   UNL     1       0.226   9.844  20.910  0.00  0.00    +0.000 A 
ATOM     21  C   UNL     1       0.281  10.827  19.912  0.00  0.00    +0.000 A 
ATOM     22  C   UNL     1       1.043  10.627  18.764  0.00  0.00    +0.000 A 
ATOM     23  C   UNL     1       1.759   9.441  18.593  0.00  0.00    +0.000 A 
ATOM     24  C   UNL     1       1.718   8.441  19.565  0.00  0.00    +0.000 A 
ATOM     25  C   UNL     1       0.957   8.656  20.720  0.00  0.00    +0.000 A 
BRANCH  20  27
ATOM     26  C   UNL     1       0.057   9.452  23.420  0.00  0.00    +0.000 C 
ATOM     27  C   UNL     1      -0.572  10.109  22.182  0.00  0.00    +0.000 C 
BRANCH  27  28
ATOM     28  C   UNL     1      -0.763  11.632  22.352  0.00  0.00    +0.000 C 
BRANCH  28  29
ATOM     29  C   UNL     1      -2.187  12.023  22.512  0.00  0.00    +0.000 A 
ATOM     30  N   UNL     1      -2.928  11.810  23.590  0.00  0.00    +0.000 NA
ATOM     31  N   UNL     1      -4.193  12.301  23.340  0.00  0.00    +0.000 NA
ATOM     32  C   UNL     1      -4.185  12.808  22.121  0.00  0.00    +0.000 A 
ATOM     33  N   UNL     1      -2.961  12.671  21.573  0.00  0.00    +0.000 N 
ATOM     34  C   UNL     1      -2.561  13.103  20.262  0.00  0.00    +0.000 C 
ENDBRANCH  28  29
ENDBRANCH  27  28
ENDBRANCH  20  27
ENDBRANCH   1  24
TORSDOF 6
ENDMDL
MODEL 2
REMARK VINA RESULT:      -8.5      0.980      1.115
REMARK  Name = 
REMARK  8 active torsions:
REMARK  status: ('A' for Active; 'I' for Inactive)
REMARK    1  A    between atoms: C_1  and  C_2
REMARK    2  A    between atoms: C_2  and  C_3
REMARK    3  A    between atoms: C_2  and  C_10
REMARK    4  A    between atoms: C_3  and  C_4
REMARK    5  A    between atoms: N_8  and  C_9
REMARK    6  A    between atoms: C_14  and  N_15
REMARK    7  A    between atoms: C_16  and  C_18
REMARK    8  A    between atoms: C_19  and  C_20
REMARK                            x       y       z     vdW  Elec       q    Type
REMARK                         _______ _______ _______ _____ _____    ______ ____
ROOT
ATOM      1  N   UNL     1       2.436   7.412  19.759  0.00  0.00    +0.000 N 
ATOM      2  C   UNL     1       2.479   6.436  18.791  0.00  0.00    +0.000 C 
ATOM      3  O   UNL     1       1.714   6.279  17.847  0.00  0.00    +0.000 OA
ATOM      4  H   UNL     1       3.137   7.397  20.487  0.00  0.00    +0.000 HD
ENDROOT
BRANCH   2   5
ATOM      5  C   UNL     1       3.676   5.564  18.786  0.00  0.00    +0.000 A 
ATOM      6  C   UNL     1       3.577   4.240  19.276  0.00  0.00    +0.000 A 
ATOM      7  C   UNL     1       4.443   3.236  18.771  0.00  0.00    +0.000 A 
ATOM      8  C   UNL     1       5.272   3.497  17.683  0.00  0.00    +0.000 A 
ATOM      9  C   UNL     1       5.307   4.798  17.219  0.00  0.00    +0.000 A 
ATOM     10  C   UNL     1       4.648   5.860  17.837  0.00  0.00    +0.000 A 
ATOM     11  C   UNL     1       4.894   7.082  17.021  0.00  0.00    +0.000 C 
ATOM     12  N   UNL     1       5.098   6.531  15.714  0.00  0.00    +0.000 N 
ATOM     13  C   UNL     1       5.470   5.198  15.808  0.00  0.00    +0.000 C 
ATOM     14  O   UNL     1       5.646   4.431  14.885  0.00  0.00    +0.000 OA
ATOM     15  H   UNL     1       4.397   6.695  14.994  0.00  0.00    +0.000 HD
BRANCH   6  16
ATOM     16  C   UNL     1       2.458   3.793  20.193  0.00  0.00    +0.000 C 
ATOM     17  F   UNL     1       2.244   4.570  21.286  0.00  0.00    +0.000 F 
ATOM     18  F   UNL     1       1.268   3.689  19.539  0.00  0.00    +0.000 F 
ATOM     19  F   UNL     1       2.704   2.547  20.695  0.00  0.00    +0.000 F 
ENDBRANCH   6  16
ENDBRANCH   2   5
BRANCH   1  24
ATOM     20  C   UNL     1       0.033   9.954  21.007  0.00  0.00    +0.000 A 
ATOM     21  C   UNL     1      -0.095  10.789  19.888  0.00  0.00    +0.000 A 
ATOM     22  C   UNL     1       0.607  10.513  18.716  0.00  0.00    +0.000 A 
ATOM     23  C   UNL     1       1.443   9.398  18.644  0.00  0.00    +0.000 A 
ATOM     24  C   UNL     1       1.584   8.545  19.739  0.00  0.00    +0.000 A 
ATOM     25  C   UNL     1       0.883   8.836  20.915  0.00  0.00    +0.000 A 
BRANCH  20  27
ATOM     26  C   UNL     1      -0.123   9.590  23.522  0.00  0.00    +0.000 C 
ATOM     27  C   UNL     1      -0.704  10.308  22.294  0.00  0.00    +0.000 C 
BRANCH  27  28
ATOM     28  C   UNL     1      -0.724  11.844  22.461  0.00  0.00    +0.000 C 
BRANCH  28  29
ATOM     29  C   UNL     1      -1.940  12.334  23.158  0.00  0.00    +0.000 A 
ATOM     30  N   UNL     1      -3.041  11.628  23.376  0.00  0.00    +0.000 NA
ATOM     31  N   UNL     1      -3.942  12.439  24.034  0.00  0.00    +0.000 NA
ATOM     32  C   UNL     1      -3.363  13.613  24.208  0.00  0.00    +0.000 A 
ATOM     33  N   UNL     1      -2.116  13.591  23.694  0.00  0.00    +0.000 N 
ATOM     34  C   UNL     1      -1.176  14.678  23.695  0.00  0.00    +0.000 C 
ENDBRANCH  28  29
ENDBRANCH  27  28
ENDBRANCH  20  27
ENDBRANCH   1  24
TORSDOF 6
ENDMDL
MODEL 3
REMARK VINA RESULT:      -8.2      0.576      1.090
REMARK  Name = 
REMARK  8 active torsions:
REMARK  status: ('A' for Active; 'I' for Inactive)
REMARK    1  A    between atoms: C_1  and  C_2
REMARK    2  A    between atoms: C_2  and  C_3
REMARK    3  A    between atoms: C_2  and  C_10
REMARK    4  A    between atoms: C_3  and  C_4
REMARK    5  A    between atoms: N_8  and  C_9
REMARK    6  A    between atoms: C_14  and  N_15
REMARK    7  A    between atoms: C_16  and  C_18
REMARK    8  A    between atoms: C_19  and  C_20
REMARK                            x       y       z     vdW  Elec       q    Type
REMARK                         _______ _______ _______ _____ _____    ______ ____
ROOT
ATOM      1  N   UNL     1       2.472   7.325  19.377  0.00  0.00    +0.000 N 
ATOM      2  C   UNL     1       2.346   6.366  18.399  0.00  0.00    +0.000 C 
ATOM      3  O   UNL     1       1.535   6.328  17.482  0.00  0.00    +0.000 OA
ATOM      4  H   UNL     1       3.189   7.204  20.079  0.00  0.00    +0.000 HD
ENDROOT
BRANCH   2   5
ATOM      5  C   UNL     1       3.412   5.338  18.343  0.00  0.00    +0.000 A 
ATOM      6  C   UNL     1       3.090   3.985  18.608  0.00  0.00    +0.000 A 
ATOM      7  C   UNL     1       3.859   2.950  18.015  0.00  0.00    +0.000 A 
ATOM      8  C   UNL     1       4.814   3.244  17.045  0.00  0.00    +0.000 A 
ATOM      9  C   UNL     1       5.066   4.580  16.797  0.00  0.00    +0.000 A 
ATOM     10  C   UNL     1       4.499   5.624  17.526  0.00  0.00    +0.000 A 
ATOM     11  C   UNL     1       4.983   6.904  16.935  0.00  0.00    +0.000 C 
ATOM     12  N   UNL     1       5.234   6.526  15.575  0.00  0.00    +0.000 N 
ATOM     13  C   UNL     1       5.414   5.154  15.484  0.00  0.00    +0.000 C 
ATOM     14  O   UNL     1       5.572   4.514  14.465  0.00  0.00    +0.000 OA
ATOM     15  H   UNL     1       4.632   6.894  14.841  0.00  0.00    +0.000 HD
BRANCH   6  16
ATOM     16  C   UNL     1       1.840   3.577  19.359  0.00  0.00    +0.000 C 
ATOM     17  F   UNL     1       1.500   4.364  20.412  0.00  0.00    +0.000 F 
ATOM     18  F   UNL     1       0.751   3.510  18.545  0.00  0.00    +0.000 F 
ATOM     19  F   UNL     1       1.973   2.325  19.889  0.00  0.00    +0.000 F 
ENDBRANCH   6  16
ENDBRANCH   2   5
BRANCH   1  24
ATOM     20  C   UNL     1       0.244  10.023  20.623  0.00  0.00    +0.000 A 
ATOM     21  C   UNL     1       0.399  10.995  19.625  0.00  0.00    +0.000 A 
ATOM     22  C   UNL     1       1.235  10.762  18.535  0.00  0.00    +0.000 A 
ATOM     23  C   UNL     1       1.924   9.553  18.424  0.00  0.00    +0.000 A 
ATOM     24  C   UNL     1       1.784   8.564  19.398  0.00  0.00    +0.000 A 
ATOM     25  C   UNL     1       0.950   8.812  20.495  0.00  0.00    +0.000 A 
BRANCH  20  27
ATOM     26  C   UNL     1      -0.087   9.702  23.127  0.00  0.00    +0.000 C 
ATOM     27  C   UNL     1      -0.634  10.324  21.833  0.00  0.00    +0.000 C 
BRANCH  27  28
ATOM     28  C   UNL     1      -0.831  11.852  21.949  0.00  0.00    +0.000 C 
BRANCH  28  29
ATOM     29  C   UNL     1      -2.197  12.289  21.566  0.00  0.00    +0.000 A 
ATOM     30  N   UNL     1      -2.601  12.570  20.335  0.00  0.00    +0.000 NA
ATOM     31  N   UNL     1      -3.924  12.953  20.398  0.00  0.00    +0.000 NA
ATOM     32  C   UNL     1      -4.295  12.886  21.663  0.00  0.00    +0.000 A 
ATOM     33  N   UNL     1      -3.262  12.466  22.423  0.00  0.00    +0.000 N 
ATOM     34  C   UNL     1      -3.278  12.266  23.846  0.00  0.00    +0.000 C 
ENDBRANCH  28  29
ENDBRANCH  27  28
ENDBRANCH  20  27
ENDBRANCH   1  24
TORSDOF 6
ENDMDL
MODEL 4
REMARK VINA RESULT:      -8.2      2.168      3.032
REMARK  Name = 
REMARK  8 active torsions:
REMARK  status: ('A' for Active; 'I' for Inactive)
REMARK    1  A    between atoms: C_1  and  C_2
REMARK    2  A    between atoms: C_2  and  C_3
REMARK    3  A    between atoms: C_2  and  C_10
REMARK    4  A    between atoms: C_3  and  C_4
REMARK    5  A    between atoms: N_8  and  C_9
REMARK    6  A    between atoms: C_14  and  N_15
REMARK    7  A    between atoms: C_16  and  C_18
REMARK    8  A    between atoms: C_19  and  C_20
REMARK                            x       y       z     vdW  Elec       q    Type
REMARK                         _______ _______ _______ _____ _____    ______ ____
ROOT
ATOM      1  N   UNL     1       2.219   6.857  19.710  0.00  0.00    +0.000 N 
ATOM      2  C   UNL     1       2.853   6.803  18.491  0.00  0.00    +0.000 C 
ATOM      3  O   UNL     1       2.927   7.683  17.642  0.00  0.00    +0.000 OA
ATOM      4  H   UNL     1       2.236   6.033  20.297  0.00  0.00    +0.000 HD
ENDROOT
BRANCH   2   5
ATOM      5  C   UNL     1       3.682   5.603  18.231  0.00  0.00    +0.000 A 
ATOM      6  C   UNL     1       3.058   4.394  17.842  0.00  0.00    +0.000 A 
ATOM      7  C   UNL     1       3.767   3.461  17.042  0.00  0.00    +0.000 A 
ATOM      8  C   UNL     1       5.004   3.793  16.496  0.00  0.00    +0.000 A 
ATOM      9  C   UNL     1       5.556   5.001  16.879  0.00  0.00    +0.000 A 
ATOM     10  C   UNL     1       4.997   5.837  17.844  0.00  0.00    +0.000 A 
ATOM     11  C   UNL     1       5.857   7.050  17.946  0.00  0.00    +0.000 C 
ATOM     12  N   UNL     1       6.429   7.119  16.633  0.00  0.00    +0.000 N 
ATOM     13  C   UNL     1       6.376   5.876  16.021  0.00  0.00    +0.000 C 
ATOM     14  O   UNL     1       6.712   5.617  14.884  0.00  0.00    +0.000 OA
ATOM     15  H   UNL     1       6.149   7.877  16.012  0.00  0.00    +0.000 HD
BRANCH   6  16
ATOM     16  C   UNL     1       1.589   4.121  18.088  0.00  0.00    +0.000 C 
ATOM     17  F   UNL     1       1.142   4.376  19.345  0.00  0.00    +0.000 F 
ATOM     18  F   UNL     1       0.788   4.815  17.233  0.00  0.00    +0.000 F 
ATOM     19  F   UNL     1       1.292   2.805  17.873  0.00  0.00    +0.000 F 
ENDBRANCH   6  16
ENDBRANCH   2   5
BRANCH   1  24
ATOM     20  C   UNL     1       0.457  10.120  19.921  0.00  0.00    +0.000 A 
ATOM     21  C   UNL     1       0.487  10.363  21.301  0.00  0.00    +0.000 A 
ATOM     22  C   UNL     1       1.093   9.455  22.166  0.00  0.00    +0.000 A 
ATOM     23  C   UNL     1       1.681   8.292  21.665  0.00  0.00    +0.000 A 
ATOM     24  C   UNL     1       1.674   8.026  20.296  0.00  0.00    +0.000 A 
ATOM     25  C   UNL     1       1.053   8.941  19.436  0.00  0.00    +0.000 A 
BRANCH  20  27
ATOM     26  C   UNL     1       0.691  12.152  18.405  0.00  0.00    +0.000 C 
ATOM     27  C   UNL     1      -0.259  11.103  19.001  0.00  0.00    +0.000 C 
BRANCH  27  28
ATOM     28  C   UNL     1      -1.026  10.314  17.916  0.00  0.00    +0.000 C 
BRANCH  28  29
ATOM     29  C   UNL     1      -2.404  10.823  17.696  0.00  0.00    +0.000 A 
ATOM     30  N   UNL     1      -3.138  11.471  18.590  0.00  0.00    +0.000 NA
ATOM     31  N   UNL     1      -4.357  11.757  18.012  0.00  0.00    +0.000 NA
ATOM     32  C   UNL     1      -4.329  11.285  16.779  0.00  0.00    +0.000 A 
ATOM     33  N   UNL     1      -3.134  10.710  16.534  0.00  0.00    +0.000 N 
ATOM     34  C   UNL     1      -2.726  10.088  15.304  0.00  0.00    +0.000 C 
ENDBRANCH  28  29
ENDBRANCH  27  28
ENDBRANCH  20  27
ENDBRANCH   1  24
TORSDOF 6
ENDMDL
MODEL 5
REMARK VINA RESULT:      -8.2      2.324      3.351
REMARK  Name = 
REMARK  8 active torsions:
REMARK  status: ('A' for Active; 'I' for Inactive)
REMARK    1  A    between atoms: C_1  and  C_2
REMARK    2  A    between atoms: C_2  and  C_3
REMARK    3  A    between atoms: C_2  and  C_10
REMARK    4  A    between atoms: C_3  and  C_4
REMARK    5  A    between atoms: N_8  and  C_9
REMARK    6  A    between atoms: C_14  and  N_15
REMARK    7  A    between atoms: C_16  and  C_18
REMARK    8  A    between atoms: C_19  and  C_20
REMARK                            x       y       z     vdW  Elec       q    Type
REMARK                         _______ _______ _______ _____ _____    ______ ____
ROOT
ATOM      1  N   UNL     1       1.980   7.443  18.152  0.00  0.00    +0.000 N 
ATOM      2  C   UNL     1       2.964   6.656  18.702  0.00  0.00    +0.000 C 
ATOM      3  O   UNL     1       3.791   6.968  19.549  0.00  0.00    +0.000 OA
ATOM      4  H   UNL     1       1.380   7.039  17.446  0.00  0.00    +0.000 HD
ENDROOT
BRANCH   2   5
ATOM      5  C   UNL     1       2.928   5.216  18.354  0.00  0.00    +0.000 A 
ATOM      6  C   UNL     1       3.935   4.675  17.519  0.00  0.00    +0.000 A 
ATOM      7  C   UNL     1       4.289   3.306  17.640  0.00  0.00    +0.000 A 
ATOM      8  C   UNL     1       3.781   2.533  18.681  0.00  0.00    +0.000 A 
ATOM      9  C   UNL     1       2.827   3.119  19.490  0.00  0.00    +0.000 A 
ATOM     10  C   UNL     1       2.283   4.381  19.259  0.00  0.00    +0.000 A 
ATOM     11  C   UNL     1       1.326   4.671  20.364  0.00  0.00    +0.000 C 
ATOM     12  N   UNL     1       1.866   3.891  21.438  0.00  0.00    +0.000 N 
ATOM     13  C   UNL     1       2.667   2.875  20.936  0.00  0.00    +0.000 C 
ATOM     14  O   UNL     1       3.324   2.088  21.585  0.00  0.00    +0.000 OA
ATOM     15  H   UNL     1       2.286   4.368  22.233  0.00  0.00    +0.000 HD
BRANCH   6  16
ATOM     16  C   UNL     1       4.791   5.535  16.613  0.00  0.00    +0.000 C 
ATOM     17  F   UNL     1       4.233   6.704  16.208  0.00  0.00    +0.000 F 
ATOM     18  F   UNL     1       5.990   5.842  17.182  0.00  0.00    +0.000 F 
ATOM     19  F   UNL     1       5.098   4.876  15.457  0.00  0.00    +0.000 F 
ENDBRANCH   6  16
ENDBRANCH   2   5
BRANCH   1  24
ATOM     20  C   UNL     1       0.532  10.056  20.360  0.00  0.00    +0.000 A 
ATOM     21  C   UNL     1       0.891  11.227  19.678  0.00  0.00    +0.000 A 
ATOM     22  C   UNL     1       1.607  11.158  18.485  0.00  0.00    +0.000 A 
ATOM     23  C   UNL     1       1.971   9.920  17.954  0.00  0.00    +0.000 A 
ATOM     24  C   UNL     1       1.621   8.737  18.606  0.00  0.00    +0.000 A 
ATOM     25  C   UNL     1       0.911   8.817  19.809  0.00  0.00    +0.000 A 
BRANCH  20  27
ATOM     26  C   UNL     1       0.488   9.367  22.811  0.00  0.00    +0.000 C 
ATOM     27  C   UNL     1      -0.204  10.159  21.691  0.00  0.00    +0.000 C 
BRANCH  27  28
ATOM     28  C   UNL     1      -0.395  11.649  22.050  0.00  0.00    +0.000 C 
BRANCH  28  29
ATOM     29  C   UNL     1      -1.814  12.005  22.308  0.00  0.00    +0.000 A 
ATOM     30  N   UNL     1      -2.482  11.752  23.424  0.00  0.00    +0.000 NA
ATOM     31  N   UNL     1      -3.769  12.221  23.265  0.00  0.00    +0.000 NA
ATOM     32  C   UNL     1      -3.848  12.757  22.061  0.00  0.00    +0.000 A 
ATOM     33  N   UNL     1      -2.657  12.659  21.435  0.00  0.00    +0.000 N 
ATOM     34  C   UNL     1      -2.349  13.130  20.113  0.00  0.00    +0.000 C 
ENDBRANCH  28  29
ENDBRANCH  27  28
ENDBRANCH  20  27
ENDBRANCH   1  24
TORSDOF 6
ENDMDL
MODEL 6
REMARK VINA RESULT:      -8.1      2.829      3.692
REMARK  Name = 
REMARK  8 active torsions:
REMARK  status: ('A' for Active; 'I' for Inactive)
REMARK    1  A    between atoms: C_1  and  C_2
REMARK    2  A    between atoms: C_2  and  C_3
REMARK    3  A    between atoms: C_2  and  C_10
REMARK    4  A    between atoms: C_3  and  C_4
REMARK    5  A    between atoms: N_8  and  C_9
REMARK    6  A    between atoms: C_14  and  N_15
REMARK    7  A    between atoms: C_16  and  C_18
REMARK    8  A    between atoms: C_19  and  C_20
REMARK                            x       y       z     vdW  Elec       q    Type
REMARK                         _______ _______ _______ _____ _____    ______ ____
ROOT
ATOM      1  N   UNL     1       3.116   6.657  19.070  0.00  0.00    +0.000 N 
ATOM      2  C   UNL     1       3.601   5.506  19.645  0.00  0.00    +0.000 C 
ATOM      3  O   UNL     1       3.432   5.108  20.790  0.00  0.00    +0.000 OA
ATOM      4  H   UNL     1       3.359   6.854  18.109  0.00  0.00    +0.000 HD
ENDROOT
BRANCH   2   5
ATOM      5  C   UNL     1       4.274   4.549  18.736  0.00  0.00    +0.000 A 
ATOM      6  C   UNL     1       3.507   3.830  17.788  0.00  0.00    +0.000 A 
ATOM      7  C   UNL     1       4.108   3.402  16.575  0.00  0.00    +0.000 A 
ATOM      8  C   UNL     1       5.389   3.825  16.232  0.00  0.00    +0.000 A 
ATOM      9  C   UNL     1       6.083   4.555  17.178  0.00  0.00    +0.000 A 
ATOM     10  C   UNL     1       5.616   4.795  18.469  0.00  0.00    +0.000 A 
ATOM     11  C   UNL     1       6.623   5.644  19.165  0.00  0.00    +0.000 C 
ATOM     12  N   UNL     1       7.228   6.345  18.070  0.00  0.00    +0.000 N 
ATOM     13  C   UNL     1       7.029   5.649  16.887  0.00  0.00    +0.000 C 
ATOM     14  O   UNL     1       7.353   6.010  15.775  0.00  0.00    +0.000 OA
ATOM     15  H   UNL     1       7.063   7.345  17.973  0.00  0.00    +0.000 HD
BRANCH   6  16
ATOM     16  C   UNL     1       2.010   3.646  17.922  0.00  0.00    +0.000 C 
ATOM     17  F   UNL     1       1.525   3.654  19.190  0.00  0.00    +0.000 F 
ATOM     18  F   UNL     1       1.313   4.585  17.224  0.00  0.00    +0.000 F 
ATOM     19  F   UNL     1       1.614   2.445  17.406  0.00  0.00    +0.000 F 
ENDBRANCH   6  16
ENDBRANCH   2   5
BRANCH   1  24
ATOM     20  C   UNL     1       0.769   9.519  19.380  0.00  0.00    +0.000 A 
ATOM     21  C   UNL     1       0.231   9.302  20.656  0.00  0.00    +0.000 A 
ATOM     22  C   UNL     1       0.645   8.213  21.421  0.00  0.00    +0.000 A 
ATOM     23  C   UNL     1       1.604   7.329  20.924  0.00  0.00    +0.000 A 
ATOM     24  C   UNL     1       2.163   7.524  19.661  0.00  0.00    +0.000 A 
ATOM     25  C   UNL     1       1.733   8.615  18.896  0.00  0.00    +0.000 A 
BRANCH  20  27
ATOM     26  C   UNL     1      -1.116  10.408  17.917  0.00  0.00    +0.000 C 
ATOM     27  C   UNL     1       0.260  10.687  18.541  0.00  0.00    +0.000 C 
BRANCH  27  28
ATOM     28  C   UNL     1       0.271  11.971  19.400  0.00  0.00    +0.000 C 
BRANCH  28  29
ATOM     29  C   UNL     1       1.487  12.797  19.190  0.00  0.00    +0.000 A 
ATOM     30  N   UNL     1       2.297  12.723  18.143  0.00  0.00    +0.000 NA
ATOM     31  N   UNL     1       3.314  13.637  18.327  0.00  0.00    +0.000 NA
ATOM     32  C   UNL     1       3.090  14.250  19.475  0.00  0.00    +0.000 A 
ATOM     33  N   UNL     1       1.962  13.772  20.039  0.00  0.00    +0.000 N 
ATOM     34  C   UNL     1       1.391  14.194  21.288  0.00  0.00    +0.000 C 
ENDBRANCH  28  29
ENDBRANCH  27  28
ENDBRANCH  20  27
ENDBRANCH   1  24
TORSDOF 6
ENDMDL
MODEL 7
REMARK VINA RESULT:      -8.1      2.373      3.138
REMARK  Name = 
REMARK  8 active torsions:
REMARK  status: ('A' for Active; 'I' for Inactive)
REMARK    1  A    between atoms: C_1  and  C_2
REMARK    2  A    between atoms: C_2  and  C_3
REMARK    3  A    between atoms: C_2  and  C_10
REMARK    4  A    between atoms: C_3  and  C_4
REMARK    5  A    between atoms: N_8  and  C_9
REMARK    6  A    between atoms: C_14  and  N_15
REMARK    7  A    between atoms: C_16  and  C_18
REMARK    8  A    between atoms: C_19  and  C_20
REMARK                            x       y       z     vdW  Elec       q    Type
REMARK                         _______ _______ _______ _____ _____    ______ ____
ROOT
ATOM      1  N   UNL     1       3.193   6.668  19.154  0.00  0.00    +0.000 N 
ATOM      2  C   UNL     1       3.612   5.437  19.602  0.00  0.00    +0.000 C 
ATOM      3  O   UNL     1       3.320   4.879  20.652  0.00  0.00    +0.000 OA
ATOM      4  H   UNL     1       3.539   6.998  18.264  0.00  0.00    +0.000 HD
ENDROOT
BRANCH   2   5
ATOM      5  C   UNL     1       4.379   4.612  18.640  0.00  0.00    +0.000 A 
ATOM      6  C   UNL     1       3.712   4.022  17.539  0.00  0.00    +0.000 A 
ATOM      7  C   UNL     1       4.426   3.762  16.341  0.00  0.00    +0.000 A 
ATOM      8  C   UNL     1       5.726   4.232  16.174  0.00  0.00    +0.000 A 
ATOM      9  C   UNL     1       6.321   4.832  17.268  0.00  0.00    +0.000 A 
ATOM     10  C   UNL     1       5.736   4.896  18.531  0.00  0.00    +0.000 A 
ATOM     11  C   UNL     1       6.663   5.649  19.422  0.00  0.00    +0.000 C 
ATOM     12  N   UNL     1       7.353   6.492  18.490  0.00  0.00    +0.000 N 
ATOM     13  C   UNL     1       7.272   5.958  17.212  0.00  0.00    +0.000 C 
ATOM     14  O   UNL     1       7.689   6.465  16.191  0.00  0.00    +0.000 OA
ATOM     15  H   UNL     1       7.181   7.495  18.510  0.00  0.00    +0.000 HD
BRANCH   6  16
ATOM     16  C   UNL     1       2.212   3.817  17.511  0.00  0.00    +0.000 C 
ATOM     17  F   UNL     1       1.461   4.947  17.470  0.00  0.00    +0.000 F 
ATOM     18  F   UNL     1       1.820   3.040  16.463  0.00  0.00    +0.000 F 
ATOM     19  F   UNL     1       1.787   3.156  18.629  0.00  0.00    +0.000 F 
ENDBRANCH   6  16
ENDBRANCH   2   5
BRANCH   1  24
ATOM     20  C   UNL     1       0.853   9.510  19.646  0.00  0.00    +0.000 A 
ATOM     21  C   UNL     1       0.158   9.104  20.793  0.00  0.00    +0.000 A 
ATOM     22  C   UNL     1       0.463   7.893  21.412  0.00  0.00    +0.000 A 
ATOM     23  C   UNL     1       1.468   7.073  20.896  0.00  0.00    +0.000 A 
ATOM     24  C   UNL     1       2.182   7.455  19.760  0.00  0.00    +0.000 A 
ATOM     25  C   UNL     1       1.861   8.669  19.139  0.00  0.00    +0.000 A 
BRANCH  20  27
ATOM     26  C   UNL     1       1.681  11.585  18.424  0.00  0.00    +0.000 C 
ATOM     27  C   UNL     1       0.464  10.814  18.956  0.00  0.00    +0.000 C 
BRANCH  27  28
ATOM     28  C   UNL     1      -0.574  10.512  17.852  0.00  0.00    +0.000 C 
BRANCH  28  29
ATOM     29  C   UNL     1      -1.921  11.056  18.161  0.00  0.00    +0.000 A 
ATOM     30  N   UNL     1      -2.267  11.665  19.287  0.00  0.00    +0.000 NA
ATOM     31  N   UNL     1      -3.601  12.005  19.194  0.00  0.00    +0.000 NA
ATOM     32  C   UNL     1      -4.028  11.604  18.011  0.00  0.00    +0.000 A 
ATOM     33  N   UNL     1      -3.020  11.022  17.330  0.00  0.00    +0.000 N 
ATOM     34  C   UNL     1      -3.096  10.464  16.008  0.00  0.00    +0.000 C 
ENDBRANCH  28  29
ENDBRANCH  27  28
ENDBRANCH  20  27
ENDBRANCH   1  24
TORSDOF 6
ENDMDL
MODEL 8
REMARK VINA RESULT:      -8.1      2.536      3.109
REMARK  Name = 
REMARK  8 active torsions:
REMARK  status: ('A' for Active; 'I' for Inactive)
REMARK    1  A    between atoms: C_1  and  C_2
REMARK    2  A    between atoms: C_2  and  C_3
REMARK    3  A    between atoms: C_2  and  C_10
REMARK    4  A    between atoms: C_3  and  C_4
REMARK    5  A    between atoms: N_8  and  C_9
REMARK    6  A    between atoms: C_14  and  N_15
REMARK    7  A    between atoms: C_16  and  C_18
REMARK    8  A    between atoms: C_19  and  C_20
REMARK                            x       y       z     vdW  Elec       q    Type
REMARK                         _______ _______ _______ _____ _____    ______ ____
ROOT
ATOM      1  N   UNL     1       3.240   6.698  19.073  0.00  0.00    +0.000 N 
ATOM      2  C   UNL     1       3.624   5.466  19.549  0.00  0.00    +0.000 C 
ATOM      3  O   UNL     1       3.309   4.938  20.608  0.00  0.00    +0.000 OA
ATOM      4  H   UNL     1       3.602   7.001  18.179  0.00  0.00    +0.000 HD
ENDROOT
BRANCH   2   5
ATOM      5  C   UNL     1       4.377   4.602  18.611  0.00  0.00    +0.000 A 
ATOM      6  C   UNL     1       3.694   3.968  17.545  0.00  0.00    +0.000 A 
ATOM      7  C   UNL     1       4.391   3.658  16.348  0.00  0.00    +0.000 A 
ATOM      8  C   UNL     1       5.689   4.120  16.145  0.00  0.00    +0.000 A 
ATOM      9  C   UNL     1       6.299   4.764  17.204  0.00  0.00    +0.000 A 
ATOM     10  C   UNL     1       5.732   4.880  18.472  0.00  0.00    +0.000 A 
ATOM     11  C   UNL     1       6.672   5.669  19.318  0.00  0.00    +0.000 C 
ATOM     12  N   UNL     1       7.348   6.472  18.342  0.00  0.00    +0.000 N 
ATOM     13  C   UNL     1       7.249   5.887  17.088  0.00  0.00    +0.000 C 
ATOM     14  O   UNL     1       7.652   6.351  16.042  0.00  0.00    +0.000 OA
ATOM     15  H   UNL     1       7.177   7.475  18.323  0.00  0.00    +0.000 HD
BRANCH   6  16
ATOM     16  C   UNL     1       2.194   3.763  17.547  0.00  0.00    +0.000 C 
ATOM     17  F   UNL     1       1.443   4.886  17.413  0.00  0.00    +0.000 F 
ATOM     18  F   UNL     1       1.793   2.898  16.574  0.00  0.00    +0.000 F 
ATOM     19  F   UNL     1       1.777   3.204  18.721  0.00  0.00    +0.000 F 
ENDBRANCH   6  16
ENDBRANCH   2   5
BRANCH   1  24
ATOM     20  C   UNL     1       0.863   9.532  19.411  0.00  0.00    +0.000 A 
ATOM     21  C   UNL     1       0.242   9.230  20.631  0.00  0.00    +0.000 A 
ATOM     22  C   UNL     1       0.608   8.093  21.348  0.00  0.00    +0.000 A 
ATOM     23  C   UNL     1       1.603   7.244  20.860  0.00  0.00    +0.000 A 
ATOM     24  C   UNL     1       2.245   7.524  19.653  0.00  0.00    +0.000 A 
ATOM     25  C   UNL     1       1.863   8.663  18.935  0.00  0.00    +0.000 A 
BRANCH  20  27
ATOM     26  C   UNL     1      -1.002  11.220  19.016  0.00  0.00    +0.000 C 
ATOM     27  C   UNL     1       0.407  10.753  18.619  0.00  0.00    +0.000 C 
BRANCH  27  28
ATOM     28  C   UNL     1       1.463  11.872  18.760  0.00  0.00    +0.000 C 
BRANCH  28  29
ATOM     29  C   UNL     1       1.197  12.777  19.908  0.00  0.00    +0.000 A 
ATOM     30  N   UNL     1       1.528  12.539  21.169  0.00  0.00    +0.000 NA
ATOM     31  N   UNL     1       1.096  13.606  21.930  0.00  0.00    +0.000 NA
ATOM     32  C   UNL     1       0.524  14.468  21.110  0.00  0.00    +0.000 A 
ATOM     33  N   UNL     1       0.574  14.004  19.845  0.00  0.00    +0.000 N 
ATOM     34  C   UNL     1       0.059  14.662  18.676  0.00  0.00    +0.000 C 
ENDBRANCH  28  29
ENDBRANCH  27  28
ENDBRANCH  20  27
ENDBRANCH   1  24
TORSDOF 6
ENDMDL
MODEL 9
REMARK VINA RESULT:      -8.0      2.467      3.364
REMARK  Name = 
REMARK  8 active torsions:
REMARK  status: ('A' for Active; 'I' for Inactive)
REMARK    1  A    between atoms: C_1  and  C_2
REMARK    2  A    between atoms: C_2  and  C_3
REMARK    3  A    between atoms: C_2  and  C_10
REMARK    4  A    between atoms: C_3  and  C_4
REMARK    5  A    between atoms: N_8  and  C_9
REMARK    6  A    between atoms: C_14  and  N_15
REMARK    7  A    between atoms: C_16  and  C_18
REMARK    8  A    between atoms: C_19  and  C_20
REMARK                            x       y       z     vdW  Elec       q    Type
REMARK                         _______ _______ _______ _____ _____    ______ ____
ROOT
ATOM      1  N   UNL     1       2.375   6.870  20.122  0.00  0.00    +0.000 N 
ATOM      2  C   UNL     1       2.480   6.358  18.849  0.00  0.00    +0.000 C 
ATOM      3  O   UNL     1       1.898   6.731  17.839  0.00  0.00    +0.000 OA
ATOM      4  H   UNL     1       2.915   6.438  20.859  0.00  0.00    +0.000 HD
ENDROOT
BRANCH   2   5
ATOM      5  C   UNL     1       3.537   5.343  18.632  0.00  0.00    +0.000 A 
ATOM      6  C   UNL     1       3.225   3.970  18.776  0.00  0.00    +0.000 A 
ATOM      7  C   UNL     1       3.956   3.001  18.040  0.00  0.00    +0.000 A 
ATOM      8  C   UNL     1       4.858   3.393  17.055  0.00  0.00    +0.000 A 
ATOM      9  C   UNL     1       5.102   4.748  16.930  0.00  0.00    +0.000 A 
ATOM     10  C   UNL     1       4.580   5.712  17.791  0.00  0.00    +0.000 A 
ATOM     11  C   UNL     1       5.036   7.046  17.306  0.00  0.00    +0.000 C 
ATOM     12  N   UNL     1       5.211   6.808  15.904  0.00  0.00    +0.000 N 
ATOM     13  C   UNL     1       5.381   5.452  15.665  0.00  0.00    +0.000 C 
ATOM     14  O   UNL     1       5.481   4.919  14.580  0.00  0.00    +0.000 OA
ATOM     15  H   UNL     1       4.572   7.248  15.245  0.00  0.00    +0.000 HD
BRANCH   6  16
ATOM     16  C   UNL     1       2.016   3.486  19.549  0.00  0.00    +0.000 C 
ATOM     17  F   UNL     1       1.959   3.859  20.853  0.00  0.00    +0.000 F 
ATOM     18  F   UNL     1       0.847   3.879  18.971  0.00  0.00    +0.000 F 
ATOM     19  F   UNL     1       1.964   2.121  19.575  0.00  0.00    +0.000 F 
ENDBRANCH   6  16
ENDBRANCH   2   5
BRANCH   1  24
ATOM     20  C   UNL     1       0.545  10.068  19.651  0.00  0.00    +0.000 A 
ATOM     21  C   UNL     1       0.268  10.427  20.977  0.00  0.00    +0.000 A 
ATOM     22  C   UNL     1       0.689   9.619  22.031  0.00  0.00    +0.000 A 
ATOM     23  C   UNL     1       1.395   8.443  21.777  0.00  0.00    +0.000 A 
ATOM     24  C   UNL     1       1.692   8.062  20.468  0.00  0.00    +0.000 A 
ATOM     25  C   UNL     1       1.256   8.876  19.415  0.00  0.00    +0.000 A 
BRANCH  20  27
ATOM     26  C   UNL     1      -1.285  10.412  17.914  0.00  0.00    +0.000 C 
ATOM     27  C   UNL     1       0.027  10.941  18.513  0.00  0.00    +0.000 C 
BRANCH  27  28
ATOM     28  C   UNL     1      -0.094  12.399  19.009  0.00  0.00    +0.000 C 
BRANCH  28  29
ATOM     29  C   UNL     1       1.114  13.212  18.714  0.00  0.00    +0.000 A 
ATOM     30  N   UNL     1       2.304  12.732  18.385  0.00  0.00    +0.000 NA
ATOM     31  N   UNL     1       3.160  13.800  18.209  0.00  0.00    +0.000 NA
ATOM     32  C   UNL     1       2.465  14.901  18.426  0.00  0.00    +0.000 A 
ATOM     33  N   UNL     1       1.188  14.588  18.729  0.00  0.00    +0.000 N 
ATOM     34  C   UNL     1       0.131  15.515  19.024  0.00  0.00    +0.000 C 
ENDBRANCH  28  29
ENDBRANCH  27  28
ENDBRANCH  20  27
ENDBRANCH   1  24
TORSDOF 6
ENDMDL
