MODEL 1
REMARK VINA RESULT:      -7.0      0.000      0.000
REMARK  Name = 
REMARK  4 active torsions:
REMARK  status: ('A' for Active; 'I' for Inactive)
REMARK    1  A    between atoms: C_1  and  C_2
REMARK    2  A    between atoms: C_10  and  C_11
REMARK    3  A    between atoms: C_12  and  C_13
REMARK    4  A    between atoms: N_24  and  C_25
REMARK                            x       y       z     vdW  Elec       q    Type
REMARK                         _______ _______ _______ _____ _____    ______ ____
ROOT
ATOM      1  C   UNL     1       0.949  13.956  21.106  0.00  0.00    +0.000 C 
ATOM      2  O   UNL     1       0.930  14.257  22.300  0.00  0.00    +0.000 OA
ATOM      3  N   UNL     1       0.733  12.627  20.706  0.00  0.00    +0.000 N 
ATOM      4  C   UNL     1       0.404  11.657  21.753  0.00  0.00    +0.000 C 
ATOM      5  C   UNL     1      -0.571  10.604  21.247  0.00  0.00    +0.000 C 
ATOM      6  C   UNL     1      -0.175   9.988  19.913  0.00  0.00    +0.000 C 
ATOM      7  C   UNL     1       0.312  10.994  18.864  0.00  0.00    +0.000 C 
ATOM      8  C   UNL     1       1.293  12.015  19.501  0.00  0.00    +0.000 C 
ATOM      9  N   UNL     1       0.989  10.130  17.923  0.00  0.00    +0.000 N 
ATOM     10  C   UNL     1       1.513   9.035  18.609  0.00  0.00    +0.000 C 
ATOM     11  O   UNL     1       2.388   8.305  18.184  0.00  0.00    +0.000 OA
ATOM     12  N   UNL     1       0.905   9.015  19.867  0.00  0.00    +0.000 N 
ATOM     13  C   UNL     1       1.352   8.210  20.973  0.00  0.00    +0.000 C 
ATOM     14  H   UNL     1       1.413  10.417  17.051  0.00  0.00    +0.000 HD
ENDROOT
BRANCH   1  26
ATOM     15  C   UNL     1       3.667  14.667  19.863  0.00  0.00    +0.000 C 
ATOM     16  C   UNL     1       2.379  15.353  19.550  0.00  0.00    +0.000 A 
ATOM     17  N   UNL     1       2.569  16.329  18.632  0.00  0.00    +0.000 NA
ATOM     18  C   UNL     1       1.525  16.979  18.136  0.00  0.00    +0.000 A 
ATOM     19  C   UNL     1       1.813  17.910  17.152  0.00  0.00    +0.000 A 
ATOM     20  C   UNL     1       0.813  18.631  16.511  0.00  0.00    +0.000 A 
ATOM     21  C   UNL     1      -0.507  18.410  16.859  0.00  0.00    +0.000 A 
ATOM     22  C   UNL     1      -0.815  17.481  17.863  0.00  0.00    +0.000 A 
ATOM     23  C   UNL     1       0.203  16.733  18.543  0.00  0.00    +0.000 A 
ATOM     24  C   UNL     1       0.001  15.767  19.579  0.00  0.00    +0.000 A 
ATOM     25  C   UNL     1      -1.396  15.453  20.070  0.00  0.00    +0.000 C 
ATOM     26  C   UNL     1       1.128  15.070  20.110  0.00  0.00    +0.000 A 
ENDBRANCH   1  26
TORSDOF 1
ENDMDL
MODEL 2
REMARK VINA RESULT:      -6.9      3.664      7.097
REMARK  Name = 
REMARK  4 active torsions:
REMARK  status: ('A' for Active; 'I' for Inactive)
REMARK    1  A    between atoms: C_1  and  C_2
REMARK    2  A    between atoms: C_10  and  C_11
REMARK    3  A    between atoms: C_12  and  C_13
REMARK    4  A    between atoms: N_24  and  C_25
REMARK                            x       y       z     vdW  Elec       q    Type
REMARK                         _______ _______ _______ _____ _____    ______ ____
ROOT
ATOM      1  C   UNL     1      -0.865  12.797  22.089  0.00  0.00    +0.000 C 
ATOM      2  O   UNL     1      -0.126  13.301  22.935  0.00  0.00    +0.000 OA
ATOM      3  N   UNL     1      -2.219  13.168  22.019  0.00  0.00    +0.000 N 
ATOM      4  C   UNL     1      -2.672  14.224  22.925  0.00  0.00    +0.000 C 
ATOM      5  C   UNL     1      -3.742  15.091  22.277  0.00  0.00    +0.000 C 
ATOM      6  C   UNL     1      -4.860  14.298  21.614  0.00  0.00    +0.000 C 
ATOM      7  C   UNL     1      -4.388  13.100  20.783  0.00  0.00    +0.000 C 
ATOM      8  C   UNL     1      -3.299  12.301  21.547  0.00  0.00    +0.000 C 
ATOM      9  N   UNL     1      -5.609  12.336  20.653  0.00  0.00    +0.000 N 
ATOM     10  C   UNL     1      -6.399  12.549  21.783  0.00  0.00    +0.000 C 
ATOM     11  O   UNL     1      -7.315  11.830  22.132  0.00  0.00    +0.000 OA
ATOM     12  N   UNL     1      -5.873  13.664  22.442  0.00  0.00    +0.000 N 
ATOM     13  C   UNL     1      -6.228  14.058  23.780  0.00  0.00    +0.000 C 
ATOM     14  H   UNL     1      -5.723  11.483  20.124  0.00  0.00    +0.000 HD
ENDROOT
BRANCH   1  26
ATOM     15  C   UNL     1       0.012  13.654  19.272  0.00  0.00    +0.000 C 
ATOM     16  C   UNL     1       0.159  12.278  19.831  0.00  0.00    +0.000 A 
ATOM     17  N   UNL     1       0.744  11.457  18.928  0.00  0.00    +0.000 NA
ATOM     18  C   UNL     1       1.068  10.219  19.278  0.00  0.00    +0.000 A 
ATOM     19  C   UNL     1       1.726   9.478  18.309  0.00  0.00    +0.000 A 
ATOM     20  C   UNL     1       2.165   8.183  18.553  0.00  0.00    +0.000 A 
ATOM     21  C   UNL     1       1.947   7.618  19.796  0.00  0.00    +0.000 A 
ATOM     22  C   UNL     1       1.271   8.349  20.783  0.00  0.00    +0.000 A 
ATOM     23  C   UNL     1       0.801   9.684  20.549  0.00  0.00    +0.000 A 
ATOM     24  C   UNL     1       0.100  10.516  21.480  0.00  0.00    +0.000 A 
ATOM     25  C   UNL     1      -0.225  10.005  22.867  0.00  0.00    +0.000 C 
ATOM     26  C   UNL     1      -0.246  11.848  21.099  0.00  0.00    +0.000 A 
ENDBRANCH   1  26
TORSDOF 1
ENDMDL
MODEL 3
REMARK VINA RESULT:      -6.6      4.510      7.925
REMARK  Name = 
REMARK  4 active torsions:
REMARK  status: ('A' for Active; 'I' for Inactive)
REMARK    1  A    between atoms: C_1  and  C_2
REMARK    2  A    between atoms: C_10  and  C_11
REMARK    3  A    between atoms: C_12  and  C_13
REMARK    4  A    between atoms: N_24  and  C_25
REMARK                            x       y       z     vdW  Elec       q    Type
REMARK                         _______ _______ _______ _____ _____    ______ ____
ROOT
ATOM      1  C   UNL     1      -2.548  13.568  20.560  0.00  0.00    +0.000 C 
ATOM      2  O   UNL     1      -1.944  14.605  20.281  0.00  0.00    +0.000 OA
ATOM      3  N   UNL     1      -3.923  13.603  20.844  0.00  0.00    +0.000 N 
ATOM      4  C   UNL     1      -4.603  14.892  20.709  0.00  0.00    +0.000 C 
ATOM      5  C   UNL     1      -6.030  14.718  20.208  0.00  0.00    +0.000 C 
ATOM      6  C   UNL     1      -6.822  13.658  20.960  0.00  0.00    +0.000 C 
ATOM      7  C   UNL     1      -6.055  12.360  21.232  0.00  0.00    +0.000 C 
ATOM      8  C   UNL     1      -4.618  12.669  21.731  0.00  0.00    +0.000 C 
ATOM      9  N   UNL     1      -6.857  11.759  22.274  0.00  0.00    +0.000 N 
ATOM     10  C   UNL     1      -7.452  12.770  23.028  0.00  0.00    +0.000 C 
ATOM     11  O   UNL     1      -7.916  12.622  24.141  0.00  0.00    +0.000 OA
ATOM     12  N   UNL     1      -7.322  13.953  22.293  0.00  0.00    +0.000 N 
ATOM     13  C   UNL     1      -7.567  15.268  22.823  0.00  0.00    +0.000 C 
ATOM     14  H   UNL     1      -6.702  10.854  22.696  0.00  0.00    +0.000 HD
ENDROOT
BRANCH   1  26
ATOM     15  C   UNL     1      -2.039  12.041  17.943  0.00  0.00    +0.000 C 
ATOM     16  C   UNL     1      -1.549  11.618  19.288  0.00  0.00    +0.000 A 
ATOM     17  N   UNL     1      -0.838  10.470  19.197  0.00  0.00    +0.000 NA
ATOM     18  C   UNL     1      -0.220   9.992  20.269  0.00  0.00    +0.000 A 
ATOM     19  C   UNL     1       0.540   8.852  20.061  0.00  0.00    +0.000 A 
ATOM     20  C   UNL     1       1.278   8.270  21.083  0.00  0.00    +0.000 A 
ATOM     21  C   UNL     1       1.261   8.844  22.341  0.00  0.00    +0.000 A 
ATOM     22  C   UNL     1       0.486   9.990  22.572  0.00  0.00    +0.000 A 
ATOM     23  C   UNL     1      -0.290  10.602  21.532  0.00  0.00    +0.000 A 
ATOM     24  C   UNL     1      -1.115  11.766  21.658  0.00  0.00    +0.000 A 
ATOM     25  C   UNL     1      -1.241  12.473  22.990  0.00  0.00    +0.000 C 
ATOM     26  C   UNL     1      -1.778  12.276  20.501  0.00  0.00    +0.000 A 
ENDBRANCH   1  26
TORSDOF 1
ENDMDL
MODEL 4
REMARK VINA RESULT:      -6.5      2.734      6.556
REMARK  Name = 
REMARK  4 active torsions:
REMARK  status: ('A' for Active; 'I' for Inactive)
REMARK    1  A    between atoms: C_1  and  C_2
REMARK    2  A    between atoms: C_10  and  C_11
REMARK    3  A    between atoms: C_12  and  C_13
REMARK    4  A    between atoms: N_24  and  C_25
REMARK                            x       y       z     vdW  Elec       q    Type
REMARK                         _______ _______ _______ _____ _____    ______ ____
ROOT
ATOM      1  C   UNL     1       0.273  12.467  20.783  0.00  0.00    +0.000 C 
ATOM      2  O   UNL     1       0.508  11.821  21.805  0.00  0.00    +0.000 OA
ATOM      3  N   UNL     1       1.125  13.514  20.394  0.00  0.00    +0.000 N 
ATOM      4  C   UNL     1       2.326  13.735  21.201  0.00  0.00    +0.000 C 
ATOM      5  C   UNL     1       3.494  14.198  20.342  0.00  0.00    +0.000 C 
ATOM      6  C   UNL     1       3.148  15.337  19.392  0.00  0.00    +0.000 C 
ATOM      7  C   UNL     1       1.813  15.173  18.658  0.00  0.00    +0.000 C 
ATOM      8  C   UNL     1       0.707  14.694  19.636  0.00  0.00    +0.000 C 
ATOM      9  N   UNL     1       1.563  16.521  18.200  0.00  0.00    +0.000 N 
ATOM     10  C   UNL     1       2.127  17.419  19.106  0.00  0.00    +0.000 C 
ATOM     11  O   UNL     1       1.833  18.596  19.189  0.00  0.00    +0.000 OA
ATOM     12  N   UNL     1       2.996  16.684  19.918  0.00  0.00    +0.000 N 
ATOM     13  C   UNL     1       3.576  17.175  21.140  0.00  0.00    +0.000 C 
ATOM     14  H   UNL     1       0.787  16.820  17.626  0.00  0.00    +0.000 HD
ENDROOT
BRANCH   1  26
ATOM     15  C   UNL     1      -2.534  13.679  21.079  0.00  0.00    +0.000 C 
ATOM     16  C   UNL     1      -2.159  12.624  20.092  0.00  0.00    +0.000 A 
ATOM     17  N   UNL     1      -3.226  12.280  19.333  0.00  0.00    +0.000 NA
ATOM     18  C   UNL     1      -3.068  11.440  18.319  0.00  0.00    +0.000 A 
ATOM     19  C   UNL     1      -4.202  11.203  17.559  0.00  0.00    +0.000 A 
ATOM     20  C   UNL     1      -4.173  10.381  16.439  0.00  0.00    +0.000 A 
ATOM     21  C   UNL     1      -2.980   9.787  16.068  0.00  0.00    +0.000 A 
ATOM     22  C   UNL     1      -1.827  10.006  16.834  0.00  0.00    +0.000 A 
ATOM     23  C   UNL     1      -1.837  10.844  17.999  0.00  0.00    +0.000 A 
ATOM     24  C   UNL     1      -0.724  11.131  18.851  0.00  0.00    +0.000 A 
ATOM     25  C   UNL     1       0.633  10.522  18.570  0.00  0.00    +0.000 C 
ATOM     26  C   UNL     1      -0.898  12.037  19.942  0.00  0.00    +0.000 A 
ENDBRANCH   1  26
TORSDOF 1
ENDMDL
MODEL 5
REMARK VINA RESULT:      -6.5      3.622      6.984
REMARK  Name = 
REMARK  4 active torsions:
REMARK  status: ('A' for Active; 'I' for Inactive)
REMARK    1  A    between atoms: C_1  and  C_2
REMARK    2  A    between atoms: C_10  and  C_11
REMARK    3  A    between atoms: C_12  and  C_13
REMARK    4  A    between atoms: N_24  and  C_25
REMARK                            x       y       z     vdW  Elec       q    Type
REMARK                         _______ _______ _______ _____ _____    ______ ____
ROOT
ATOM      1  C   UNL     1      -0.563  12.957  21.978  0.00  0.00    +0.000 C 
ATOM      2  O   UNL     1       0.149  13.701  22.653  0.00  0.00    +0.000 OA
ATOM      3  N   UNL     1      -1.902  13.296  21.723  0.00  0.00    +0.000 N 
ATOM      4  C   UNL     1      -2.371  14.592  22.216  0.00  0.00    +0.000 C 
ATOM      5  C   UNL     1      -3.387  15.211  21.268  0.00  0.00    +0.000 C 
ATOM      6  C   UNL     1      -4.493  14.257  20.840  0.00  0.00    +0.000 C 
ATOM      7  C   UNL     1      -4.014  12.850  20.466  0.00  0.00    +0.000 C 
ATOM      8  C   UNL     1      -2.980  12.332  21.502  0.00  0.00    +0.000 C 
ATOM      9  N   UNL     1      -5.245  12.096  20.527  0.00  0.00    +0.000 N 
ATOM     10  C   UNL     1      -6.080  12.668  21.485  0.00  0.00    +0.000 C 
ATOM     11  O   UNL     1      -7.030  12.109  22.000  0.00  0.00    +0.000 OA
ATOM     12  N   UNL     1      -5.558  13.932  21.775  0.00  0.00    +0.000 N 
ATOM     13  C   UNL     1      -5.964  14.741  22.894  0.00  0.00    +0.000 C 
ATOM     14  H   UNL     1      -5.355  11.118  20.296  0.00  0.00    +0.000 HD
ENDROOT
BRANCH   1  26
ATOM     15  C   UNL     1      -0.651  10.196  23.323  0.00  0.00    +0.000 C 
ATOM     16  C   UNL     1       0.002  10.487  22.013  0.00  0.00    +0.000 A 
ATOM     17  N   UNL     1       0.544   9.363  21.490  0.00  0.00    +0.000 NA
ATOM     18  C   UNL     1       1.071   9.391  20.273  0.00  0.00    +0.000 A 
ATOM     19  C   UNL     1       1.536   8.176  19.796  0.00  0.00    +0.000 A 
ATOM     20  C   UNL     1       2.070   8.048  18.520  0.00  0.00    +0.000 A 
ATOM     21  C   UNL     1       2.133   9.159  17.700  0.00  0.00    +0.000 A 
ATOM     22  C   UNL     1       1.679  10.399  18.171  0.00  0.00    +0.000 A 
ATOM     23  C   UNL     1       1.132  10.554  19.489  0.00  0.00    +0.000 A 
ATOM     24  C   UNL     1       0.645  11.768  20.070  0.00  0.00    +0.000 A 
ATOM     25  C   UNL     1       0.683  13.062  19.285  0.00  0.00    +0.000 C 
ATOM     26  C   UNL     1       0.079  11.733  21.381  0.00  0.00    +0.000 A 
ENDBRANCH   1  26
TORSDOF 1
ENDMDL
MODEL 6
REMARK VINA RESULT:      -6.5      3.928      7.929
REMARK  Name = 
REMARK  4 active torsions:
REMARK  status: ('A' for Active; 'I' for Inactive)
REMARK    1  A    between atoms: C_1  and  C_2
REMARK    2  A    between atoms: C_10  and  C_11
REMARK    3  A    between atoms: C_12  and  C_13
REMARK    4  A    between atoms: N_24  and  C_25
REMARK                            x       y       z     vdW  Elec       q    Type
REMARK                         _______ _______ _______ _____ _____    ______ ____
ROOT
ATOM      1  C   UNL     1       0.663  10.470  20.115  0.00  0.00    +0.000 C 
ATOM      2  O   UNL     1       1.264  11.327  20.764  0.00  0.00    +0.000 OA
ATOM      3  N   UNL     1      -0.494  10.808  19.394  0.00  0.00    +0.000 N 
ATOM      4  C   UNL     1      -0.889  12.218  19.384  0.00  0.00    +0.000 C 
ATOM      5  C   UNL     1      -1.512  12.611  18.052  0.00  0.00    +0.000 C 
ATOM      6  C   UNL     1      -2.584  11.646  17.565  0.00  0.00    +0.000 C 
ATOM      7  C   UNL     1      -2.227  10.164  17.715  0.00  0.00    +0.000 C 
ATOM      8  C   UNL     1      -1.598   9.892  19.108  0.00  0.00    +0.000 C 
ATOM      9  N   UNL     1      -3.523   9.537  17.590  0.00  0.00    +0.000 N 
ATOM     10  C   UNL     1      -4.497  10.407  18.080  0.00  0.00    +0.000 C 
ATOM     11  O   UNL     1      -5.619  10.076  18.409  0.00  0.00    +0.000 OA
ATOM     12  N   UNL     1      -3.898  11.666  18.188  0.00  0.00    +0.000 N 
ATOM     13  C   UNL     1      -4.472  12.780  18.895  0.00  0.00    +0.000 C 
ATOM     14  H   UNL     1      -3.705   8.542  17.588  0.00  0.00    +0.000 HD
ENDROOT
BRANCH   1  26
ATOM     15  C   UNL     1       0.186   8.356  22.292  0.00  0.00    +0.000 C 
ATOM     16  C   UNL     1       1.007   8.146  21.063  0.00  0.00    +0.000 A 
ATOM     17  N   UNL     1       1.506   6.889  21.033  0.00  0.00    +0.000 NA
ATOM     18  C   UNL     1       2.168   6.470  19.963  0.00  0.00    +0.000 A 
ATOM     19  C   UNL     1       2.579   5.147  19.995  0.00  0.00    +0.000 A 
ATOM     20  C   UNL     1       3.242   4.560  18.924  0.00  0.00    +0.000 A 
ATOM     21  C   UNL     1       3.494   5.314  17.792  0.00  0.00    +0.000 A 
ATOM     22  C   UNL     1       3.097   6.657  17.748  0.00  0.00    +0.000 A 
ATOM     23  C   UNL     1       2.419   7.284  18.846  0.00  0.00    +0.000 A 
ATOM     24  C   UNL     1       1.974   8.643  18.908  0.00  0.00    +0.000 A 
ATOM     25  C   UNL     1       2.212   9.580  17.744  0.00  0.00    +0.000 C 
ATOM     26  C   UNL     1       1.261   9.090  20.062  0.00  0.00    +0.000 A 
ENDBRANCH   1  26
TORSDOF 1
ENDMDL
MODEL 7
REMARK VINA RESULT:      -6.4      3.930      7.530
REMARK  Name = 
REMARK  4 active torsions:
REMARK  status: ('A' for Active; 'I' for Inactive)
REMARK    1  A    between atoms: C_1  and  C_2
REMARK    2  A    between atoms: C_10  and  C_11
REMARK    3  A    between atoms: C_12  and  C_13
REMARK    4  A    between atoms: N_24  and  C_25
REMARK                            x       y       z     vdW  Elec       q    Type
REMARK                         _______ _______ _______ _____ _____    ______ ____
ROOT
ATOM      1  C   UNL     1       0.657  10.237  20.471  0.00  0.00    +0.000 C 
ATOM      2  O   UNL     1       1.116  10.465  21.591  0.00  0.00    +0.000 OA
ATOM      3  N   UNL     1      -0.492  10.910  20.025  0.00  0.00    +0.000 N 
ATOM      4  C   UNL     1      -1.051  11.937  20.905  0.00  0.00    +0.000 C 
ATOM      5  C   UNL     1      -1.644  13.090  20.108  0.00  0.00    +0.000 C 
ATOM      6  C   UNL     1      -2.566  12.649  18.980  0.00  0.00    +0.000 C 
ATOM      7  C   UNL     1      -2.043  11.472  18.149  0.00  0.00    +0.000 C 
ATOM      8  C   UNL     1      -1.462  10.368  19.073  0.00  0.00    +0.000 C 
ATOM      9  N   UNL     1      -3.247  11.025  17.486  0.00  0.00    +0.000 N 
ATOM     10  C   UNL     1      -4.342  11.287  18.309  0.00  0.00    +0.000 C 
ATOM     11  O   UNL     1      -5.433  10.762  18.198  0.00  0.00    +0.000 OA
ATOM     12  N   UNL     1      -3.904  12.175  19.296  0.00  0.00    +0.000 N 
ATOM     13  C   UNL     1      -4.645  12.492  20.488  0.00  0.00    +0.000 C 
ATOM     14  H   UNL     1      -3.309  10.282  16.803  0.00  0.00    +0.000 HD
ENDROOT
BRANCH   1  26
ATOM     15  C   UNL     1       2.071  11.116  17.889  0.00  0.00    +0.000 C 
ATOM     16  C   UNL     1       2.065   9.724  18.428  0.00  0.00    +0.000 A 
ATOM     17  N   UNL     1       2.779   8.899  17.627  0.00  0.00    +0.000 NA
ATOM     18  C   UNL     1       2.990   7.643  17.997  0.00  0.00    +0.000 A 
ATOM     19  C   UNL     1       3.791   6.897  17.147  0.00  0.00    +0.000 A 
ATOM     20  C   UNL     1       4.133   5.581  17.432  0.00  0.00    +0.000 A 
ATOM     21  C   UNL     1       3.668   5.000  18.598  0.00  0.00    +0.000 A 
ATOM     22  C   UNL     1       2.846   5.737  19.462  0.00  0.00    +0.000 A 
ATOM     23  C   UNL     1       2.474   7.094  19.182  0.00  0.00    +0.000 A 
ATOM     24  C   UNL     1       1.641   7.932  19.990  0.00  0.00    +0.000 A 
ATOM     25  C   UNL     1       1.047   7.407  21.279  0.00  0.00    +0.000 C 
ATOM     26  C   UNL     1       1.418   9.284  19.588  0.00  0.00    +0.000 A 
ENDBRANCH   1  26
TORSDOF 1
ENDMDL
MODEL 8
REMARK VINA RESULT:      -6.4      2.216      7.731
REMARK  Name = 
REMARK  4 active torsions:
REMARK  status: ('A' for Active; 'I' for Inactive)
REMARK    1  A    between atoms: C_1  and  C_2
REMARK    2  A    between atoms: C_10  and  C_11
REMARK    3  A    between atoms: C_12  and  C_13
REMARK    4  A    between atoms: N_24  and  C_25
REMARK                            x       y       z     vdW  Elec       q    Type
REMARK                         _______ _______ _______ _____ _____    ______ ____
ROOT
ATOM      1  C   UNL     1      -0.115  10.880  19.589  0.00  0.00    +0.000 C 
ATOM      2  O   UNL     1      -1.269  10.764  19.173  0.00  0.00    +0.000 OA
ATOM      3  N   UNL     1       0.405  12.150  19.893  0.00  0.00    +0.000 N 
ATOM      4  C   UNL     1      -0.504  13.292  19.776  0.00  0.00    +0.000 C 
ATOM      5  C   UNL     1      -0.208  14.347  20.832  0.00  0.00    +0.000 C 
ATOM      6  C   UNL     1       1.265  14.715  20.940  0.00  0.00    +0.000 C 
ATOM      7  C   UNL     1       2.226  13.522  20.913  0.00  0.00    +0.000 C 
ATOM      8  C   UNL     1       1.818  12.518  19.801  0.00  0.00    +0.000 C 
ATOM      9  N   UNL     1       3.483  14.166  20.606  0.00  0.00    +0.000 N 
ATOM     10  C   UNL     1       3.235  15.296  19.827  0.00  0.00    +0.000 C 
ATOM     11  O   UNL     1       4.067  15.866  19.148  0.00  0.00    +0.000 OA
ATOM     12  N   UNL     1       1.866  15.562  19.922  0.00  0.00    +0.000 N 
ATOM     13  C   UNL     1       1.155  16.477  19.069  0.00  0.00    +0.000 C 
ATOM     14  H   UNL     1       4.384  13.713  20.546  0.00  0.00    +0.000 HD
ENDROOT
BRANCH   1  26
ATOM     15  C   UNL     1      -0.442   9.169  22.118  0.00  0.00    +0.000 C 
ATOM     16  C   UNL     1       0.480   8.854  20.987  0.00  0.00    +0.000 A 
ATOM     17  N   UNL     1       1.147   7.700  21.223  0.00  0.00    +0.000 NA
ATOM     18  C   UNL     1       1.930   7.189  20.282  0.00  0.00    +0.000 A 
ATOM     19  C   UNL     1       2.515   5.971  20.589  0.00  0.00    +0.000 A 
ATOM     20  C   UNL     1       3.320   5.297  19.680  0.00  0.00    +0.000 A 
ATOM     21  C   UNL     1       3.541   5.852  18.432  0.00  0.00    +0.000 A 
ATOM     22  C   UNL     1       2.968   7.090  18.110  0.00  0.00    +0.000 A 
ATOM     23  C   UNL     1       2.140   7.806  19.038  0.00  0.00    +0.000 A 
ATOM     24  C   UNL     1       1.510   9.072  18.815  0.00  0.00    +0.000 A 
ATOM     25  C   UNL     1       1.694   9.797  17.499  0.00  0.00    +0.000 C 
ATOM     26  C   UNL     1       0.668   9.619  19.831  0.00  0.00    +0.000 A 
ENDBRANCH   1  26
TORSDOF 1
ENDMDL
MODEL 9
REMARK VINA RESULT:      -6.3      2.657      6.417
REMARK  Name = 
REMARK  4 active torsions:
REMARK  status: ('A' for Active; 'I' for Inactive)
REMARK    1  A    between atoms: C_1  and  C_2
REMARK    2  A    between atoms: C_10  and  C_11
REMARK    3  A    between atoms: C_12  and  C_13
REMARK    4  A    between atoms: N_24  and  C_25
REMARK                            x       y       z     vdW  Elec       q    Type
REMARK                         _______ _______ _______ _____ _____    ______ ____
ROOT
ATOM      1  C   UNL     1       0.805  12.294  20.496  0.00  0.00    +0.000 C 
ATOM      2  O   UNL     1       0.997  11.647  21.527  0.00  0.00    +0.000 OA
ATOM      3  N   UNL     1       1.562  13.447  20.231  0.00  0.00    +0.000 N 
ATOM      4  C   UNL     1       2.626  13.782  21.179  0.00  0.00    +0.000 C 
ATOM      5  C   UNL     1       3.821  14.409  20.474  0.00  0.00    +0.000 C 
ATOM      6  C   UNL     1       3.451  15.529  19.511  0.00  0.00    +0.000 C 
ATOM      7  C   UNL     1       2.240  15.232  18.620  0.00  0.00    +0.000 C 
ATOM      8  C   UNL     1       1.094  14.593  19.451  0.00  0.00    +0.000 C 
ATOM      9  N   UNL     1       1.883  16.555  18.161  0.00  0.00    +0.000 N 
ATOM     10  C   UNL     1       2.224  17.483  19.144  0.00  0.00    +0.000 C 
ATOM     11  O   UNL     1       1.782  18.614  19.213  0.00  0.00    +0.000 OA
ATOM     12  N   UNL     1       3.076  16.830  20.040  0.00  0.00    +0.000 N 
ATOM     13  C   UNL     1       3.446  17.346  21.332  0.00  0.00    +0.000 C 
ATOM     14  H   UNL     1       1.148  16.779  17.504  0.00  0.00    +0.000 HD
ENDROOT
BRANCH   1  26
ATOM     15  C   UNL     1       1.464  10.074  18.477  0.00  0.00    +0.000 C 
ATOM     16  C   UNL     1       0.131  10.730  18.620  0.00  0.00    +0.000 A 
ATOM     17  N   UNL     1      -0.756  10.205  17.743  0.00  0.00    +0.000 NA
ATOM     18  C   UNL     1      -2.028  10.576  17.792  0.00  0.00    +0.000 A 
ATOM     19  C   UNL     1      -2.873   9.932  16.902  0.00  0.00    +0.000 A 
ATOM     20  C   UNL     1      -4.238  10.186  16.875  0.00  0.00    +0.000 A 
ATOM     21  C   UNL     1      -4.772  11.102  17.764  0.00  0.00    +0.000 A 
ATOM     22  C   UNL     1      -3.930  11.772  18.662  0.00  0.00    +0.000 A 
ATOM     23  C   UNL     1      -2.516  11.530  18.700  0.00  0.00    +0.000 A 
ATOM     24  C   UNL     1      -1.568  12.158  19.570  0.00  0.00    +0.000 A 
ATOM     25  C   UNL     1      -2.021  13.198  20.572  0.00  0.00    +0.000 C 
ATOM     26  C   UNL     1      -0.199  11.755  19.513  0.00  0.00    +0.000 A 
ENDBRANCH   1  26
TORSDOF 1
ENDMDL
