MODEL 1
REMARK VINA RESULT:      -8.9      0.000      0.000
REMARK  Name = 
REMARK  6 active torsions:
REMARK  status: ('A' for Active; 'I' for Inactive)
REMARK    1  A    between atoms: C_1  and  C_2
REMARK    2  A    between atoms: C_5  and  C_6
REMARK    3  A    between atoms: C_8  and  C_9
REMARK    4  A    between atoms: C_9  and  C_10
REMARK    5  A    between atoms: C_10  and  N_11
REMARK    6  A    between atoms: C_12  and  C_14
REMARK                            x       y       z     vdW  Elec       q    Type
REMARK                         _______ _______ _______ _____ _____    ______ ____
ROOT
ATOM      1  N   UNL     1       9.108   9.979  18.265  0.00  0.00    +0.000 N 
ATOM      2  C   UNL     1       9.568  10.862  19.223  0.00  0.00    +0.000 C 
ATOM      3  O   UNL     1       9.466  10.608  20.421  0.00  0.00    +0.000 OA
ATOM      4  H   UNL     1       9.108  10.225  17.286  0.00  0.00    +0.000 HD
ENDROOT
BRANCH   2   5
ATOM      5  C   UNL     1      10.152  12.180  18.807  0.00  0.00    +0.000 A 
ATOM      6  C   UNL     1      10.561  12.254  17.476  0.00  0.00    +0.000 A 
ATOM      7  C   UNL     1      11.145  13.410  16.970  0.00  0.00    +0.000 A 
ATOM      8  F   UNL     1      11.542  13.393  15.687  0.00  0.00    +0.000 F 
ATOM      9  C   UNL     1      11.306  14.562  17.726  0.00  0.00    +0.000 A 
ATOM     10  N   UNL     1      11.876  15.652  17.167  0.00  0.00    +0.000 NA
ATOM     11  C   UNL     1      11.954  16.784  17.888  0.00  0.00    +0.000 A 
ATOM     12  C   UNL     1      11.473  16.890  19.177  0.00  0.00    +0.000 A 
ATOM     13  C   UNL     1      10.920  15.750  19.772  0.00  0.00    +0.000 A 
ATOM     14  C   UNL     1      10.833  14.537  19.057  0.00  0.00    +0.000 A 
ATOM     15  C   UNL     1      10.282  13.331  19.602  0.00  0.00    +0.000 A 
ENDBRANCH   2   5
BRANCH   1  16
ATOM     16  C   UNL     1       8.508   8.696  18.662  0.00  0.00    +0.000 C 
BRANCH  16  17
ATOM     17  C   UNL     1       7.762   7.978  17.526  0.00  0.00    +0.000 C 
BRANCH  17  20
ATOM     18  C   UNL     1       5.580   5.261  18.312  0.00  0.00    +0.000 A 
ATOM     19  N   UNL     1       5.785   6.446  17.759  0.00  0.00    +0.000 NA
ATOM     20  C   UNL     1       7.132   6.686  17.938  0.00  0.00    +0.000 A 
ATOM     21  C   UNL     1       7.694   5.608  18.588  0.00  0.00    +0.000 A 
ATOM     22  O   UNL     1       6.715   4.692  18.832  0.00  0.00    +0.000 OA
BRANCH  18  27
ATOM     23  C   UNL     1       0.588   2.331  18.724  0.00  0.00    +0.000 C 
ATOM     24  C   UNL     1       1.892   3.075  18.630  0.00  0.00    +0.000 A 
ATOM     25  C   UNL     1       2.640   3.062  17.451  0.00  0.00    +0.000 A 
ATOM     26  C   UNL     1       3.844   3.774  17.368  0.00  0.00    +0.000 A 
ATOM     27  C   UNL     1       4.330   4.511  18.455  0.00  0.00    +0.000 A 
ATOM     28  C   UNL     1       3.573   4.513  19.638  0.00  0.00    +0.000 A 
ATOM     29  C   UNL     1       2.367   3.805  19.723  0.00  0.00    +0.000 A 
ENDBRANCH  18  27
ENDBRANCH  17  20
ENDBRANCH  16  17
ENDBRANCH   1  16
TORSDOF 5
ENDMDL
MODEL 2
REMARK VINA RESULT:      -8.8      3.833      9.272
REMARK  Name = 
REMARK  6 active torsions:
REMARK  status: ('A' for Active; 'I' for Inactive)
REMARK    1  A    between atoms: C_1  and  C_2
REMARK    2  A    between atoms: C_5  and  C_6
REMARK    3  A    between atoms: C_8  and  C_9
REMARK    4  A    between atoms: C_9  and  C_10
REMARK    5  A    between atoms: C_10  and  N_11
REMARK    6  A    between atoms: C_12  and  C_14
REMARK                            x       y       z     vdW  Elec       q    Type
REMARK                         _______ _______ _______ _____ _____    ______ ____
ROOT
ATOM      1  N   UNL     1       4.703   6.618  16.436  0.00  0.00    +0.000 N 
ATOM      2  C   UNL     1       3.832   6.155  17.404  0.00  0.00    +0.000 C 
ATOM      3  O   UNL     1       3.690   4.951  17.605  0.00  0.00    +0.000 OA
ATOM      4  H   UNL     1       4.754   7.599  16.206  0.00  0.00    +0.000 HD
ENDROOT
BRANCH   2   5
ATOM      5  C   UNL     1       3.001   7.126  18.189  0.00  0.00    +0.000 A 
ATOM      6  C   UNL     1       2.727   8.331  17.542  0.00  0.00    +0.000 A 
ATOM      7  C   UNL     1       1.991   9.329  18.170  0.00  0.00    +0.000 A 
ATOM      8  F   UNL     1       1.796  10.473  17.495  0.00  0.00    +0.000 F 
ATOM      9  C   UNL     1       1.444   9.174  19.437  0.00  0.00    +0.000 A 
ATOM     10  N   UNL     1       0.733  10.184  19.984  0.00  0.00    +0.000 NA
ATOM     11  C   UNL     1       0.145   9.990  21.177  0.00  0.00    +0.000 A 
ATOM     12  C   UNL     1       0.227   8.801  21.872  0.00  0.00    +0.000 A 
ATOM     13  C   UNL     1       0.998   7.769  21.326  0.00  0.00    +0.000 A 
ATOM     14  C   UNL     1       1.645   7.936  20.084  0.00  0.00    +0.000 A 
ATOM     15  C   UNL     1       2.452   6.924  19.465  0.00  0.00    +0.000 A 
ENDBRANCH   2   5
BRANCH   1  16
ATOM     16  C   UNL     1       5.502   5.673  15.639  0.00  0.00    +0.000 C 
BRANCH  16  17
ATOM     17  C   UNL     1       6.790   5.205  16.335  0.00  0.00    +0.000 C 
BRANCH  17  20
ATOM     18  C   UNL     1       8.057   8.071  18.050  0.00  0.00    +0.000 A 
ATOM     19  N   UNL     1       7.455   7.534  17.000  0.00  0.00    +0.000 NA
ATOM     20  C   UNL     1       7.345   6.194  17.310  0.00  0.00    +0.000 A 
ATOM     21  C   UNL     1       7.880   5.980  18.562  0.00  0.00    +0.000 A 
ATOM     22  O   UNL     1       8.338   7.169  19.045  0.00  0.00    +0.000 OA
BRANCH  18  27
ATOM     23  C   UNL     1       9.697  13.593  18.756  0.00  0.00    +0.000 C 
ATOM     24  C   UNL     1       9.259  12.163  18.591  0.00  0.00    +0.000 A 
ATOM     25  C   UNL     1       8.366  11.800  17.581  0.00  0.00    +0.000 A 
ATOM     26  C   UNL     1       7.979  10.463  17.424  0.00  0.00    +0.000 A 
ATOM     27  C   UNL     1       8.470   9.459  18.269  0.00  0.00    +0.000 A 
ATOM     28  C   UNL     1       9.362   9.835  19.287  0.00  0.00    +0.000 A 
ATOM     29  C   UNL     1       9.754  11.172  19.444  0.00  0.00    +0.000 A 
ENDBRANCH  18  27
ENDBRANCH  17  20
ENDBRANCH  16  17
ENDBRANCH   1  16
TORSDOF 5
ENDMDL
MODEL 3
REMARK VINA RESULT:      -8.7      4.285      9.286
REMARK  Name = 
REMARK  6 active torsions:
REMARK  status: ('A' for Active; 'I' for Inactive)
REMARK    1  A    between atoms: C_1  and  C_2
REMARK    2  A    between atoms: C_5  and  C_6
REMARK    3  A    between atoms: C_8  and  C_9
REMARK    4  A    between atoms: C_9  and  C_10
REMARK    5  A    between atoms: C_10  and  N_11
REMARK    6  A    between atoms: C_12  and  C_14
REMARK                            x       y       z     vdW  Elec       q    Type
REMARK                         _______ _______ _______ _____ _____    ______ ____
ROOT
ATOM      1  N   UNL     1       4.548   6.060  16.693  0.00  0.00    +0.000 N 
ATOM      2  C   UNL     1       3.884   5.849  17.885  0.00  0.00    +0.000 C 
ATOM      3  O   UNL     1       3.957   4.769  18.469  0.00  0.00    +0.000 OA
ATOM      4  H   UNL     1       4.417   6.911  16.167  0.00  0.00    +0.000 HD
ENDROOT
BRANCH   2   5
ATOM      5  C   UNL     1       3.012   6.926  18.458  0.00  0.00    +0.000 A 
ATOM      6  C   UNL     1       2.499   6.660  19.729  0.00  0.00    +0.000 A 
ATOM      7  C   UNL     1       1.654   7.565  20.362  0.00  0.00    +0.000 A 
ATOM      8  F   UNL     1       1.176   7.224  21.570  0.00  0.00    +0.000 F 
ATOM      9  C   UNL     1       1.314   8.790  19.807  0.00  0.00    +0.000 A 
ATOM     10  N   UNL     1       0.492   9.623  20.483  0.00  0.00    +0.000 NA
ATOM     11  C   UNL     1       0.235  10.838  19.968  0.00  0.00    +0.000 A 
ATOM     12  C   UNL     1       0.778  11.282  18.779  0.00  0.00    +0.000 A 
ATOM     13  C   UNL     1       1.596  10.405  18.058  0.00  0.00    +0.000 A 
ATOM     14  C   UNL     1       1.878   9.114  18.554  0.00  0.00    +0.000 A 
ATOM     15  C   UNL     1       2.705   8.163  17.869  0.00  0.00    +0.000 A 
ENDBRANCH   2   5
BRANCH   1  16
ATOM     16  C   UNL     1       5.383   5.000  16.107  0.00  0.00    +0.000 C 
BRANCH  16  17
ATOM     17  C   UNL     1       6.871   5.369  15.992  0.00  0.00    +0.000 C 
BRANCH  17  20
ATOM     18  C   UNL     1       8.063   8.077  17.993  0.00  0.00    +0.000 A 
ATOM     19  N   UNL     1       7.564   7.624  16.854  0.00  0.00    +0.000 NA
ATOM     20  C   UNL     1       7.354   6.279  17.076  0.00  0.00    +0.000 A 
ATOM     21  C   UNL     1       7.728   5.976  18.368  0.00  0.00    +0.000 A 
ATOM     22  O   UNL     1       8.182   7.115  18.964  0.00  0.00    +0.000 OA
BRANCH  18  27
ATOM     23  C   UNL     1       9.873  13.462  19.179  0.00  0.00    +0.000 C 
ATOM     24  C   UNL     1       9.388  12.068  18.888  0.00  0.00    +0.000 A 
ATOM     25  C   UNL     1       8.613  11.800  17.759  0.00  0.00    +0.000 A 
ATOM     26  C   UNL     1       8.183  10.495  17.486  0.00  0.00    +0.000 A 
ATOM     27  C   UNL     1       8.513   9.429  18.333  0.00  0.00    +0.000 A 
ATOM     28  C   UNL     1       9.289   9.709  19.470  0.00  0.00    +0.000 A 
ATOM     29  C   UNL     1       9.723  11.014  19.743  0.00  0.00    +0.000 A 
ENDBRANCH  18  27
ENDBRANCH  17  20
ENDBRANCH  16  17
ENDBRANCH   1  16
TORSDOF 5
ENDMDL
MODEL 4
REMARK VINA RESULT:      -8.7      5.539      9.038
REMARK  Name = 
REMARK  6 active torsions:
REMARK  status: ('A' for Active; 'I' for Inactive)
REMARK    1  A    between atoms: C_1  and  C_2
REMARK    2  A    between atoms: C_5  and  C_6
REMARK    3  A    between atoms: C_8  and  C_9
REMARK    4  A    between atoms: C_9  and  C_10
REMARK    5  A    between atoms: C_10  and  N_11
REMARK    6  A    between atoms: C_12  and  C_14
REMARK                            x       y       z     vdW  Elec       q    Type
REMARK                         _______ _______ _______ _____ _____    ______ ____
ROOT
ATOM      1  N   UNL     1       1.801   3.842  19.410  0.00  0.00    +0.000 N 
ATOM      2  C   UNL     1       2.038   4.755  20.420  0.00  0.00    +0.000 C 
ATOM      3  O   UNL     1       2.404   4.386  21.534  0.00  0.00    +0.000 OA
ATOM      4  H   UNL     1       1.414   4.133  18.525  0.00  0.00    +0.000 HD
ENDROOT
BRANCH   2   5
ATOM      5  C   UNL     1       1.796   6.216  20.182  0.00  0.00    +0.000 A 
ATOM      6  C   UNL     1       1.164   6.890  21.228  0.00  0.00    +0.000 A 
ATOM      7  C   UNL     1       0.856   8.241  21.124  0.00  0.00    +0.000 A 
ATOM      8  F   UNL     1       0.220   8.812  22.160  0.00  0.00    +0.000 F 
ATOM      9  C   UNL     1       1.197   9.007  20.018  0.00  0.00    +0.000 A 
ATOM     10  N   UNL     1       0.871  10.318  19.988  0.00  0.00    +0.000 NA
ATOM     11  C   UNL     1       1.276  11.063  18.945  0.00  0.00    +0.000 A 
ATOM     12  C   UNL     1       2.019  10.552  17.900  0.00  0.00    +0.000 A 
ATOM     13  C   UNL     1       2.321   9.186  17.909  0.00  0.00    +0.000 A 
ATOM     14  C   UNL     1       1.901   8.365  18.976  0.00  0.00    +0.000 A 
ATOM     15  C   UNL     1       2.172   6.958  19.051  0.00  0.00    +0.000 A 
ENDBRANCH   2   5
BRANCH   1  16
ATOM     16  C   UNL     1       2.008   2.404  19.642  0.00  0.00    +0.000 C 
BRANCH  16  17
ATOM     17  C   UNL     1       3.183   1.808  18.850  0.00  0.00    +0.000 C 
BRANCH  17  20
ATOM     18  C   UNL     1       5.236   4.511  17.737  0.00  0.00    +0.000 A 
ATOM     19  N   UNL     1       4.781   3.741  18.713  0.00  0.00    +0.000 NA
ATOM     20  C   UNL     1       3.970   2.820  18.081  0.00  0.00    +0.000 A 
ATOM     21  C   UNL     1       3.984   3.069  16.725  0.00  0.00    +0.000 A 
ATOM     22  O   UNL     1       4.788   4.145  16.492  0.00  0.00    +0.000 OA
BRANCH  18  27
ATOM     23  C   UNL     1       8.728   9.122  18.209  0.00  0.00    +0.000 C 
ATOM     24  C   UNL     1       7.832   7.922  18.066  0.00  0.00    +0.000 A 
ATOM     25  C   UNL     1       8.093   6.745  18.770  0.00  0.00    +0.000 A 
ATOM     26  C   UNL     1       7.241   5.640  18.645  0.00  0.00    +0.000 A 
ATOM     27  C   UNL     1       6.112   5.682  17.816  0.00  0.00    +0.000 A 
ATOM     28  C   UNL     1       5.861   6.868  17.107  0.00  0.00    +0.000 A 
ATOM     29  C   UNL     1       6.710   7.976  17.233  0.00  0.00    +0.000 A 
ENDBRANCH  18  27
ENDBRANCH  17  20
ENDBRANCH  16  17
ENDBRANCH   1  16
TORSDOF 5
ENDMDL
MODEL 5
REMARK VINA RESULT:      -8.7      1.434      1.740
REMARK  Name = 
REMARK  6 active torsions:
REMARK  status: ('A' for Active; 'I' for Inactive)
REMARK    1  A    between atoms: C_1  and  C_2
REMARK    2  A    between atoms: C_5  and  C_6
REMARK    3  A    between atoms: C_8  and  C_9
REMARK    4  A    between atoms: C_9  and  C_10
REMARK    5  A    between atoms: C_10  and  N_11
REMARK    6  A    between atoms: C_12  and  C_14
REMARK                            x       y       z     vdW  Elec       q    Type
REMARK                         _______ _______ _______ _____ _____    ______ ____
ROOT
ATOM      1  N   UNL     1       8.590   9.952  18.083  0.00  0.00    +0.000 N 
ATOM      2  C   UNL     1       9.303  10.765  18.943  0.00  0.00    +0.000 C 
ATOM      3  O   UNL     1       9.648  10.365  20.053  0.00  0.00    +0.000 OA
ATOM      4  H   UNL     1       8.227  10.307  17.211  0.00  0.00    +0.000 HD
ENDROOT
BRANCH   2   5
ATOM      5  C   UNL     1       9.620  12.177  18.549  0.00  0.00    +0.000 A 
ATOM      6  C   UNL     1       8.576  13.087  18.716  0.00  0.00    +0.000 A 
ATOM      7  C   UNL     1       8.729  14.424  18.363  0.00  0.00    +0.000 A 
ATOM      8  F   UNL     1       7.668  15.231  18.524  0.00  0.00    +0.000 F 
ATOM      9  C   UNL     1       9.923  14.941  17.881  0.00  0.00    +0.000 A 
ATOM     10  N   UNL     1      10.001  16.252  17.563  0.00  0.00    +0.000 NA
ATOM     11  C   UNL     1      11.186  16.754  17.172  0.00  0.00    +0.000 A 
ATOM     12  C   UNL     1      12.333  15.993  17.084  0.00  0.00    +0.000 A 
ATOM     13  C   UNL     1      12.244  14.626  17.372  0.00  0.00    +0.000 A 
ATOM     14  C   UNL     1      11.017  14.055  17.771  0.00  0.00    +0.000 A 
ATOM     15  C   UNL     1      10.850  12.664  18.079  0.00  0.00    +0.000 A 
ENDBRANCH   2   5
BRANCH   1  16
ATOM     16  C   UNL     1       8.249   8.575  18.471  0.00  0.00    +0.000 C 
BRANCH  16  17
ATOM     17  C   UNL     1       7.841   7.677  17.292  0.00  0.00    +0.000 C 
BRANCH  17  20
ATOM     18  C   UNL     1       5.539   5.074  18.117  0.00  0.00    +0.000 A 
ATOM     19  N   UNL     1       5.789   6.260  17.583  0.00  0.00    +0.000 NA
ATOM     20  C   UNL     1       7.155   6.414  17.702  0.00  0.00    +0.000 A 
ATOM     21  C   UNL     1       7.681   5.288  18.298  0.00  0.00    +0.000 A 
ATOM     22  O   UNL     1       6.660   4.425  18.568  0.00  0.00    +0.000 OA
BRANCH  18  27
ATOM     23  C   UNL     1       0.524   2.244  18.837  0.00  0.00    +0.000 C 
ATOM     24  C   UNL     1       1.817   2.993  18.666  0.00  0.00    +0.000 A 
ATOM     25  C   UNL     1       3.002   2.514  19.227  0.00  0.00    +0.000 A 
ATOM     26  C   UNL     1       4.204   3.209  19.045  0.00  0.00    +0.000 A 
ATOM     27  C   UNL     1       4.253   4.396  18.302  0.00  0.00    +0.000 A 
ATOM     28  C   UNL     1       3.055   4.874  17.747  0.00  0.00    +0.000 A 
ATOM     29  C   UNL     1       1.851   4.178  17.925  0.00  0.00    +0.000 A 
ENDBRANCH  18  27
ENDBRANCH  17  20
ENDBRANCH  16  17
ENDBRANCH   1  16
TORSDOF 5
ENDMDL
MODEL 6
REMARK VINA RESULT:      -8.6      6.927      9.585
REMARK  Name = 
REMARK  6 active torsions:
REMARK  status: ('A' for Active; 'I' for Inactive)
REMARK    1  A    between atoms: C_1  and  C_2
REMARK    2  A    between atoms: C_5  and  C_6
REMARK    3  A    between atoms: C_8  and  C_9
REMARK    4  A    between atoms: C_9  and  C_10
REMARK    5  A    between atoms: C_10  and  N_11
REMARK    6  A    between atoms: C_12  and  C_14
REMARK                            x       y       z     vdW  Elec       q    Type
REMARK                         _______ _______ _______ _____ _____    ______ ____
ROOT
ATOM      1  N   UNL     1       2.633   4.320  18.337  0.00  0.00    +0.000 N 
ATOM      2  C   UNL     1       3.945   3.889  18.366  0.00  0.00    +0.000 C 
ATOM      3  O   UNL     1       4.384   3.259  19.326  0.00  0.00    +0.000 OA
ATOM      4  H   UNL     1       2.296   4.915  17.594  0.00  0.00    +0.000 HD
ENDROOT
BRANCH   2   5
ATOM      5  C   UNL     1       4.874   4.238  17.241  0.00  0.00    +0.000 A 
ATOM      6  C   UNL     1       5.954   5.048  17.593  0.00  0.00    +0.000 A 
ATOM      7  C   UNL     1       6.874   5.467  16.638  0.00  0.00    +0.000 A 
ATOM      8  F   UNL     1       7.869   6.270  17.048  0.00  0.00    +0.000 F 
ATOM      9  C   UNL     1       6.811   5.071  15.309  0.00  0.00    +0.000 A 
ATOM     10  N   UNL     1       7.744   5.512  14.437  0.00  0.00    +0.000 NA
ATOM     11  C   UNL     1       7.714   5.057  13.172  0.00  0.00    +0.000 A 
ATOM     12  C   UNL     1       6.776   4.153  12.720  0.00  0.00    +0.000 A 
ATOM     13  C   UNL     1       5.784   3.728  13.611  0.00  0.00    +0.000 A 
ATOM     14  C   UNL     1       5.768   4.192  14.943  0.00  0.00    +0.000 A 
ATOM     15  C   UNL     1       4.783   3.802  15.909  0.00  0.00    +0.000 A 
ENDBRANCH   2   5
BRANCH   1  16
ATOM     16  C   UNL     1       1.722   4.009  19.449  0.00  0.00    +0.000 C 
BRANCH  16  17
ATOM     17  C   UNL     1       2.012   4.803  20.733  0.00  0.00    +0.000 C 
BRANCH  17  20
ATOM     18  C   UNL     1       1.083   8.244  20.967  0.00  0.00    +0.000 A 
ATOM     19  N   UNL     1       1.070   7.015  21.460  0.00  0.00    +0.000 NA
ATOM     20  C   UNL     1       1.842   6.280  20.583  0.00  0.00    +0.000 A 
ATOM     21  C   UNL     1       2.308   7.116  19.591  0.00  0.00    +0.000 A 
ATOM     22  O   UNL     1       1.831   8.372  19.824  0.00  0.00    +0.000 OA
BRANCH  18  27
ATOM     23  C   UNL     1      -1.736  12.904  22.972  0.00  0.00    +0.000 C 
ATOM     24  C   UNL     1      -0.985  11.705  22.458  0.00  0.00    +0.000 A 
ATOM     25  C   UNL     1      -0.982  10.504  23.169  0.00  0.00    +0.000 A 
ATOM     26  C   UNL     1      -0.296   9.388  22.673  0.00  0.00    +0.000 A 
ATOM     27  C   UNL     1       0.402   9.444  21.460  0.00  0.00    +0.000 A 
ATOM     28  C   UNL     1       0.399  10.659  20.755  0.00  0.00    +0.000 A 
ATOM     29  C   UNL     1      -0.290  11.776  21.248  0.00  0.00    +0.000 A 
ENDBRANCH  18  27
ENDBRANCH  17  20
ENDBRANCH  16  17
ENDBRANCH   1  16
TORSDOF 5
ENDMDL
MODEL 7
REMARK VINA RESULT:      -8.6      3.465      4.480
REMARK  Name = 
REMARK  6 active torsions:
REMARK  status: ('A' for Active; 'I' for Inactive)
REMARK    1  A    between atoms: C_1  and  C_2
REMARK    2  A    between atoms: C_5  and  C_6
REMARK    3  A    between atoms: C_8  and  C_9
REMARK    4  A    between atoms: C_9  and  C_10
REMARK    5  A    between atoms: C_10  and  N_11
REMARK    6  A    between atoms: C_12  and  C_14
REMARK                            x       y       z     vdW  Elec       q    Type
REMARK                         _______ _______ _______ _____ _____    ______ ____
ROOT
ATOM      1  N   UNL     1       7.153   7.781  17.035  0.00  0.00    +0.000 N 
ATOM      2  C   UNL     1       8.027   8.053  18.070  0.00  0.00    +0.000 C 
ATOM      3  O   UNL     1       8.404   7.165  18.831  0.00  0.00    +0.000 OA
ATOM      4  H   UNL     1       6.771   8.522  16.466  0.00  0.00    +0.000 HD
ENDROOT
BRANCH   2   5
ATOM      5  C   UNL     1       8.486   9.461  18.312  0.00  0.00    +0.000 A 
ATOM      6  C   UNL     1       7.898  10.425  17.493  0.00  0.00    +0.000 A 
ATOM      7  C   UNL     1       8.256  11.765  17.595  0.00  0.00    +0.000 A 
ATOM      8  F   UNL     1       7.669  12.629  16.751  0.00  0.00    +0.000 F 
ATOM      9  C   UNL     1       9.165  12.229  18.536  0.00  0.00    +0.000 A 
ATOM     10  N   UNL     1       9.461  13.547  18.583  0.00  0.00    +0.000 NA
ATOM     11  C   UNL     1      10.282  13.992  19.549  0.00  0.00    +0.000 A 
ATOM     12  C   UNL     1      10.836  13.166  20.505  0.00  0.00    +0.000 A 
ATOM     13  C   UNL     1      10.564  11.795  20.433  0.00  0.00    +0.000 A 
ATOM     14  C   UNL     1       9.720  11.283  19.425  0.00  0.00    +0.000 A 
ATOM     15  C   UNL     1       9.398   9.892  19.288  0.00  0.00    +0.000 A 
ENDBRANCH   2   5
BRANCH   1  16
ATOM     16  C   UNL     1       6.673   6.409  16.806  0.00  0.00    +0.000 C 
BRANCH  16  17
ATOM     17  C   UNL     1       5.269   6.334  16.185  0.00  0.00    +0.000 C 
BRANCH  17  20
ATOM     18  C   UNL     1       2.746   7.233  18.547  0.00  0.00    +0.000 A 
ATOM     19  N   UNL     1       3.621   7.577  17.616  0.00  0.00    +0.000 NA
ATOM     20  C   UNL     1       4.161   6.381  17.187  0.00  0.00    +0.000 A 
ATOM     21  C   UNL     1       3.566   5.349  17.880  0.00  0.00    +0.000 A 
ATOM     22  O   UNL     1       2.660   5.879  18.751  0.00  0.00    +0.000 OA
BRANCH  18  27
ATOM     23  C   UNL     1      -0.546  10.757  21.776  0.00  0.00    +0.000 C 
ATOM     24  C   UNL     1       0.289   9.829  20.937  0.00  0.00    +0.000 A 
ATOM     25  C   UNL     1       0.574  10.129  19.604  0.00  0.00    +0.000 A 
ATOM     26  C   UNL     1       1.370   9.268  18.837  0.00  0.00    +0.000 A 
ATOM     27  C   UNL     1       1.897   8.089  19.380  0.00  0.00    +0.000 A 
ATOM     28  C   UNL     1       1.600   7.793  20.720  0.00  0.00    +0.000 A 
ATOM     29  C   UNL     1       0.807   8.654  21.490  0.00  0.00    +0.000 A 
ENDBRANCH  18  27
ENDBRANCH  17  20
ENDBRANCH  16  17
ENDBRANCH   1  16
TORSDOF 5
ENDMDL
MODEL 8
REMARK VINA RESULT:      -8.6      5.573      8.757
REMARK  Name = 
REMARK  6 active torsions:
REMARK  status: ('A' for Active; 'I' for Inactive)
REMARK    1  A    between atoms: C_1  and  C_2
REMARK    2  A    between atoms: C_5  and  C_6
REMARK    3  A    between atoms: C_8  and  C_9
REMARK    4  A    between atoms: C_9  and  C_10
REMARK    5  A    between atoms: C_10  and  N_11
REMARK    6  A    between atoms: C_12  and  C_14
REMARK                            x       y       z     vdW  Elec       q    Type
REMARK                         _______ _______ _______ _____ _____    ______ ____
ROOT
ATOM      1  N   UNL     1       1.143   4.272  20.017  0.00  0.00    +0.000 N 
ATOM      2  C   UNL     1       1.798   5.277  20.703  0.00  0.00    +0.000 C 
ATOM      3  O   UNL     1       2.456   5.032  21.711  0.00  0.00    +0.000 OA
ATOM      4  H   UNL     1       0.529   4.482  19.245  0.00  0.00    +0.000 HD
ENDROOT
BRANCH   2   5
ATOM      5  C   UNL     1       1.664   6.701  20.251  0.00  0.00    +0.000 A 
ATOM      6  C   UNL     1       2.156   6.965  18.972  0.00  0.00    +0.000 A 
ATOM      7  C   UNL     1       2.119   8.251  18.444  0.00  0.00    +0.000 A 
ATOM      8  F   UNL     1       2.640   8.432  17.219  0.00  0.00    +0.000 F 
ATOM      9  C   UNL     1       1.554   9.324  19.119  0.00  0.00    +0.000 A 
ATOM     10  N   UNL     1       1.547  10.546  18.541  0.00  0.00    +0.000 NA
ATOM     11  C   UNL     1       0.927  11.558  19.173  0.00  0.00    +0.000 A 
ATOM     12  C   UNL     1       0.288  11.407  20.387  0.00  0.00    +0.000 A 
ATOM     13  C   UNL     1       0.330  10.153  21.005  0.00  0.00    +0.000 A 
ATOM     14  C   UNL     1       0.984   9.068  20.385  0.00  0.00    +0.000 A 
ATOM     15  C   UNL     1       1.069   7.757  20.960  0.00  0.00    +0.000 A 
ENDBRANCH   2   5
BRANCH   1  16
ATOM     16  C   UNL     1       1.243   2.875  20.469  0.00  0.00    +0.000 C 
BRANCH  16  17
ATOM     17  C   UNL     1       1.848   1.923  19.423  0.00  0.00    +0.000 C 
BRANCH  17  20
ATOM     18  C   UNL     1       4.466   3.941  18.071  0.00  0.00    +0.000 A 
ATOM     19  N   UNL     1       3.628   3.656  19.055  0.00  0.00    +0.000 NA
ATOM     20  C   UNL     1       2.960   2.527  18.627  0.00  0.00    +0.000 A 
ATOM     21  C   UNL     1       3.444   2.165  17.389  0.00  0.00    +0.000 A 
ATOM     22  O   UNL     1       4.406   3.059  17.023  0.00  0.00    +0.000 OA
BRANCH  18  27
ATOM     23  C   UNL     1       8.223   8.354  17.761  0.00  0.00    +0.000 C 
ATOM     24  C   UNL     1       7.256   7.203  17.821  0.00  0.00    +0.000 A 
ATOM     25  C   UNL     1       7.512   6.094  18.629  0.00  0.00    +0.000 A 
ATOM     26  C   UNL     1       6.596   5.036  18.693  0.00  0.00    +0.000 A 
ATOM     27  C   UNL     1       5.407   5.059  17.952  0.00  0.00    +0.000 A 
ATOM     28  C   UNL     1       5.161   6.176  17.137  0.00  0.00    +0.000 A 
ATOM     29  C   UNL     1       6.074   7.237  17.075  0.00  0.00    +0.000 A 
ENDBRANCH  18  27
ENDBRANCH  17  20
ENDBRANCH  16  17
ENDBRANCH   1  16
TORSDOF 5
ENDMDL
MODEL 9
REMARK VINA RESULT:      -8.6      4.748      9.508
REMARK  Name = 
REMARK  6 active torsions:
REMARK  status: ('A' for Active; 'I' for Inactive)
REMARK    1  A    between atoms: C_1  and  C_2
REMARK    2  A    between atoms: C_5  and  C_6
REMARK    3  A    between atoms: C_8  and  C_9
REMARK    4  A    between atoms: C_9  and  C_10
REMARK    5  A    between atoms: C_10  and  N_11
REMARK    6  A    between atoms: C_12  and  C_14
REMARK                            x       y       z     vdW  Elec       q    Type
REMARK                         _______ _______ _______ _____ _____    ______ ____
ROOT
ATOM      1  N   UNL     1       4.189   6.672  17.692  0.00  0.00    +0.000 N 
ATOM      2  C   UNL     1       2.856   6.561  18.037  0.00  0.00    +0.000 C 
ATOM      3  O   UNL     1       2.202   5.567  17.727  0.00  0.00    +0.000 OA
ATOM      4  H   UNL     1       4.703   7.523  17.864  0.00  0.00    +0.000 HD
ENDROOT
BRANCH   2   5
ATOM      5  C   UNL     1       2.170   7.687  18.751  0.00  0.00    +0.000 A 
ATOM      6  C   UNL     1       2.031   7.518  20.129  0.00  0.00    +0.000 A 
ATOM      7  C   UNL     1       1.388   8.476  20.905  0.00  0.00    +0.000 A 
ATOM      8  F   UNL     1       1.266   8.227  22.219  0.00  0.00    +0.000 F 
ATOM      9  C   UNL     1       0.901   9.664  20.380  0.00  0.00    +0.000 A 
ATOM     10  N   UNL     1       0.293  10.553  21.196  0.00  0.00    +0.000 NA
ATOM     11  C   UNL     1      -0.104  11.733  20.688  0.00  0.00    +0.000 A 
ATOM     12  C   UNL     1       0.085  12.085  19.367  0.00  0.00    +0.000 A 
ATOM     13  C   UNL     1       0.677  11.148  18.512  0.00  0.00    +0.000 A 
ATOM     14  C   UNL     1       1.094   9.892  19.001  0.00  0.00    +0.000 A 
ATOM     15  C   UNL     1       1.704   8.884  18.183  0.00  0.00    +0.000 A 
ENDBRANCH   2   5
BRANCH   1  16
ATOM     16  C   UNL     1       4.864   5.585  16.966  0.00  0.00    +0.000 C 
BRANCH  16  17
ATOM     17  C   UNL     1       6.233   5.977  16.388  0.00  0.00    +0.000 C 
BRANCH  17  20
ATOM     18  C   UNL     1       8.071   8.516  18.101  0.00  0.00    +0.000 A 
ATOM     19  N   UNL     1       7.201   8.159  17.170  0.00  0.00    +0.000 NA
ATOM     20  C   UNL     1       7.072   6.793  17.319  0.00  0.00    +0.000 A 
ATOM     21  C   UNL     1       7.872   6.381  18.363  0.00  0.00    +0.000 A 
ATOM     22  O   UNL     1       8.514   7.470  18.871  0.00  0.00    +0.000 OA
BRANCH  18  27
ATOM     23  C   UNL     1      10.262  13.797  19.094  0.00  0.00    +0.000 C 
ATOM     24  C   UNL     1       9.680  12.430  18.855  0.00  0.00    +0.000 A 
ATOM     25  C   UNL     1       8.772  12.210  17.819  0.00  0.00    +0.000 A 
ATOM     26  C   UNL     1       8.251  10.930  17.592  0.00  0.00    +0.000 A 
ATOM     27  C   UNL     1       8.621   9.842  18.393  0.00  0.00    +0.000 A 
ATOM     28  C   UNL     1       9.531  10.074  19.437  0.00  0.00    +0.000 A 
ATOM     29  C   UNL     1      10.057  11.354  19.664  0.00  0.00    +0.000 A 
ENDBRANCH  18  27
ENDBRANCH  17  20
ENDBRANCH  16  17
ENDBRANCH   1  16
TORSDOF 5
ENDMDL
