MODEL 1
REMARK VINA RESULT:      -8.7      0.000      0.000
REMARK  Name = 
REMARK  3 active torsions:
REMARK  status: ('A' for Active; 'I' for Inactive)
REMARK    1  A    between atoms: C_7  and  C_8
REMARK    2  A    between atoms: N_10  and  C_11
REMARK    3  A    between atoms: C_16  and  C_17
REMARK                            x       y       z     vdW  Elec       q    Type
REMARK                         _______ _______ _______ _____ _____    ______ ____
ROOT
ATOM      1  C   UNL     1       3.704   5.694  17.572  0.00  0.00    +0.000 A 
ATOM      2  C   UNL     1       3.668   4.805  18.660  0.00  0.00    +0.000 A 
ATOM      3  C   UNL     1       3.074   5.142  19.878  0.00  0.00    +0.000 A 
ATOM      4  C   UNL     1       2.489   6.397  19.991  0.00  0.00    +0.000 A 
ATOM      5  N   UNL     1       1.821   6.976  21.033  0.00  0.00    +0.000 NA
ATOM      6  C   UNL     1       1.442   8.135  20.557  0.00  0.00    +0.000 A 
ATOM      7  O   UNL     1       1.851   8.392  19.265  0.00  0.00    +0.000 OA
ATOM      8  C   UNL     1       2.538   7.265  18.909  0.00  0.00    +0.000 A 
ATOM      9  C   UNL     1       3.160   6.985  17.695  0.00  0.00    +0.000 A 
ENDROOT
BRANCH   6  10
ATOM     10  C   UNL     1       0.683   9.189  21.227  0.00  0.00    +0.000 A 
ATOM     11  C   UNL     1      -0.003   8.917  22.429  0.00  0.00    +0.000 A 
ATOM     12  C   UNL     1      -0.664   9.946  23.106  0.00  0.00    +0.000 A 
ATOM     13  C   UNL     1      -0.654  11.235  22.581  0.00  0.00    +0.000 A 
ATOM     14  F   UNL     1      -1.276  12.221  23.235  0.00  0.00    +0.000 F 
ATOM     15  C   UNL     1       0.006  11.514  21.389  0.00  0.00    +0.000 A 
ATOM     16  C   UNL     1       0.671  10.492  20.719  0.00  0.00    +0.000 A 
ENDBRANCH   6  10
BRANCH   1  19
ATOM     17  C   UNL     1       5.519   5.712  15.886  0.00  0.00    +0.000 C 
ATOM     18  O   UNL     1       6.301   6.406  16.539  0.00  0.00    +0.000 OA
ATOM     19  N   UNL     1       4.262   5.310  16.328  0.00  0.00    +0.000 N 
ATOM     20  H   UNL     1       3.803   4.550  15.844  0.00  0.00    +0.000 HD
BRANCH  17  27
ATOM     21  O   UNL     1       9.304   5.923  13.285  0.00  0.00    +0.000 OA
ATOM     22  C   UNL     1       8.135   5.549  13.235  0.00  0.00    +0.000 C 
ATOM     23  C   UNL     1       7.516   5.025  11.965  0.00  0.00    +0.000 C 
ATOM     24  C   UNL     1       7.124   3.559  12.087  0.00  0.00    +0.000 C 
ATOM     25  C   UNL     1       5.779   3.336  12.776  0.00  0.00    +0.000 C 
ATOM     26  C   UNL     1       5.729   3.745  14.251  0.00  0.00    +0.000 C 
ATOM     27  C   UNL     1       5.935   5.244  14.472  0.00  0.00    +0.000 C 
ATOM     28  N   UNL     1       7.350   5.598  14.340  0.00  0.00    +0.000 N 
ATOM     29  H   UNL     1       7.804   5.987  15.169  0.00  0.00    +0.000 HD
ENDBRANCH  17  27
ENDBRANCH   1  19
TORSDOF 3
ENDMDL
MODEL 2
REMARK VINA RESULT:      -8.5      3.640     10.023
REMARK  Name = 
REMARK  3 active torsions:
REMARK  status: ('A' for Active; 'I' for Inactive)
REMARK    1  A    between atoms: C_7  and  C_8
REMARK    2  A    between atoms: N_10  and  C_11
REMARK    3  A    between atoms: C_16  and  C_17
REMARK                            x       y       z     vdW  Elec       q    Type
REMARK                         _______ _______ _______ _____ _____    ______ ____
ROOT
ATOM      1  C   UNL     1       2.608   6.367  19.655  0.00  0.00    +0.000 A 
ATOM      2  C   UNL     1       2.818   5.056  20.119  0.00  0.00    +0.000 A 
ATOM      3  C   UNL     1       3.506   4.101  19.368  0.00  0.00    +0.000 A 
ATOM      4  C   UNL     1       4.006   4.486  18.130  0.00  0.00    +0.000 A 
ATOM      5  N   UNL     1       4.731   3.784  17.208  0.00  0.00    +0.000 NA
ATOM      6  C   UNL     1       4.975   4.662  16.268  0.00  0.00    +0.000 A 
ATOM      7  O   UNL     1       4.420   5.907  16.480  0.00  0.00    +0.000 OA
ATOM      8  C   UNL     1       3.785   5.781  17.685  0.00  0.00    +0.000 A 
ATOM      9  C   UNL     1       3.066   6.748  18.382  0.00  0.00    +0.000 A 
ENDROOT
BRANCH   6  10
ATOM     10  C   UNL     1       5.719   4.479  15.024  0.00  0.00    +0.000 A 
ATOM     11  C   UNL     1       5.188   3.681  13.989  0.00  0.00    +0.000 A 
ATOM     12  C   UNL     1       5.866   3.571  12.771  0.00  0.00    +0.000 A 
ATOM     13  C   UNL     1       7.073   4.238  12.592  0.00  0.00    +0.000 A 
ATOM     14  F   UNL     1       7.716   4.142  11.424  0.00  0.00    +0.000 F 
ATOM     15  C   UNL     1       7.616   5.017  13.609  0.00  0.00    +0.000 A 
ATOM     16  C   UNL     1       6.938   5.133  14.817  0.00  0.00    +0.000 A 
ENDBRANCH   6  10
BRANCH   1  19
ATOM     17  C   UNL     1       1.464   8.541  19.972  0.00  0.00    +0.000 C 
ATOM     18  O   UNL     1       1.497   8.882  18.787  0.00  0.00    +0.000 OA
ATOM     19  N   UNL     1       1.958   7.335  20.460  0.00  0.00    +0.000 N 
ATOM     20  H   UNL     1       1.667   7.034  21.381  0.00  0.00    +0.000 HD
BRANCH  17  27
ATOM     21  O   UNL     1      -1.407  12.131  19.889  0.00  0.00    +0.000 OA
ATOM     22  C   UNL     1      -0.715  11.484  20.671  0.00  0.00    +0.000 C 
ATOM     23  C   UNL     1      -0.555  11.881  22.116  0.00  0.00    +0.000 C 
ATOM     24  C   UNL     1      -1.146  10.843  23.059  0.00  0.00    +0.000 C 
ATOM     25  C   UNL     1      -0.218   9.660  23.333  0.00  0.00    +0.000 C 
ATOM     26  C   UNL     1       0.081   8.774  22.120  0.00  0.00    +0.000 C 
ATOM     27  C   UNL     1       0.840   9.501  21.010  0.00  0.00    +0.000 C 
ATOM     28  N   UNL     1      -0.059  10.373  20.252  0.00  0.00    +0.000 N 
ATOM     29  H   UNL     1      -0.174  10.160  19.259  0.00  0.00    +0.000 HD
ENDBRANCH  17  27
ENDBRANCH   1  19
TORSDOF 3
ENDMDL
MODEL 3
REMARK VINA RESULT:      -8.3      1.421      1.974
REMARK  Name = 
REMARK  3 active torsions:
REMARK  status: ('A' for Active; 'I' for Inactive)
REMARK    1  A    between atoms: C_7  and  C_8
REMARK    2  A    between atoms: N_10  and  C_11
REMARK    3  A    between atoms: C_16  and  C_17
REMARK                            x       y       z     vdW  Elec       q    Type
REMARK                         _______ _______ _______ _____ _____    ______ ____
ROOT
ATOM      1  C   UNL     1       3.906   5.263  17.416  0.00  0.00    +0.000 A 
ATOM      2  C   UNL     1       3.566   4.283  18.364  0.00  0.00    +0.000 A 
ATOM      3  C   UNL     1       2.845   4.584  19.522  0.00  0.00    +0.000 A 
ATOM      4  C   UNL     1       2.448   5.902  19.714  0.00  0.00    +0.000 A 
ATOM      5  N   UNL     1       1.720   6.472  20.721  0.00  0.00    +0.000 NA
ATOM      6  C   UNL     1       1.599   7.721  20.352  0.00  0.00    +0.000 A 
ATOM      7  O   UNL     1       2.240   8.041  19.173  0.00  0.00    +0.000 OA
ATOM      8  C   UNL     1       2.796   6.858  18.771  0.00  0.00    +0.000 A 
ATOM      9  C   UNL     1       3.551   6.607  17.629  0.00  0.00    +0.000 A 
ENDROOT
BRANCH   6  10
ATOM     10  C   UNL     1       0.913   8.811  21.041  0.00  0.00    +0.000 A 
ATOM     11  C   UNL     1       0.458   9.935  20.321  0.00  0.00    +0.000 A 
ATOM     12  C   UNL     1      -0.265  10.939  20.971  0.00  0.00    +0.000 A 
ATOM     13  C   UNL     1      -0.520  10.832  22.334  0.00  0.00    +0.000 A 
ATOM     14  F   UNL     1      -1.222  11.786  22.954  0.00  0.00    +0.000 F 
ATOM     15  C   UNL     1      -0.066   9.736  23.061  0.00  0.00    +0.000 A 
ATOM     16  C   UNL     1       0.646   8.733  22.413  0.00  0.00    +0.000 A 
ENDBRANCH   6  10
BRANCH   1  19
ATOM     17  C   UNL     1       5.946   4.628  16.162  0.00  0.00    +0.000 C 
ATOM     18  O   UNL     1       6.696   4.586  17.140  0.00  0.00    +0.000 OA
ATOM     19  N   UNL     1       4.587   4.924  16.221  0.00  0.00    +0.000 N 
ATOM     20  H   UNL     1       4.010   4.692  15.423  0.00  0.00    +0.000 HD
BRANCH  17  27
ATOM     21  O   UNL     1       4.301   3.328  12.071  0.00  0.00    +0.000 OA
ATOM     22  C   UNL     1       5.364   3.567  12.636  0.00  0.00    +0.000 C 
ATOM     23  C   UNL     1       6.695   3.349  11.963  0.00  0.00    +0.000 C 
ATOM     24  C   UNL     1       7.450   4.655  11.759  0.00  0.00    +0.000 C 
ATOM     25  C   UNL     1       8.210   5.127  12.998  0.00  0.00    +0.000 C 
ATOM     26  C   UNL     1       7.331   5.513  14.191  0.00  0.00    +0.000 C 
ATOM     27  C   UNL     1       6.529   4.342  14.759  0.00  0.00    +0.000 C 
ATOM     28  N   UNL     1       5.377   4.041  13.907  0.00  0.00    +0.000 N 
ATOM     29  H   UNL     1       4.454   4.145  14.332  0.00  0.00    +0.000 HD
ENDBRANCH  17  27
ENDBRANCH   1  19
TORSDOF 3
ENDMDL
MODEL 4
REMARK VINA RESULT:      -8.3      5.050     10.791
REMARK  Name = 
REMARK  3 active torsions:
REMARK  status: ('A' for Active; 'I' for Inactive)
REMARK    1  A    between atoms: C_7  and  C_8
REMARK    2  A    between atoms: N_10  and  C_11
REMARK    3  A    between atoms: C_16  and  C_17
REMARK                            x       y       z     vdW  Elec       q    Type
REMARK                         _______ _______ _______ _____ _____    ______ ____
ROOT
ATOM      1  C   UNL     1       0.983  10.078  20.076  0.00  0.00    +0.000 A 
ATOM      2  C   UNL     1       1.395  10.362  18.763  0.00  0.00    +0.000 A 
ATOM      3  C   UNL     1       1.973   9.395  17.938  0.00  0.00    +0.000 A 
ATOM      4  C   UNL     1       2.122   8.111  18.448  0.00  0.00    +0.000 A 
ATOM      5  N   UNL     1       2.619   6.977  17.869  0.00  0.00    +0.000 NA
ATOM      6  C   UNL     1       2.459   6.060  18.789  0.00  0.00    +0.000 A 
ATOM      7  O   UNL     1       1.921   6.517  19.975  0.00  0.00    +0.000 OA
ATOM      8  C   UNL     1       1.715   7.849  19.749  0.00  0.00    +0.000 A 
ATOM      9  C   UNL     1       1.177   8.795  20.617  0.00  0.00    +0.000 A 
ENDROOT
BRANCH   6  10
ATOM     10  C   UNL     1       2.809   4.643  18.731  0.00  0.00    +0.000 A 
ATOM     11  C   UNL     1       2.131   3.778  17.847  0.00  0.00    +0.000 A 
ATOM     12  C   UNL     1       2.521   2.440  17.739  0.00  0.00    +0.000 A 
ATOM     13  C   UNL     1       3.570   1.962  18.518  0.00  0.00    +0.000 A 
ATOM     14  F   UNL     1       3.950   0.686  18.406  0.00  0.00    +0.000 F 
ATOM     15  C   UNL     1       4.239   2.800  19.404  0.00  0.00    +0.000 A 
ATOM     16  C   UNL     1       3.857   4.134  19.506  0.00  0.00    +0.000 A 
ENDBRANCH   6  10
BRANCH   1  19
ATOM     17  C   UNL     1      -0.924  11.567  20.610  0.00  0.00    +0.000 C 
ATOM     18  O   UNL     1      -1.649  11.191  19.687  0.00  0.00    +0.000 OA
ATOM     19  N   UNL     1       0.345  11.061  20.874  0.00  0.00    +0.000 N 
ATOM     20  H   UNL     1       0.757  11.242  21.780  0.00  0.00    +0.000 HD
BRANCH  17  27
ATOM     21  O   UNL     1      -3.829  11.858  24.162  0.00  0.00    +0.000 OA
ATOM     22  C   UNL     1      -3.123  12.567  23.450  0.00  0.00    +0.000 C 
ATOM     23  C   UNL     1      -3.123  14.070  23.565  0.00  0.00    +0.000 C 
ATOM     24  C   UNL     1      -1.776  14.605  24.030  0.00  0.00    +0.000 C 
ATOM     25  C   UNL     1      -0.748  14.741  22.908  0.00  0.00    +0.000 C 
ATOM     26  C   UNL     1      -0.302  13.421  22.272  0.00  0.00    +0.000 C 
ATOM     27  C   UNL     1      -1.431  12.681  21.555  0.00  0.00    +0.000 C 
ATOM     28  N   UNL     1      -2.307  12.012  22.520  0.00  0.00    +0.000 N 
ATOM     29  H   UNL     1      -2.361  10.994  22.458  0.00  0.00    +0.000 HD
ENDBRANCH  17  27
ENDBRANCH   1  19
TORSDOF 3
ENDMDL
MODEL 5
REMARK VINA RESULT:      -8.1      4.958     10.861
REMARK  Name = 
REMARK  3 active torsions:
REMARK  status: ('A' for Active; 'I' for Inactive)
REMARK    1  A    between atoms: C_7  and  C_8
REMARK    2  A    between atoms: N_10  and  C_11
REMARK    3  A    between atoms: C_16  and  C_17
REMARK                            x       y       z     vdW  Elec       q    Type
REMARK                         _______ _______ _______ _____ _____    ______ ____
ROOT
ATOM      1  C   UNL     1       0.881  10.236  20.024  0.00  0.00    +0.000 A 
ATOM      2  C   UNL     1       1.355  10.587  18.748  0.00  0.00    +0.000 A 
ATOM      3  C   UNL     1       2.001   9.671  17.915  0.00  0.00    +0.000 A 
ATOM      4  C   UNL     1       2.156   8.370  18.378  0.00  0.00    +0.000 A 
ATOM      5  N   UNL     1       2.712   7.274  17.779  0.00  0.00    +0.000 NA
ATOM      6  C   UNL     1       2.526   6.314  18.648  0.00  0.00    +0.000 A 
ATOM      7  O   UNL     1       1.915   6.706  19.822  0.00  0.00    +0.000 OA
ATOM      8  C   UNL     1       1.686   8.041  19.641  0.00  0.00    +0.000 A 
ATOM      9  C   UNL     1       1.078   8.936  20.519  0.00  0.00    +0.000 A 
ENDROOT
BRANCH   6  10
ATOM     10  C   UNL     1       2.916   4.910  18.549  0.00  0.00    +0.000 A 
ATOM     11  C   UNL     1       3.973   4.406  19.335  0.00  0.00    +0.000 A 
ATOM     12  C   UNL     1       4.292   3.046  19.293  0.00  0.00    +0.000 A 
ATOM     13  C   UNL     1       3.571   2.195  18.461  0.00  0.00    +0.000 A 
ATOM     14  F   UNL     1       3.868   0.892  18.430  0.00  0.00    +0.000 F 
ATOM     15  C   UNL     1       2.535   2.679  17.670  0.00  0.00    +0.000 A 
ATOM     16  C   UNL     1       2.212   4.031  17.717  0.00  0.00    +0.000 A 
ENDBRANCH   6  10
BRANCH   1  19
ATOM     17  C   UNL     1      -1.089  11.656  20.516  0.00  0.00    +0.000 C 
ATOM     18  O   UNL     1      -1.753  11.305  19.538  0.00  0.00    +0.000 OA
ATOM     19  N   UNL     1       0.177  11.167  20.827  0.00  0.00    +0.000 N 
ATOM     20  H   UNL     1       0.534  11.317  21.761  0.00  0.00    +0.000 HD
BRANCH  17  27
ATOM     21  O   UNL     1      -5.137  12.433  22.551  0.00  0.00    +0.000 OA
ATOM     22  C   UNL     1      -4.024  12.935  22.427  0.00  0.00    +0.000 C 
ATOM     23  C   UNL     1      -3.691  14.294  22.987  0.00  0.00    +0.000 C 
ATOM     24  C   UNL     1      -2.635  14.215  24.080  0.00  0.00    +0.000 C 
ATOM     25  C   UNL     1      -1.204  14.138  23.550  0.00  0.00    +0.000 C 
ATOM     26  C   UNL     1      -0.868  12.865  22.769  0.00  0.00    +0.000 C 
ATOM     27  C   UNL     1      -1.675  12.715  21.478  0.00  0.00    +0.000 C 
ATOM     28  N   UNL     1      -3.040  12.272  21.768  0.00  0.00    +0.000 N 
ATOM     29  H   UNL     1      -3.320  11.369  21.382  0.00  0.00    +0.000 HD
ENDBRANCH  17  27
ENDBRANCH   1  19
TORSDOF 3
ENDMDL
MODEL 6
REMARK VINA RESULT:      -8.1      5.017     11.225
REMARK  Name = 
REMARK  3 active torsions:
REMARK  status: ('A' for Active; 'I' for Inactive)
REMARK    1  A    between atoms: C_7  and  C_8
REMARK    2  A    between atoms: N_10  and  C_11
REMARK    3  A    between atoms: C_16  and  C_17
REMARK                            x       y       z     vdW  Elec       q    Type
REMARK                         _______ _______ _______ _____ _____    ______ ____
ROOT
ATOM      1  C   UNL     1      -0.106  10.710  20.531  0.00  0.00    +0.000 A 
ATOM      2  C   UNL     1       0.285  10.956  19.204  0.00  0.00    +0.000 A 
ATOM      3  C   UNL     1       1.090  10.069  18.487  0.00  0.00    +0.000 A 
ATOM      4  C   UNL     1       1.494   8.901  19.122  0.00  0.00    +0.000 A 
ATOM      5  N   UNL     1       2.247   7.855  18.665  0.00  0.00    +0.000 NA
ATOM      6  C   UNL     1       2.254   7.013  19.666  0.00  0.00    +0.000 A 
ATOM      7  O   UNL     1       1.586   7.447  20.793  0.00  0.00    +0.000 OA
ATOM      8  C   UNL     1       1.104   8.675  20.435  0.00  0.00    +0.000 A 
ATOM      9  C   UNL     1       0.341   9.555  21.197  0.00  0.00    +0.000 A 
ENDROOT
BRANCH   6  10
ATOM     10  C   UNL     1       2.906   5.708  19.752  0.00  0.00    +0.000 A 
ATOM     11  C   UNL     1       2.265   4.635  20.405  0.00  0.00    +0.000 A 
ATOM     12  C   UNL     1       2.857   3.368  20.418  0.00  0.00    +0.000 A 
ATOM     13  C   UNL     1       4.088   3.176  19.797  0.00  0.00    +0.000 A 
ATOM     14  F   UNL     1       4.648   1.963  19.800  0.00  0.00    +0.000 F 
ATOM     15  C   UNL     1       4.738   4.229  19.162  0.00  0.00    +0.000 A 
ATOM     16  C   UNL     1       4.145   5.487  19.141  0.00  0.00    +0.000 A 
ENDBRANCH   6  10
BRANCH   1  19
ATOM     17  C   UNL     1      -0.539  12.746  21.875  0.00  0.00    +0.000 C 
ATOM     18  O   UNL     1       0.628  13.142  21.895  0.00  0.00    +0.000 OA
ATOM     19  N   UNL     1      -0.971  11.596  21.219  0.00  0.00    +0.000 N 
ATOM     20  H   UNL     1      -1.961  11.486  21.045  0.00  0.00    +0.000 HD
BRANCH  17  27
ATOM     21  O   UNL     1      -4.291  11.806  24.359  0.00  0.00    +0.000 OA
ATOM     22  C   UNL     1      -3.666  12.760  23.905  0.00  0.00    +0.000 C 
ATOM     23  C   UNL     1      -4.167  14.176  24.025  0.00  0.00    +0.000 C 
ATOM     24  C   UNL     1      -3.249  15.032  24.886  0.00  0.00    +0.000 C 
ATOM     25  C   UNL     1      -2.034  15.579  24.138  0.00  0.00    +0.000 C 
ATOM     26  C   UNL     1      -1.035  14.520  23.660  0.00  0.00    +0.000 C 
ATOM     27  C   UNL     1      -1.619  13.559  22.625  0.00  0.00    +0.000 C 
ATOM     28  N   UNL     1      -2.484  12.567  23.268  0.00  0.00    +0.000 N 
ATOM     29  H   UNL     1      -2.199  11.589  23.185  0.00  0.00    +0.000 HD
ENDBRANCH  17  27
ENDBRANCH   1  19
TORSDOF 3
ENDMDL
MODEL 7
REMARK VINA RESULT:      -8.0      4.044      6.041
REMARK  Name = 
REMARK  3 active torsions:
REMARK  status: ('A' for Active; 'I' for Inactive)
REMARK    1  A    between atoms: C_7  and  C_8
REMARK    2  A    between atoms: N_10  and  C_11
REMARK    3  A    between atoms: C_16  and  C_17
REMARK                            x       y       z     vdW  Elec       q    Type
REMARK                         _______ _______ _______ _____ _____    ______ ____
ROOT
ATOM      1  C   UNL     1       1.329   8.270  20.443  0.00  0.00    +0.000 A 
ATOM      2  C   UNL     1       1.437   9.193  19.389  0.00  0.00    +0.000 A 
ATOM      3  C   UNL     1       0.856  10.462  19.447  0.00  0.00    +0.000 A 
ATOM      4  C   UNL     1       0.166  10.808  20.602  0.00  0.00    +0.000 A 
ATOM      5  N   UNL     1      -0.468  11.970  20.944  0.00  0.00    +0.000 NA
ATOM      6  C   UNL     1      -0.885  11.751  22.165  0.00  0.00    +0.000 A 
ATOM      7  O   UNL     1      -0.609  10.491  22.655  0.00  0.00    +0.000 OA
ATOM      8  C   UNL     1       0.064   9.883  21.632  0.00  0.00    +0.000 A 
ATOM      9  C   UNL     1       0.590   8.594  21.594  0.00  0.00    +0.000 A 
ENDROOT
BRANCH   6  10
ATOM     10  C   UNL     1      -1.630  12.648  23.046  0.00  0.00    +0.000 A 
ATOM     11  C   UNL     1      -1.074  13.882  23.440  0.00  0.00    +0.000 A 
ATOM     12  C   UNL     1      -1.820  14.770  24.219  0.00  0.00    +0.000 A 
ATOM     13  C   UNL     1      -3.108  14.424  24.617  0.00  0.00    +0.000 A 
ATOM     14  F   UNL     1      -3.826  15.278  25.352  0.00  0.00    +0.000 F 
ATOM     15  C   UNL     1      -3.665  13.204  24.247  0.00  0.00    +0.000 A 
ATOM     16  C   UNL     1      -2.925  12.323  23.465  0.00  0.00    +0.000 A 
ENDBRANCH   6  10
BRANCH   1  19
ATOM     17  C   UNL     1       2.536   6.481  19.227  0.00  0.00    +0.000 C 
ATOM     18  O   UNL     1       2.571   7.060  18.139  0.00  0.00    +0.000 OA
ATOM     19  N   UNL     1       1.976   7.011  20.386  0.00  0.00    +0.000 N 
ATOM     20  H   UNL     1       2.211   6.584  21.272  0.00  0.00    +0.000 HD
BRANCH  17  27
ATOM     21  O   UNL     1       2.051   2.860  22.017  0.00  0.00    +0.000 OA
ATOM     22  C   UNL     1       2.719   3.240  21.060  0.00  0.00    +0.000 C 
ATOM     23  C   UNL     1       3.867   2.430  20.513  0.00  0.00    +0.000 C 
ATOM     24  C   UNL     1       3.600   1.954  19.093  0.00  0.00    +0.000 C 
ATOM     25  C   UNL     1       3.897   3.005  18.024  0.00  0.00    +0.000 C 
ATOM     26  C   UNL     1       2.995   4.242  18.061  0.00  0.00    +0.000 C 
ATOM     27  C   UNL     1       3.145   5.064  19.341  0.00  0.00    +0.000 C 
ATOM     28  N   UNL     1       2.444   4.422  20.455  0.00  0.00    +0.000 N 
ATOM     29  H   UNL     1       1.677   4.949  20.877  0.00  0.00    +0.000 HD
ENDBRANCH  17  27
ENDBRANCH   1  19
TORSDOF 3
ENDMDL
MODEL 8
REMARK VINA RESULT:      -8.0      5.045      9.960
REMARK  Name = 
REMARK  3 active torsions:
REMARK  status: ('A' for Active; 'I' for Inactive)
REMARK    1  A    between atoms: C_7  and  C_8
REMARK    2  A    between atoms: N_10  and  C_11
REMARK    3  A    between atoms: C_16  and  C_17
REMARK                            x       y       z     vdW  Elec       q    Type
REMARK                         _______ _______ _______ _____ _____    ______ ____
ROOT
ATOM      1  C   UNL     1       1.117  11.177  19.038  0.00  0.00    +0.000 A 
ATOM      2  C   UNL     1       0.702  10.400  20.134  0.00  0.00    +0.000 A 
ATOM      3  C   UNL     1       1.037   9.051  20.260  0.00  0.00    +0.000 A 
ATOM      4  C   UNL     1       1.821   8.480  19.264  0.00  0.00    +0.000 A 
ATOM      5  N   UNL     1       2.317   7.212  19.142  0.00  0.00    +0.000 NA
ATOM      6  C   UNL     1       3.031   7.261  18.047  0.00  0.00    +0.000 A 
ATOM      7  O   UNL     1       3.012   8.477  17.395  0.00  0.00    +0.000 OA
ATOM      8  C   UNL     1       2.218   9.259  18.187  0.00  0.00    +0.000 A 
ATOM      9  C   UNL     1       1.867  10.594  18.002  0.00  0.00    +0.000 A 
ENDROOT
BRANCH   6  10
ATOM     10  C   UNL     1       3.803   6.192  17.416  0.00  0.00    +0.000 A 
ATOM     11  C   UNL     1       3.439   4.843  17.608  0.00  0.00    +0.000 A 
ATOM     12  C   UNL     1       4.132   3.828  16.942  0.00  0.00    +0.000 A 
ATOM     13  C   UNL     1       5.192   4.154  16.102  0.00  0.00    +0.000 A 
ATOM     14  F   UNL     1       5.848   3.185  15.456  0.00  0.00    +0.000 F 
ATOM     15  C   UNL     1       5.572   5.479  15.914  0.00  0.00    +0.000 A 
ATOM     16  C   UNL     1       4.877   6.490  16.570  0.00  0.00    +0.000 A 
ENDBRANCH   6  10
BRANCH   1  19
ATOM     17  C   UNL     1       1.684  13.566  19.368  0.00  0.00    +0.000 C 
ATOM     18  O   UNL     1       2.824  13.373  19.798  0.00  0.00    +0.000 OA
ATOM     19  N   UNL     1       0.814  12.558  18.960  0.00  0.00    +0.000 N 
ATOM     20  H   UNL     1       0.014  12.814  18.397  0.00  0.00    +0.000 HD
BRANCH  17  27
ATOM     21  O   UNL     1       2.968  17.440  17.253  0.00  0.00    +0.000 OA
ATOM     22  C   UNL     1       2.120  17.020  18.036  0.00  0.00    +0.000 C 
ATOM     23  C   UNL     1       1.122  17.933  18.701  0.00  0.00    +0.000 C 
ATOM     24  C   UNL     1      -0.305  17.625  18.269  0.00  0.00    +0.000 C 
ATOM     25  C   UNL     1      -0.940  16.460  19.026  0.00  0.00    +0.000 C 
ATOM     26  C   UNL     1      -0.291  15.095  18.781  0.00  0.00    +0.000 C 
ATOM     27  C   UNL     1       1.156  15.015  19.267  0.00  0.00    +0.000 C 
ATOM     28  N   UNL     1       2.055  15.699  18.335  0.00  0.00    +0.000 N 
ATOM     29  H   UNL     1       2.769  15.124  17.883  0.00  0.00    +0.000 HD
ENDBRANCH  17  27
ENDBRANCH   1  19
TORSDOF 3
ENDMDL
MODEL 9
REMARK VINA RESULT:      -7.9      4.568     11.301
REMARK  Name = 
REMARK  3 active torsions:
REMARK  status: ('A' for Active; 'I' for Inactive)
REMARK    1  A    between atoms: C_7  and  C_8
REMARK    2  A    between atoms: N_10  and  C_11
REMARK    3  A    between atoms: C_16  and  C_17
REMARK                            x       y       z     vdW  Elec       q    Type
REMARK                         _______ _______ _______ _____ _____    ______ ____
ROOT
ATOM      1  C   UNL     1       0.529  11.257  20.292  0.00  0.00    +0.000 A 
ATOM      2  C   UNL     1       0.931  11.817  19.068  0.00  0.00    +0.000 A 
ATOM      3  C   UNL     1       1.591  11.073  18.088  0.00  0.00    +0.000 A 
ATOM      4  C   UNL     1       1.834   9.729  18.347  0.00  0.00    +0.000 A 
ATOM      5  N   UNL     1       2.423   8.767  17.575  0.00  0.00    +0.000 NA
ATOM      6  C   UNL     1       2.324   7.681  18.298  0.00  0.00    +0.000 A 
ATOM      7  O   UNL     1       1.740   7.860  19.536  0.00  0.00    +0.000 OA
ATOM      8  C   UNL     1       1.434   9.192  19.563  0.00  0.00    +0.000 A 
ATOM      9  C   UNL     1       0.815   9.911  20.582  0.00  0.00    +0.000 A 
ENDROOT
BRANCH   6  10
ATOM     10  C   UNL     1       2.783   6.332  17.979  0.00  0.00    +0.000 A 
ATOM     11  C   UNL     1       4.139   6.095  17.670  0.00  0.00    +0.000 A 
ATOM     12  C   UNL     1       4.589   4.792  17.441  0.00  0.00    +0.000 A 
ATOM     13  C   UNL     1       3.690   3.732  17.503  0.00  0.00    +0.000 A 
ATOM     14  F   UNL     1       4.123   2.484  17.295  0.00  0.00    +0.000 F 
ATOM     15  C   UNL     1       2.347   3.950  17.792  0.00  0.00    +0.000 A 
ATOM     16  C   UNL     1       1.901   5.247  18.029  0.00  0.00    +0.000 A 
ENDBRANCH   6  10
BRANCH   1  19
ATOM     17  C   UNL     1      -1.529  12.372  21.104  0.00  0.00    +0.000 C 
ATOM     18  O   UNL     1      -2.246  12.030  20.161  0.00  0.00    +0.000 OA
ATOM     19  N   UNL     1      -0.191  12.017  21.247  0.00  0.00    +0.000 N 
ATOM     20  H   UNL     1       0.241  12.126  22.155  0.00  0.00    +0.000 HD
BRANCH  17  27
ATOM     21  O   UNL     1      -4.561  11.837  24.518  0.00  0.00    +0.000 OA
ATOM     22  C   UNL     1      -3.874  12.703  23.984  0.00  0.00    +0.000 C 
ATOM     23  C   UNL     1      -3.964  14.155  24.379  0.00  0.00    +0.000 C 
ATOM     24  C   UNL     1      -2.665  14.657  24.994  0.00  0.00    +0.000 C 
ATOM     25  C   UNL     1      -1.609  15.055  23.963  0.00  0.00    +0.000 C 
ATOM     26  C   UNL     1      -1.068  13.904  23.110  0.00  0.00    +0.000 C 
ATOM     27  C   UNL     1      -2.130  13.259  22.218  0.00  0.00    +0.000 C 
ATOM     28  N   UNL     1      -2.997  12.376  23.001  0.00  0.00    +0.000 N 
ATOM     29  H   UNL     1      -2.992  11.386  22.747  0.00  0.00    +0.000 HD
ENDBRANCH  17  27
ENDBRANCH   1  19
TORSDOF 3
ENDMDL
