MODEL 1
REMARK VINA RESULT:      -8.6      0.000      0.000
REMARK  Name = 
REMARK  3 active torsions:
REMARK  status: ('A' for Active; 'I' for Inactive)
REMARK    1  A    between atoms: C_2  and  C_3
REMARK    2  A    between atoms: C_20  and  O_21
REMARK    3  A    between atoms: O_21  and  C_22
REMARK                            x       y       z     vdW  Elec       q    Type
REMARK                         _______ _______ _______ _____ _____    ______ ____
ROOT
ATOM      1  O   UNL     1       1.975   9.474  17.214  0.00  0.00    +0.000 OA
ATOM      2  C   UNL     1       1.631   9.253  18.374  0.00  0.00    +0.000 C 
ATOM      3  N   UNL     1       1.990   8.103  19.130  0.00  0.00    +0.000 N 
ATOM      4  C   UNL     1       1.531   7.894  20.515  0.00  0.00    +0.000 C 
ATOM      5  C   UNL     1       1.134   6.462  20.801  0.00  0.00    +0.000 C 
ATOM      6  C   UNL     1       2.273   5.510  20.520  0.00  0.00    +0.000 C 
ATOM      7  C   UNL     1       3.068   5.884  19.300  0.00  0.00    +0.000 A 
ATOM      8  C   UNL     1       3.994   4.929  18.834  0.00  0.00    +0.000 A 
ATOM      9  C   UNL     1       4.800   5.180  17.729  0.00  0.00    +0.000 A 
ATOM     10  C   UNL     1       4.723   6.422  17.113  0.00  0.00    +0.000 A 
ATOM     11  C   UNL     1       3.802   7.377  17.566  0.00  0.00    +0.000 A 
ATOM     12  C   UNL     1       2.945   7.129  18.652  0.00  0.00    +0.000 A 
ENDROOT
BRANCH   2  13
ATOM     13  C   UNL     1       0.732  10.316  19.015  0.00  0.00    +0.000 A 
ATOM     14  N   UNL     1       1.286  11.082  19.913  0.00  0.00    +0.000 NA
ATOM     15  N   UNL     1       0.505  11.947  20.609  0.00  0.00    +0.000 N 
ATOM     16  C   UNL     1      -0.851  12.091  20.477  0.00  0.00    +0.000 A 
ATOM     17  O   UNL     1      -1.515  12.789  21.234  0.00  0.00    +0.000 OA
ATOM     18  C   UNL     1      -1.470  11.365  19.355  0.00  0.00    +0.000 A 
ATOM     19  C   UNL     1      -2.805  11.627  19.028  0.00  0.00    +0.000 A 
ATOM     20  C   UNL     1      -3.377  11.005  17.918  0.00  0.00    +0.000 A 
ATOM     21  C   UNL     1      -2.619  10.119  17.157  0.00  0.00    +0.000 A 
ATOM     22  C   UNL     1      -1.289   9.840  17.505  0.00  0.00    +0.000 A 
ATOM     23  C   UNL     1      -0.697  10.471  18.609  0.00  0.00    +0.000 A 
ATOM     24  H   UNL     1       0.947  12.439  21.380  0.00  0.00    +0.000 HD
ENDBRANCH   2  13
BRANCH   9  25
ATOM     25  O   UNL     1       5.641   4.166  17.377  0.00  0.00    +0.000 OA
BRANCH  25  26
ATOM     26  C   UNL     1       6.751   4.545  16.581  0.00  0.00    +0.000 C 
ATOM     27  F   UNL     1       7.890   4.209  17.234  0.00  0.00    +0.000 F 
ATOM     28  F   UNL     1       6.710   3.794  15.452  0.00  0.00    +0.000 F 
ENDBRANCH  25  26
ENDBRANCH   9  25
TORSDOF 3
ENDMDL
MODEL 2
REMARK VINA RESULT:      -8.3      4.645      8.492
REMARK  Name = 
REMARK  3 active torsions:
REMARK  status: ('A' for Active; 'I' for Inactive)
REMARK    1  A    between atoms: C_2  and  C_3
REMARK    2  A    between atoms: C_20  and  O_21
REMARK    3  A    between atoms: O_21  and  C_22
REMARK                            x       y       z     vdW  Elec       q    Type
REMARK                         _______ _______ _______ _____ _____    ______ ____
ROOT
ATOM      1  O   UNL     1       1.711   6.332  21.190  0.00  0.00    +0.000 OA
ATOM      2  C   UNL     1       1.962   6.899  20.128  0.00  0.00    +0.000 C 
ATOM      3  N   UNL     1       1.533   8.209  19.777  0.00  0.00    +0.000 N 
ATOM      4  C   UNL     1       1.858   8.824  18.479  0.00  0.00    +0.000 C 
ATOM      5  C   UNL     1       0.704   9.601  17.881  0.00  0.00    +0.000 C 
ATOM      6  C   UNL     1       0.224  10.681  18.822  0.00  0.00    +0.000 C 
ATOM      7  C   UNL     1       0.232  10.255  20.264  0.00  0.00    +0.000 A 
ATOM      8  C   UNL     1      -0.417  11.110  21.177  0.00  0.00    +0.000 A 
ATOM      9  C   UNL     1      -0.449  10.827  22.539  0.00  0.00    +0.000 A 
ATOM     10  C   UNL     1       0.223   9.704  23.004  0.00  0.00    +0.000 A 
ATOM     11  C   UNL     1       0.868   8.845  22.103  0.00  0.00    +0.000 A 
ATOM     12  C   UNL     1       0.875   9.086  20.719  0.00  0.00    +0.000 A 
ENDROOT
BRANCH   2  13
ATOM     13  C   UNL     1       2.789   6.091  19.123  0.00  0.00    +0.000 A 
ATOM     14  N   UNL     1       3.846   6.678  18.635  0.00  0.00    +0.000 NA
ATOM     15  N   UNL     1       4.538   6.064  17.641  0.00  0.00    +0.000 N 
ATOM     16  C   UNL     1       4.221   4.861  17.065  0.00  0.00    +0.000 A 
ATOM     17  O   UNL     1       4.805   4.430  16.079  0.00  0.00    +0.000 OA
ATOM     18  C   UNL     1       3.138   4.102  17.713  0.00  0.00    +0.000 A 
ATOM     19  C   UNL     1       2.900   2.782  17.317  0.00  0.00    +0.000 A 
ATOM     20  C   UNL     1       1.932   2.027  17.979  0.00  0.00    +0.000 A 
ATOM     21  C   UNL     1       1.202   2.600  19.017  0.00  0.00    +0.000 A 
ATOM     22  C   UNL     1       1.426   3.933  19.392  0.00  0.00    +0.000 A 
ATOM     23  C   UNL     1       2.408   4.697  18.746  0.00  0.00    +0.000 A 
ATOM     24  H   UNL     1       5.281   6.601  17.204  0.00  0.00    +0.000 HD
ENDBRANCH   2  13
BRANCH   9  25
ATOM     25  O   UNL     1      -1.121  11.731  23.307  0.00  0.00    +0.000 OA
BRANCH  25  26
ATOM     26  C   UNL     1      -2.443  12.021  22.887  0.00  0.00    +0.000 C 
ATOM     27  F   UNL     1      -3.293  11.766  23.912  0.00  0.00    +0.000 F 
ATOM     28  F   UNL     1      -2.505  13.356  22.650  0.00  0.00    +0.000 F 
ENDBRANCH  25  26
ENDBRANCH   9  25
TORSDOF 3
ENDMDL
MODEL 3
REMARK VINA RESULT:      -8.3      1.669      2.029
REMARK  Name = 
REMARK  3 active torsions:
REMARK  status: ('A' for Active; 'I' for Inactive)
REMARK    1  A    between atoms: C_2  and  C_3
REMARK    2  A    between atoms: C_20  and  O_21
REMARK    3  A    between atoms: O_21  and  C_22
REMARK                            x       y       z     vdW  Elec       q    Type
REMARK                         _______ _______ _______ _____ _____    ______ ____
ROOT
ATOM      1  O   UNL     1       2.416   8.839  18.238  0.00  0.00    +0.000 OA
ATOM      2  C   UNL     1       2.067   8.170  19.210  0.00  0.00    +0.000 C 
ATOM      3  N   UNL     1       2.298   6.776  19.370  0.00  0.00    +0.000 N 
ATOM      4  C   UNL     1       1.840   6.032  20.556  0.00  0.00    +0.000 C 
ATOM      5  C   UNL     1       1.278   4.666  20.223  0.00  0.00    +0.000 C 
ATOM      6  C   UNL     1       2.290   3.823  19.484  0.00  0.00    +0.000 C 
ATOM      7  C   UNL     1       3.105   4.609  18.494  0.00  0.00    +0.000 A 
ATOM      8  C   UNL     1       3.901   3.865  17.600  0.00  0.00    +0.000 A 
ATOM      9  C   UNL     1       4.713   4.490  16.660  0.00  0.00    +0.000 A 
ATOM     10  C   UNL     1       4.776   5.877  16.647  0.00  0.00    +0.000 A 
ATOM     11  C   UNL     1       3.984   6.626  17.529  0.00  0.00    +0.000 A 
ATOM     12  C   UNL     1       3.121   6.018  18.456  0.00  0.00    +0.000 A 
ENDROOT
BRANCH   2  13
ATOM     13  C   UNL     1       1.313   8.932  20.305  0.00  0.00    +0.000 A 
ATOM     14  N   UNL     1       1.693   8.714  21.533  0.00  0.00    +0.000 NA
ATOM     15  N   UNL     1       0.973   9.254  22.549  0.00  0.00    +0.000 N 
ATOM     16  C   UNL     1      -0.159  10.016  22.416  0.00  0.00    +0.000 A 
ATOM     17  O   UNL     1      -0.840  10.355  23.376  0.00  0.00    +0.000 OA
ATOM     18  C   UNL     1      -0.508  10.418  21.043  0.00  0.00    +0.000 A 
ATOM     19  C   UNL     1      -1.520  11.363  20.846  0.00  0.00    +0.000 A 
ATOM     20  C   UNL     1      -1.803  11.812  19.556  0.00  0.00    +0.000 A 
ATOM     21  C   UNL     1      -1.085  11.303  18.476  0.00  0.00    +0.000 A 
ATOM     22  C   UNL     1      -0.090  10.336  18.676  0.00  0.00    +0.000 A 
ATOM     23  C   UNL     1       0.216   9.889  19.970  0.00  0.00    +0.000 A 
ATOM     24  H   UNL     1       1.225   8.966  23.489  0.00  0.00    +0.000 HD
ENDBRANCH   2  13
BRANCH   9  25
ATOM     25  O   UNL     1       5.421   3.651  15.850  0.00  0.00    +0.000 OA
BRANCH  25  26
ATOM     26  C   UNL     1       6.060   4.269  14.746  0.00  0.00    +0.000 C 
ATOM     27  F   UNL     1       7.365   4.469  15.054  0.00  0.00    +0.000 F 
ATOM     28  F   UNL     1       6.031   3.383  13.718  0.00  0.00    +0.000 F 
ENDBRANCH  25  26
ENDBRANCH   9  25
TORSDOF 3
ENDMDL
MODEL 4
REMARK VINA RESULT:      -8.2      2.095      2.693
REMARK  Name = 
REMARK  3 active torsions:
REMARK  status: ('A' for Active; 'I' for Inactive)
REMARK    1  A    between atoms: C_2  and  C_3
REMARK    2  A    between atoms: C_20  and  O_21
REMARK    3  A    between atoms: O_21  and  C_22
REMARK                            x       y       z     vdW  Elec       q    Type
REMARK                         _______ _______ _______ _____ _____    ______ ____
ROOT
ATOM      1  O   UNL     1       2.974   8.521  17.737  0.00  0.00    +0.000 OA
ATOM      2  C   UNL     1       2.541   7.731  18.574  0.00  0.00    +0.000 C 
ATOM      3  N   UNL     1       2.743   6.323  18.554  0.00  0.00    +0.000 N 
ATOM      4  C   UNL     1       2.184   5.431  19.583  0.00  0.00    +0.000 C 
ATOM      5  C   UNL     1       1.636   4.138  19.018  0.00  0.00    +0.000 C 
ATOM      6  C   UNL     1       2.695   3.384  18.248  0.00  0.00    +0.000 C 
ATOM      7  C   UNL     1       3.594   4.283  17.445  0.00  0.00    +0.000 A 
ATOM      8  C   UNL     1       4.452   3.654  16.521  0.00  0.00    +0.000 A 
ATOM      9  C   UNL     1       5.343   4.386  15.744  0.00  0.00    +0.000 A 
ATOM     10  C   UNL     1       5.422   5.760  15.932  0.00  0.00    +0.000 A 
ATOM     11  C   UNL     1       4.570   6.396  16.846  0.00  0.00    +0.000 A 
ATOM     12  C   UNL     1       3.629   5.682  17.608  0.00  0.00    +0.000 A 
ENDROOT
BRANCH   2  13
ATOM     13  C   UNL     1       1.710   8.348  19.703  0.00  0.00    +0.000 A 
ATOM     14  N   UNL     1       2.046   8.021  20.920  0.00  0.00    +0.000 NA
ATOM     15  N   UNL     1       1.262   8.428  21.950  0.00  0.00    +0.000 N 
ATOM     16  C   UNL     1       0.105   9.155  21.842  0.00  0.00    +0.000 A 
ATOM     17  O   UNL     1      -0.629   9.370  22.798  0.00  0.00    +0.000 OA
ATOM     18  C   UNL     1      -0.201   9.682  20.501  0.00  0.00    +0.000 A 
ATOM     19  C   UNL     1      -1.243  10.603  20.353  0.00  0.00    +0.000 A 
ATOM     20  C   UNL     1      -1.490  11.171  19.102  0.00  0.00    +0.000 A 
ATOM     21  C   UNL     1      -0.706  10.802  18.012  0.00  0.00    +0.000 A 
ATOM     22  C   UNL     1       0.320   9.857  18.160  0.00  0.00    +0.000 A 
ATOM     23  C   UNL     1       0.589   9.292  19.416  0.00  0.00    +0.000 A 
ATOM     24  H   UNL     1       1.486   8.055  22.867  0.00  0.00    +0.000 HD
ENDBRANCH   2  13
BRANCH   9  25
ATOM     25  O   UNL     1       6.104   3.654  14.881  0.00  0.00    +0.000 OA
BRANCH  25  26
ATOM     26  C   UNL     1       5.997   4.020  13.516  0.00  0.00    +0.000 C 
ATOM     27  F   UNL     1       6.637   3.091  12.764  0.00  0.00    +0.000 F 
ATOM     28  F   UNL     1       4.683   3.954  13.185  0.00  0.00    +0.000 F 
ENDBRANCH  25  26
ENDBRANCH   9  25
TORSDOF 3
ENDMDL
MODEL 5
REMARK VINA RESULT:      -8.1      1.665      1.898
REMARK  Name = 
REMARK  3 active torsions:
REMARK  status: ('A' for Active; 'I' for Inactive)
REMARK    1  A    between atoms: C_2  and  C_3
REMARK    2  A    between atoms: C_20  and  O_21
REMARK    3  A    between atoms: O_21  and  C_22
REMARK                            x       y       z     vdW  Elec       q    Type
REMARK                         _______ _______ _______ _____ _____    ______ ____
ROOT
ATOM      1  O   UNL     1       2.136   9.251  17.075  0.00  0.00    +0.000 OA
ATOM      2  C   UNL     1       1.751   9.318  18.241  0.00  0.00    +0.000 C 
ATOM      3  N   UNL     1       1.844   8.269  19.196  0.00  0.00    +0.000 N 
ATOM      4  C   UNL     1       1.349   8.412  20.577  0.00  0.00    +0.000 C 
ATOM      5  C   UNL     1       0.641   7.176  21.088  0.00  0.00    +0.000 C 
ATOM      6  C   UNL     1       1.538   5.962  21.019  0.00  0.00    +0.000 C 
ATOM      7  C   UNL     1       2.397   5.932  19.785  0.00  0.00    +0.000 A 
ATOM      8  C   UNL     1       3.085   4.730  19.526  0.00  0.00    +0.000 A 
ATOM      9  C   UNL     1       3.928   4.599  18.427  0.00  0.00    +0.000 A 
ATOM     10  C   UNL     1       4.131   5.699  17.605  0.00  0.00    +0.000 A 
ATOM     11  C   UNL     1       3.447   6.898  17.852  0.00  0.00    +0.000 A 
ATOM     12  C   UNL     1       2.556   7.040  18.930  0.00  0.00    +0.000 A 
ENDROOT
BRANCH   2  13
ATOM     13  C   UNL     1       1.113  10.649  18.654  0.00  0.00    +0.000 A 
ATOM     14  N   UNL     1       1.927  11.583  19.060  0.00  0.00    +0.000 NA
ATOM     15  N   UNL     1       1.409  12.731  19.567  0.00  0.00    +0.000 N 
ATOM     16  C   UNL     1       0.076  13.013  19.719  0.00  0.00    +0.000 A 
ATOM     17  O   UNL     1      -0.322  14.008  20.311  0.00  0.00    +0.000 OA
ATOM     18  C   UNL     1      -0.860  12.051  19.113  0.00  0.00    +0.000 A 
ATOM     19  C   UNL     1      -2.218  12.374  19.042  0.00  0.00    +0.000 A 
ATOM     20  C   UNL     1      -3.101  11.507  18.397  0.00  0.00    +0.000 A 
ATOM     21  C   UNL     1      -2.623  10.321  17.845  0.00  0.00    +0.000 A 
ATOM     22  C   UNL     1      -1.263   9.989  17.942  0.00  0.00    +0.000 A 
ATOM     23  C   UNL     1      -0.363  10.861  18.573  0.00  0.00    +0.000 A 
ATOM     24  H   UNL     1       2.066  13.383  19.982  0.00  0.00    +0.000 HD
ENDBRANCH   2  13
BRANCH   9  25
ATOM     25  O   UNL     1       4.520   3.378  18.288  0.00  0.00    +0.000 OA
BRANCH  25  26
ATOM     26  C   UNL     1       3.924   2.326  19.026  0.00  0.00    +0.000 C 
ATOM     27  F   UNL     1       3.710   1.276  18.195  0.00  0.00    +0.000 F 
ATOM     28  F   UNL     1       4.832   1.917  19.948  0.00  0.00    +0.000 F 
ENDBRANCH  25  26
ENDBRANCH   9  25
TORSDOF 3
ENDMDL
MODEL 6
REMARK VINA RESULT:      -8.0      2.221      2.922
REMARK  Name = 
REMARK  3 active torsions:
REMARK  status: ('A' for Active; 'I' for Inactive)
REMARK    1  A    between atoms: C_2  and  C_3
REMARK    2  A    between atoms: C_20  and  O_21
REMARK    3  A    between atoms: O_21  and  C_22
REMARK                            x       y       z     vdW  Elec       q    Type
REMARK                         _______ _______ _______ _____ _____    ______ ____
ROOT
ATOM      1  O   UNL     1       0.895   8.664  21.247  0.00  0.00    +0.000 OA
ATOM      2  C   UNL     1       1.218   8.924  20.088  0.00  0.00    +0.000 C 
ATOM      3  N   UNL     1       1.928   8.049  19.221  0.00  0.00    +0.000 N 
ATOM      4  C   UNL     1       2.296   8.429  17.846  0.00  0.00    +0.000 C 
ATOM      5  C   UNL     1       3.688   7.981  17.455  0.00  0.00    +0.000 C 
ATOM      6  C   UNL     1       3.844   6.485  17.602  0.00  0.00    +0.000 C 
ATOM      7  C   UNL     1       3.144   5.934  18.813  0.00  0.00    +0.000 A 
ATOM      8  C   UNL     1       3.431   4.597  19.154  0.00  0.00    +0.000 A 
ATOM      9  C   UNL     1       2.820   3.978  20.239  0.00  0.00    +0.000 A 
ATOM     10  C   UNL     1       1.867   4.683  20.963  0.00  0.00    +0.000 A 
ATOM     11  C   UNL     1       1.578   6.015  20.635  0.00  0.00    +0.000 A 
ATOM     12  C   UNL     1       2.215   6.676  19.571  0.00  0.00    +0.000 A 
ENDROOT
BRANCH   2  13
ATOM     13  C   UNL     1       0.818  10.313  19.583  0.00  0.00    +0.000 A 
ATOM     14  N   UNL     1       1.634  11.291  19.861  0.00  0.00    +0.000 NA
ATOM     15  N   UNL     1       1.264  12.562  19.558  0.00  0.00    +0.000 N 
ATOM     16  C   UNL     1       0.076  12.939  18.988  0.00  0.00    +0.000 A 
ATOM     17  O   UNL     1      -0.253  14.113  18.870  0.00  0.00    +0.000 OA
ATOM     18  C   UNL     1      -0.786  11.845  18.509  0.00  0.00    +0.000 A 
ATOM     19  C   UNL     1      -1.907  12.152  17.733  0.00  0.00    +0.000 A 
ATOM     20  C   UNL     1      -2.684  11.120  17.206  0.00  0.00    +0.000 A 
ATOM     21  C   UNL     1      -2.343   9.795  17.471  0.00  0.00    +0.000 A 
ATOM     22  C   UNL     1      -1.232   9.494  18.273  0.00  0.00    +0.000 A 
ATOM     23  C   UNL     1      -0.434  10.522  18.795  0.00  0.00    +0.000 A 
ATOM     24  H   UNL     1       1.868  13.304  19.896  0.00  0.00    +0.000 HD
ENDBRANCH   2  13
BRANCH   9  25
ATOM     25  O   UNL     1       3.199   2.688  20.464  0.00  0.00    +0.000 OA
BRANCH  25  26
ATOM     26  C   UNL     1       4.126   2.156  19.534  0.00  0.00    +0.000 C 
ATOM     27  F   UNL     1       5.044   1.418  20.206  0.00  0.00    +0.000 F 
ATOM     28  F   UNL     1       3.445   1.298  18.733  0.00  0.00    +0.000 F 
ENDBRANCH  25  26
ENDBRANCH   9  25
TORSDOF 3
ENDMDL
MODEL 7
REMARK VINA RESULT:      -8.0      0.909      1.080
REMARK  Name = 
REMARK  3 active torsions:
REMARK  status: ('A' for Active; 'I' for Inactive)
REMARK    1  A    between atoms: C_2  and  C_3
REMARK    2  A    between atoms: C_20  and  O_21
REMARK    3  A    between atoms: O_21  and  C_22
REMARK                            x       y       z     vdW  Elec       q    Type
REMARK                         _______ _______ _______ _____ _____    ______ ____
ROOT
ATOM      1  O   UNL     1       1.836   9.761  17.268  0.00  0.00    +0.000 OA
ATOM      2  C   UNL     1       1.474   9.597  18.432  0.00  0.00    +0.000 C 
ATOM      3  N   UNL     1       1.783   8.465  19.235  0.00  0.00    +0.000 N 
ATOM      4  C   UNL     1       1.304   8.326  20.621  0.00  0.00    +0.000 C 
ATOM      5  C   UNL     1       0.851   6.922  20.958  0.00  0.00    +0.000 C 
ATOM      6  C   UNL     1       1.955   5.918  20.725  0.00  0.00    +0.000 C 
ATOM      7  C   UNL     1       2.775   6.215  19.499  0.00  0.00    +0.000 A 
ATOM      8  C   UNL     1       3.667   5.209  19.078  0.00  0.00    +0.000 A 
ATOM      9  C   UNL     1       4.492   5.387  17.973  0.00  0.00    +0.000 A 
ATOM     10  C   UNL     1       4.467   6.606  17.309  0.00  0.00    +0.000 A 
ATOM     11  C   UNL     1       3.580   7.612  17.717  0.00  0.00    +0.000 A 
ATOM     12  C   UNL     1       2.704   7.438  18.803  0.00  0.00    +0.000 A 
ENDROOT
BRANCH   2  13
ATOM     13  C   UNL     1       0.611  10.717  19.022  0.00  0.00    +0.000 A 
ATOM     14  N   UNL     1       1.220  11.579  19.788  0.00  0.00    +0.000 NA
ATOM     15  N   UNL     1       0.482  12.509  20.446  0.00  0.00    +0.000 N 
ATOM     16  C   UNL     1      -0.883  12.629  20.405  0.00  0.00    +0.000 A 
ATOM     17  O   UNL     1      -1.497  13.400  21.131  0.00  0.00    +0.000 OA
ATOM     18  C   UNL     1      -1.575  11.782  19.419  0.00  0.00    +0.000 A 
ATOM     19  C   UNL     1      -2.934  11.998  19.170  0.00  0.00    +0.000 A 
ATOM     20  C   UNL     1      -3.580  11.256  18.180  0.00  0.00    +0.000 A 
ATOM     21  C   UNL     1      -2.868  10.299  17.461  0.00  0.00    +0.000 A 
ATOM     22  C   UNL     1      -1.512  10.068  17.734  0.00  0.00    +0.000 A 
ATOM     23  C   UNL     1      -0.847  10.818  18.715  0.00  0.00    +0.000 A 
ATOM     24  H   UNL     1       0.974  13.085  21.123  0.00  0.00    +0.000 HD
ENDBRANCH   2  13
BRANCH   9  25
ATOM     25  O   UNL     1       5.296   4.329  17.668  0.00  0.00    +0.000 OA
BRANCH  25  26
ATOM     26  C   UNL     1       4.884   3.552  16.557  0.00  0.00    +0.000 C 
ATOM     27  F   UNL     1       3.532   3.594  16.472  0.00  0.00    +0.000 F 
ATOM     28  F   UNL     1       5.366   4.159  15.442  0.00  0.00    +0.000 F 
ENDBRANCH  25  26
ENDBRANCH   9  25
TORSDOF 3
ENDMDL
MODEL 8
REMARK VINA RESULT:      -7.7      4.524      8.515
REMARK  Name = 
REMARK  3 active torsions:
REMARK  status: ('A' for Active; 'I' for Inactive)
REMARK    1  A    between atoms: C_2  and  C_3
REMARK    2  A    between atoms: C_20  and  O_21
REMARK    3  A    between atoms: O_21  and  C_22
REMARK                            x       y       z     vdW  Elec       q    Type
REMARK                         _______ _______ _______ _____ _____    ______ ____
ROOT
ATOM      1  O   UNL     1       1.605   6.163  21.189  0.00  0.00    +0.000 OA
ATOM      2  C   UNL     1       2.141   6.622  20.182  0.00  0.00    +0.000 C 
ATOM      3  N   UNL     1       1.848   7.888  19.603  0.00  0.00    +0.000 N 
ATOM      4  C   UNL     1       2.519   8.372  18.384  0.00  0.00    +0.000 C 
ATOM      5  C   UNL     1       1.581   9.077  17.427  0.00  0.00    +0.000 C 
ATOM      6  C   UNL     1       0.890  10.243  18.095  0.00  0.00    +0.000 C 
ATOM      7  C   UNL     1       0.505   9.963  19.522  0.00  0.00    +0.000 A 
ATOM      8  C   UNL     1      -0.346  10.901  20.140  0.00  0.00    +0.000 A 
ATOM      9  C   UNL     1      -0.744  10.755  21.465  0.00  0.00    +0.000 A 
ATOM     10  C   UNL     1      -0.243   9.689  22.201  0.00  0.00    +0.000 A 
ATOM     11  C   UNL     1       0.600   8.748  21.593  0.00  0.00    +0.000 A 
ATOM     12  C   UNL     1       0.980   8.850  20.244  0.00  0.00    +0.000 A 
ENDROOT
BRANCH   2  13
ATOM     13  C   UNL     1       3.190   5.724  19.519  0.00  0.00    +0.000 A 
ATOM     14  N   UNL     1       4.422   6.150  19.545  0.00  0.00    +0.000 NA
ATOM     15  N   UNL     1       5.369   5.464  18.855  0.00  0.00    +0.000 N 
ATOM     16  C   UNL     1       5.156   4.344  18.094  0.00  0.00    +0.000 A 
ATOM     17  O   UNL     1       6.027   3.856  17.385  0.00  0.00    +0.000 OA
ATOM     18  C   UNL     1       3.813   3.747  18.188  0.00  0.00    +0.000 A 
ATOM     19  C   UNL     1       3.584   2.494  17.611  0.00  0.00    +0.000 A 
ATOM     20  C   UNL     1       2.339   1.882  17.763  0.00  0.00    +0.000 A 
ATOM     21  C   UNL     1       1.333   2.533  18.474  0.00  0.00    +0.000 A 
ATOM     22  C   UNL     1       1.561   3.802  19.027  0.00  0.00    +0.000 A 
ATOM     23  C   UNL     1       2.813   4.420  18.896  0.00  0.00    +0.000 A 
ATOM     24  H   UNL     1       6.289   5.890  18.800  0.00  0.00    +0.000 HD
ENDBRANCH   2  13
BRANCH   9  25
ATOM     25  O   UNL     1      -1.579  11.726  21.934  0.00  0.00    +0.000 OA
BRANCH  25  26
ATOM     26  C   UNL     1      -1.609  11.873  23.343  0.00  0.00    +0.000 C 
ATOM     27  F   UNL     1      -1.221  13.133  23.658  0.00  0.00    +0.000 F 
ATOM     28  F   UNL     1      -2.903  11.753  23.732  0.00  0.00    +0.000 F 
ENDBRANCH  25  26
ENDBRANCH   9  25
TORSDOF 3
ENDMDL
MODEL 9
REMARK VINA RESULT:      -7.6      3.465      5.760
REMARK  Name = 
REMARK  3 active torsions:
REMARK  status: ('A' for Active; 'I' for Inactive)
REMARK    1  A    between atoms: C_2  and  C_3
REMARK    2  A    between atoms: C_20  and  O_21
REMARK    3  A    between atoms: O_21  and  C_22
REMARK                            x       y       z     vdW  Elec       q    Type
REMARK                         _______ _______ _______ _____ _____    ______ ____
ROOT
ATOM      1  O   UNL     1      -0.406  10.652  23.491  0.00  0.00    +0.000 OA
ATOM      2  C   UNL     1      -1.042  11.243  22.620  0.00  0.00    +0.000 C 
ATOM      3  N   UNL     1      -0.838  11.103  21.219  0.00  0.00    +0.000 N 
ATOM      4  C   UNL     1      -1.628  11.854  20.228  0.00  0.00    +0.000 C 
ATOM      5  C   UNL     1      -0.800  12.364  19.068  0.00  0.00    +0.000 C 
ATOM      6  C   UNL     1      -0.087  11.234  18.363  0.00  0.00    +0.000 C 
ATOM      7  C   UNL     1       0.430  10.182  19.306  0.00  0.00    +0.000 A 
ATOM      8  C   UNL     1       1.304   9.221  18.760  0.00  0.00    +0.000 A 
ATOM      9  C   UNL     1       1.822   8.189  19.534  0.00  0.00    +0.000 A 
ATOM     10  C   UNL     1       1.419   8.080  20.859  0.00  0.00    +0.000 A 
ATOM     11  C   UNL     1       0.554   9.033  21.413  0.00  0.00    +0.000 A 
ATOM     12  C   UNL     1       0.054  10.111  20.662  0.00  0.00    +0.000 A 
ENDROOT
BRANCH   2  13
ATOM     13  C   UNL     1      -2.118  12.210  23.123  0.00  0.00    +0.000 A 
ATOM     14  N   UNL     1      -3.226  11.675  23.554  0.00  0.00    +0.000 NA
ATOM     15  N   UNL     1      -4.263  12.487  23.883  0.00  0.00    +0.000 N 
ATOM     16  C   UNL     1      -4.275  13.854  23.789  0.00  0.00    +0.000 A 
ATOM     17  O   UNL     1      -5.289  14.517  23.968  0.00  0.00    +0.000 OA
ATOM     18  C   UNL     1      -2.985  14.490  23.472  0.00  0.00    +0.000 A 
ATOM     19  C   UNL     1      -2.869  15.880  23.566  0.00  0.00    +0.000 A 
ATOM     20  C   UNL     1      -1.631  16.486  23.347  0.00  0.00    +0.000 A 
ATOM     21  C   UNL     1      -0.528  15.700  23.022  0.00  0.00    +0.000 A 
ATOM     22  C   UNL     1      -0.656  14.308  22.902  0.00  0.00    +0.000 A 
ATOM     23  C   UNL     1      -1.891  13.686  23.136  0.00  0.00    +0.000 A 
ATOM     24  H   UNL     1      -5.145  12.033  24.098  0.00  0.00    +0.000 HD
ENDBRANCH   2  13
BRANCH   9  25
ATOM     25  O   UNL     1       2.665   7.337  18.884  0.00  0.00    +0.000 OA
BRANCH  25  26
ATOM     26  C   UNL     1       2.637   5.993  19.332  0.00  0.00    +0.000 C 
ATOM     27  F   UNL     1       2.248   5.198  18.306  0.00  0.00    +0.000 F 
ATOM     28  F   UNL     1       3.912   5.644  19.636  0.00  0.00    +0.000 F 
ENDBRANCH  25  26
ENDBRANCH   9  25
TORSDOF 3
ENDMDL
