MODEL 1
REMARK VINA RESULT:      -8.0      0.000      0.000
REMARK  Name = 
REMARK  2 active torsions:
REMARK  status: ('A' for Active; 'I' for Inactive)
REMARK    1  A    between atoms: C_1  and  C_2
REMARK    2  A    between atoms: C_4  and  C_5
REMARK                            x       y       z     vdW  Elec       q    Type
REMARK                         _______ _______ _______ _____ _____    ______ ____
ROOT
ATOM      1  C   UNL     1       1.586   9.667  18.410  0.00  0.00    +0.000 C 
ATOM      2  O   UNL     1       2.211   9.955  17.392  0.00  0.00    +0.000 OA
ATOM      3  N   UNL     1       1.746   8.428  19.058  0.00  0.00    +0.000 N 
ATOM      4  C   UNL     1       1.156   8.071  20.362  0.00  0.00    +0.000 C 
ATOM      5  C   UNL     1       1.823   6.896  21.075  0.00  0.00    +0.000 C 
ATOM      6  C   UNL     1       1.864   5.732  20.125  0.00  0.00    +0.000 A 
ATOM      7  C   UNL     1       1.541   4.434  20.531  0.00  0.00    +0.000 A 
ATOM      8  C   UNL     1       1.564   3.392  19.604  0.00  0.00    +0.000 A 
ATOM      9  C   UNL     1       1.927   3.643  18.281  0.00  0.00    +0.000 A 
ATOM     10  C   UNL     1       2.259   4.937  17.874  0.00  0.00    +0.000 A 
ATOM     11  C   UNL     1       2.213   5.995  18.788  0.00  0.00    +0.000 A 
ATOM     12  C   UNL     1       2.560   7.410  18.379  0.00  0.00    +0.000 C 
ENDROOT
BRANCH   1  16
ATOM     13  C   UNL     1       0.734  13.639  21.242  0.00  0.00    +0.000 C 
ATOM     14  C   UNL     1       0.217  12.563  20.337  0.00  0.00    +0.000 A 
ATOM     15  C   UNL     1       1.034  11.524  19.945  0.00  0.00    +0.000 A 
ATOM     16  C   UNL     1       0.595  10.654  18.945  0.00  0.00    +0.000 A 
ATOM     17  C   UNL     1      -0.755  10.713  18.510  0.00  0.00    +0.000 A 
ATOM     18  C   UNL     1      -1.383   9.811  17.610  0.00  0.00    +0.000 A 
ATOM     19  C   UNL     1      -2.735   9.938  17.278  0.00  0.00    +0.000 A 
ATOM     20  C   UNL     1      -3.478  10.979  17.815  0.00  0.00    +0.000 A 
ATOM     21  C   UNL     1      -2.870  11.881  18.682  0.00  0.00    +0.000 A 
ATOM     22  C   UNL     1      -1.533  11.766  19.041  0.00  0.00    +0.000 A 
ATOM     23  N   UNL     1      -1.047  12.687  19.891  0.00  0.00    +0.000 NA
ENDBRANCH   1  16
TORSDOF 1
ENDMDL
MODEL 2
REMARK VINA RESULT:      -7.5      4.440      7.481
REMARK  Name = 
REMARK  2 active torsions:
REMARK  status: ('A' for Active; 'I' for Inactive)
REMARK    1  A    between atoms: C_1  and  C_2
REMARK    2  A    between atoms: C_4  and  C_5
REMARK                            x       y       z     vdW  Elec       q    Type
REMARK                         _______ _______ _______ _____ _____    ______ ____
ROOT
ATOM      1  C   UNL     1       5.757   5.808  17.818  0.00  0.00    +0.000 C 
ATOM      2  O   UNL     1       6.729   6.329  18.359  0.00  0.00    +0.000 OA
ATOM      3  N   UNL     1       5.876   5.054  16.636  0.00  0.00    +0.000 N 
ATOM      4  C   UNL     1       4.790   4.270  16.017  0.00  0.00    +0.000 C 
ATOM      5  C   UNL     1       5.248   3.189  15.041  0.00  0.00    +0.000 C 
ATOM      6  C   UNL     1       6.149   3.826  14.021  0.00  0.00    +0.000 A 
ATOM      7  C   UNL     1       6.046   3.535  12.657  0.00  0.00    +0.000 A 
ATOM      8  C   UNL     1       6.885   4.176  11.747  0.00  0.00    +0.000 A 
ATOM      9  C   UNL     1       7.836   5.091  12.199  0.00  0.00    +0.000 A 
ATOM     10  C   UNL     1       7.948   5.377  13.561  0.00  0.00    +0.000 A 
ATOM     11  C   UNL     1       7.093   4.761  14.481  0.00  0.00    +0.000 A 
ATOM     12  C   UNL     1       7.183   5.054  15.964  0.00  0.00    +0.000 C 
ENDROOT
BRANCH   1  16
ATOM     13  C   UNL     1       1.739   8.678  18.199  0.00  0.00    +0.000 C 
ATOM     14  C   UNL     1       2.486   7.442  18.596  0.00  0.00    +0.000 A 
ATOM     15  C   UNL     1       3.799   7.263  18.218  0.00  0.00    +0.000 A 
ATOM     16  C   UNL     1       4.403   6.021  18.421  0.00  0.00    +0.000 A 
ATOM     17  C   UNL     1       3.739   5.041  19.207  0.00  0.00    +0.000 A 
ATOM     18  C   UNL     1       4.279   3.794  19.618  0.00  0.00    +0.000 A 
ATOM     19  C   UNL     1       3.552   2.917  20.428  0.00  0.00    +0.000 A 
ATOM     20  C   UNL     1       2.265   3.255  20.821  0.00  0.00    +0.000 A 
ATOM     21  C   UNL     1       1.717   4.466  20.409  0.00  0.00    +0.000 A 
ATOM     22  C   UNL     1       2.426   5.362  19.619  0.00  0.00    +0.000 A 
ATOM     23  N   UNL     1       1.806   6.505  19.283  0.00  0.00    +0.000 NA
ENDBRANCH   1  16
TORSDOF 1
ENDMDL
MODEL 3
REMARK VINA RESULT:      -7.5      2.547      7.209
REMARK  Name = 
REMARK  2 active torsions:
REMARK  status: ('A' for Active; 'I' for Inactive)
REMARK    1  A    between atoms: C_1  and  C_2
REMARK    2  A    between atoms: C_4  and  C_5
REMARK                            x       y       z     vdW  Elec       q    Type
REMARK                         _______ _______ _______ _____ _____    ______ ____
ROOT
ATOM      1  C   UNL     1       3.059   7.275  17.826  0.00  0.00    +0.000 C 
ATOM      2  O   UNL     1       3.154   7.694  16.675  0.00  0.00    +0.000 OA
ATOM      3  N   UNL     1       2.198   7.868  18.768  0.00  0.00    +0.000 N 
ATOM      4  C   UNL     1       1.912   7.332  20.112  0.00  0.00    +0.000 C 
ATOM      5  C   UNL     1       0.633   7.857  20.760  0.00  0.00    +0.000 C 
ATOM      6  C   UNL     1       0.678   9.359  20.739  0.00  0.00    +0.000 A 
ATOM      7  C   UNL     1       0.304  10.126  21.846  0.00  0.00    +0.000 A 
ATOM      8  C   UNL     1       0.393  11.516  21.788  0.00  0.00    +0.000 A 
ATOM      9  C   UNL     1       0.835  12.139  20.621  0.00  0.00    +0.000 A 
ATOM     10  C   UNL     1       1.200  11.376  19.509  0.00  0.00    +0.000 A 
ATOM     11  C   UNL     1       1.142   9.980  19.566  0.00  0.00    +0.000 A 
ATOM     12  C   UNL     1       1.537   9.123  18.382  0.00  0.00    +0.000 C 
ENDROOT
BRANCH   1  16
ATOM     13  C   UNL     1       7.475   5.708  19.431  0.00  0.00    +0.000 C 
ATOM     14  C   UNL     1       6.074   5.401  18.998  0.00  0.00    +0.000 A 
ATOM     15  C   UNL     1       5.280   6.381  18.443  0.00  0.00    +0.000 A 
ATOM     16  C   UNL     1       3.923   6.124  18.242  0.00  0.00    +0.000 A 
ATOM     17  C   UNL     1       3.431   4.801  18.400  0.00  0.00    +0.000 A 
ATOM     18  C   UNL     1       2.116   4.357  18.097  0.00  0.00    +0.000 A 
ATOM     19  C   UNL     1       1.745   3.019  18.253  0.00  0.00    +0.000 A 
ATOM     20  C   UNL     1       2.670   2.104  18.736  0.00  0.00    +0.000 A 
ATOM     21  C   UNL     1       3.955   2.530  19.055  0.00  0.00    +0.000 A 
ATOM     22  C   UNL     1       4.352   3.851  18.893  0.00  0.00    +0.000 A 
ATOM     23  N   UNL     1       5.619   4.154  19.224  0.00  0.00    +0.000 NA
ENDBRANCH   1  16
TORSDOF 1
ENDMDL
MODEL 4
REMARK VINA RESULT:      -7.1      2.177      7.226
REMARK  Name = 
REMARK  2 active torsions:
REMARK  status: ('A' for Active; 'I' for Inactive)
REMARK    1  A    between atoms: C_1  and  C_2
REMARK    2  A    between atoms: C_4  and  C_5
REMARK                            x       y       z     vdW  Elec       q    Type
REMARK                         _______ _______ _______ _____ _____    ______ ____
ROOT
ATOM      1  C   UNL     1       2.160   7.085  19.945  0.00  0.00    +0.000 C 
ATOM      2  O   UNL     1       2.084   6.723  21.117  0.00  0.00    +0.000 OA
ATOM      3  N   UNL     1       1.783   8.378  19.538  0.00  0.00    +0.000 N 
ATOM      4  C   UNL     1       1.992   8.938  18.190  0.00  0.00    +0.000 C 
ATOM      5  C   UNL     1       1.943  10.462  18.106  0.00  0.00    +0.000 C 
ATOM      6  C   UNL     1       0.654  10.925  18.726  0.00  0.00    +0.000 A 
ATOM      7  C   UNL     1      -0.137  11.916  18.136  0.00  0.00    +0.000 A 
ATOM      8  C   UNL     1      -1.339  12.289  18.734  0.00  0.00    +0.000 A 
ATOM      9  C   UNL     1      -1.742  11.689  19.928  0.00  0.00    +0.000 A 
ATOM     10  C   UNL     1      -0.950  10.705  20.524  0.00  0.00    +0.000 A 
ATOM     11  C   UNL     1       0.245  10.303  19.919  0.00  0.00    +0.000 A 
ATOM     12  C   UNL     1       1.124   9.234  20.535  0.00  0.00    +0.000 C 
ENDROOT
BRANCH   1  16
ATOM     13  C   UNL     1       5.254   6.069  16.214  0.00  0.00    +0.000 C 
ATOM     14  C   UNL     1       4.128   5.650  17.109  0.00  0.00    +0.000 A 
ATOM     15  C   UNL     1       3.531   6.558  17.957  0.00  0.00    +0.000 A 
ATOM     16  C   UNL     1       2.632   6.100  18.921  0.00  0.00    +0.000 A 
ATOM     17  C   UNL     1       2.179   4.754  18.871  0.00  0.00    +0.000 A 
ATOM     18  C   UNL     1       1.168   4.182  19.688  0.00  0.00    +0.000 A 
ATOM     19  C   UNL     1       0.770   2.852  19.529  0.00  0.00    +0.000 A 
ATOM     20  C   UNL     1       1.388   2.061  18.572  0.00  0.00    +0.000 A 
ATOM     21  C   UNL     1       2.394   2.604  17.778  0.00  0.00    +0.000 A 
ATOM     22  C   UNL     1       2.795   3.928  17.905  0.00  0.00    +0.000 A 
ATOM     23  N   UNL     1       3.770   4.353  17.084  0.00  0.00    +0.000 NA
ENDBRANCH   1  16
TORSDOF 1
ENDMDL
MODEL 5
REMARK VINA RESULT:      -7.1      0.766      2.744
REMARK  Name = 
REMARK  2 active torsions:
REMARK  status: ('A' for Active; 'I' for Inactive)
REMARK    1  A    between atoms: C_1  and  C_2
REMARK    2  A    between atoms: C_4  and  C_5
REMARK                            x       y       z     vdW  Elec       q    Type
REMARK                         _______ _______ _______ _____ _____    ______ ____
ROOT
ATOM      1  C   UNL     1       1.406   9.614  18.226  0.00  0.00    +0.000 C 
ATOM      2  O   UNL     1       2.125   9.924  17.279  0.00  0.00    +0.000 OA
ATOM      3  N   UNL     1       1.648   8.466  19.002  0.00  0.00    +0.000 N 
ATOM      4  C   UNL     1       0.931   8.114  20.242  0.00  0.00    +0.000 C 
ATOM      5  C   UNL     1       1.650   7.113  21.144  0.00  0.00    +0.000 C 
ATOM      6  C   UNL     1       2.001   5.906  20.321  0.00  0.00    +0.000 A 
ATOM      7  C   UNL     1       1.815   4.605  20.799  0.00  0.00    +0.000 A 
ATOM      8  C   UNL     1       2.128   3.517  19.986  0.00  0.00    +0.000 A 
ATOM      9  C   UNL     1       2.642   3.727  18.706  0.00  0.00    +0.000 A 
ATOM     10  C   UNL     1       2.837   5.025  18.229  0.00  0.00    +0.000 A 
ATOM     11  C   UNL     1       2.502   6.124  19.026  0.00  0.00    +0.000 A 
ATOM     12  C   UNL     1       2.694   7.544  18.537  0.00  0.00    +0.000 C 
ENDROOT
BRANCH   1  16
ATOM     13  C   UNL     1      -3.469  10.338  17.736  0.00  0.00    +0.000 C 
ATOM     14  C   UNL     1      -2.140  10.796  18.255  0.00  0.00    +0.000 A 
ATOM     15  C   UNL     1      -0.980  10.157  17.875  0.00  0.00    +0.000 A 
ATOM     16  C   UNL     1       0.213  10.469  18.528  0.00  0.00    +0.000 A 
ATOM     17  C   UNL     1       0.259  11.583  19.407  0.00  0.00    +0.000 A 
ATOM     18  C   UNL     1       1.422  12.107  20.032  0.00  0.00    +0.000 A 
ATOM     19  C   UNL     1       1.361  13.238  20.852  0.00  0.00    +0.000 A 
ATOM     20  C   UNL     1       0.138  13.850  21.084  0.00  0.00    +0.000 A 
ATOM     21  C   UNL     1      -1.011  13.335  20.494  0.00  0.00    +0.000 A 
ATOM     22  C   UNL     1      -0.974  12.223  19.662  0.00  0.00    +0.000 A 
ATOM     23  N   UNL     1      -2.141  11.812  19.138  0.00  0.00    +0.000 NA
ENDBRANCH   1  16
TORSDOF 1
ENDMDL
MODEL 6
REMARK VINA RESULT:      -7.1      4.323      7.084
REMARK  Name = 
REMARK  2 active torsions:
REMARK  status: ('A' for Active; 'I' for Inactive)
REMARK    1  A    between atoms: C_1  and  C_2
REMARK    2  A    between atoms: C_4  and  C_5
REMARK                            x       y       z     vdW  Elec       q    Type
REMARK                         _______ _______ _______ _____ _____    ______ ____
ROOT
ATOM      1  C   UNL     1       5.686   5.307  18.373  0.00  0.00    +0.000 C 
ATOM      2  O   UNL     1       6.658   5.747  18.981  0.00  0.00    +0.000 OA
ATOM      3  N   UNL     1       5.809   4.696  17.111  0.00  0.00    +0.000 N 
ATOM      4  C   UNL     1       4.720   4.007  16.392  0.00  0.00    +0.000 C 
ATOM      5  C   UNL     1       5.175   3.041  15.301  0.00  0.00    +0.000 C 
ATOM      6  C   UNL     1       6.098   3.780  14.373  0.00  0.00    +0.000 A 
ATOM      7  C   UNL     1       6.008   3.653  12.983  0.00  0.00    +0.000 A 
ATOM      8  C   UNL     1       6.867   4.384  12.164  0.00  0.00    +0.000 A 
ATOM      9  C   UNL     1       7.825   5.225  12.730  0.00  0.00    +0.000 A 
ATOM     10  C   UNL     1       7.924   5.347  14.118  0.00  0.00    +0.000 A 
ATOM     11  C   UNL     1       7.049   4.640  14.950  0.00  0.00    +0.000 A 
ATOM     12  C   UNL     1       7.124   4.755  16.458  0.00  0.00    +0.000 C 
ENDROOT
BRANCH   1  16
ATOM     13  C   UNL     1       2.297   3.636  21.575  0.00  0.00    +0.000 C 
ATOM     14  C   UNL     1       2.706   4.623  20.524  0.00  0.00    +0.000 A 
ATOM     15  C   UNL     1       3.865   4.438  19.801  0.00  0.00    +0.000 A 
ATOM     16  C   UNL     1       4.327   5.469  18.982  0.00  0.00    +0.000 A 
ATOM     17  C   UNL     1       3.493   6.591  18.732  0.00  0.00    +0.000 A 
ATOM     18  C   UNL     1       3.761   7.645  17.817  0.00  0.00    +0.000 A 
ATOM     19  C   UNL     1       2.849   8.685  17.618  0.00  0.00    +0.000 A 
ATOM     20  C   UNL     1       1.667   8.709  18.345  0.00  0.00    +0.000 A 
ATOM     21  C   UNL     1       1.402   7.694  19.258  0.00  0.00    +0.000 A 
ATOM     22  C   UNL     1       2.284   6.640  19.461  0.00  0.00    +0.000 A 
ATOM     23  N   UNL     1       1.927   5.708  20.361  0.00  0.00    +0.000 NA
ENDBRANCH   1  16
TORSDOF 1
ENDMDL
MODEL 7
REMARK VINA RESULT:      -7.0      1.186      1.472
REMARK  Name = 
REMARK  2 active torsions:
REMARK  status: ('A' for Active; 'I' for Inactive)
REMARK    1  A    between atoms: C_1  and  C_2
REMARK    2  A    between atoms: C_4  and  C_5
REMARK                            x       y       z     vdW  Elec       q    Type
REMARK                         _______ _______ _______ _____ _____    ______ ____
ROOT
ATOM      1  C   UNL     1       0.706  10.793  18.967  0.00  0.00    +0.000 C 
ATOM      2  O   UNL     1       1.386  11.354  18.111  0.00  0.00    +0.000 OA
ATOM      3  N   UNL     1       1.081   9.556  19.524  0.00  0.00    +0.000 N 
ATOM      4  C   UNL     1       0.408   8.898  20.660  0.00  0.00    +0.000 C 
ATOM      5  C   UNL     1       1.239   7.838  21.379  0.00  0.00    +0.000 C 
ATOM      6  C   UNL     1       1.732   6.853  20.356  0.00  0.00    +0.000 A 
ATOM      7  C   UNL     1       1.700   5.474  20.582  0.00  0.00    +0.000 A 
ATOM      8  C   UNL     1       2.141   4.600  19.589  0.00  0.00    +0.000 A 
ATOM      9  C   UNL     1       2.629   5.102  18.383  0.00  0.00    +0.000 A 
ATOM     10  C   UNL     1       2.670   6.480  18.158  0.00  0.00    +0.000 A 
ATOM     11  C   UNL     1       2.205   7.366  19.135  0.00  0.00    +0.000 A 
ATOM     12  C   UNL     1       2.230   8.864  18.922  0.00  0.00    +0.000 C 
ENDROOT
BRANCH   1  16
ATOM     13  C   UNL     1      -1.579  14.097  21.863  0.00  0.00    +0.000 C 
ATOM     14  C   UNL     1      -1.652  13.024  20.820  0.00  0.00    +0.000 A 
ATOM     15  C   UNL     1      -0.538  12.276  20.503  0.00  0.00    +0.000 A 
ATOM     16  C   UNL     1      -0.580  11.432  19.393  0.00  0.00    +0.000 A 
ATOM     17  C   UNL     1      -1.820  11.186  18.747  0.00  0.00    +0.000 A 
ATOM     18  C   UNL     1      -2.048  10.251  17.702  0.00  0.00    +0.000 A 
ATOM     19  C   UNL     1      -3.322  10.059  17.161  0.00  0.00    +0.000 A 
ATOM     20  C   UNL     1      -4.387  10.813  17.633  0.00  0.00    +0.000 A 
ATOM     21  C   UNL     1      -4.174  11.747  18.643  0.00  0.00    +0.000 A 
ATOM     22  C   UNL     1      -2.920  11.943  19.208  0.00  0.00    +0.000 A 
ATOM     23  N   UNL     1      -2.826  12.864  20.182  0.00  0.00    +0.000 NA
ENDBRANCH   1  16
TORSDOF 1
ENDMDL
MODEL 8
REMARK VINA RESULT:      -7.0      1.909      2.773
REMARK  Name = 
REMARK  2 active torsions:
REMARK  status: ('A' for Active; 'I' for Inactive)
REMARK    1  A    between atoms: C_1  and  C_2
REMARK    2  A    between atoms: C_4  and  C_5
REMARK                            x       y       z     vdW  Elec       q    Type
REMARK                         _______ _______ _______ _____ _____    ______ ____
ROOT
ATOM      1  C   UNL     1      -0.337  11.676  19.161  0.00  0.00    +0.000 C 
ATOM      2  O   UNL     1       0.188  12.454  18.369  0.00  0.00    +0.000 OA
ATOM      3  N   UNL     1       0.317  10.513  19.609  0.00  0.00    +0.000 N 
ATOM      4  C   UNL     1      -0.178   9.617  20.671  0.00  0.00    +0.000 C 
ATOM      5  C   UNL     1       0.880   8.715  21.303  0.00  0.00    +0.000 C 
ATOM      6  C   UNL     1       1.579   7.968  20.201  0.00  0.00    +0.000 A 
ATOM      7  C   UNL     1       1.867   6.603  20.300  0.00  0.00    +0.000 A 
ATOM      8  C   UNL     1       2.489   5.949  19.238  0.00  0.00    +0.000 A 
ATOM      9  C   UNL     1       2.839   6.657  18.089  0.00  0.00    +0.000 A 
ATOM     10  C   UNL     1       2.560   8.022  17.991  0.00  0.00    +0.000 A 
ATOM     11  C   UNL     1       1.912   8.684  19.038  0.00  0.00    +0.000 A 
ATOM     12  C   UNL     1       1.589  10.162  18.961  0.00  0.00    +0.000 C 
ENDROOT
BRANCH   1  16
ATOM     13  C   UNL     1      -3.292  13.502  22.691  0.00  0.00    +0.000 C 
ATOM     14  C   UNL     1      -3.130  12.833  21.360  0.00  0.00    +0.000 A 
ATOM     15  C   UNL     1      -1.893  12.388  20.944  0.00  0.00    +0.000 A 
ATOM     16  C   UNL     1      -1.732  11.960  19.626  0.00  0.00    +0.000 A 
ATOM     17  C   UNL     1      -2.877  11.779  18.805  0.00  0.00    +0.000 A 
ATOM     18  C   UNL     1      -2.888  11.220  17.499  0.00  0.00    +0.000 A 
ATOM     19  C   UNL     1      -4.081  11.049  16.791  0.00  0.00    +0.000 A 
ATOM     20  C   UNL     1      -5.280  11.456  17.359  0.00  0.00    +0.000 A 
ATOM     21  C   UNL     1      -5.280  12.022  18.630  0.00  0.00    +0.000 A 
ATOM     22  C   UNL     1      -4.110  12.186  19.360  0.00  0.00    +0.000 A 
ATOM     23  N   UNL     1      -4.223  12.738  20.580  0.00  0.00    +0.000 NA
ENDBRANCH   1  16
TORSDOF 1
ENDMDL
MODEL 9
REMARK VINA RESULT:      -7.0      1.698      3.203
REMARK  Name = 
REMARK  2 active torsions:
REMARK  status: ('A' for Active; 'I' for Inactive)
REMARK    1  A    between atoms: C_1  and  C_2
REMARK    2  A    between atoms: C_4  and  C_5
REMARK                            x       y       z     vdW  Elec       q    Type
REMARK                         _______ _______ _______ _____ _____    ______ ____
ROOT
ATOM      1  C   UNL     1       2.237   8.171  18.641  0.00  0.00    +0.000 C 
ATOM      2  O   UNL     1       3.092   8.638  17.891  0.00  0.00    +0.000 OA
ATOM      3  N   UNL     1       2.297   6.844  19.105  0.00  0.00    +0.000 N 
ATOM      4  C   UNL     1       1.404   6.260  20.124  0.00  0.00    +0.000 C 
ATOM      5  C   UNL     1       1.930   4.995  20.798  0.00  0.00    +0.000 C 
ATOM      6  C   UNL     1       2.298   4.009  19.725  0.00  0.00    +0.000 A 
ATOM      7  C   UNL     1       1.962   2.655  19.817  0.00  0.00    +0.000 A 
ATOM      8  C   UNL     1       2.298   1.786  18.781  0.00  0.00    +0.000 A 
ATOM      9  C   UNL     1       2.985   2.262  17.665  0.00  0.00    +0.000 A 
ATOM     10  C   UNL     1       3.331   3.612  17.573  0.00  0.00    +0.000 A 
ATOM     11  C   UNL     1       2.974   4.500  18.594  0.00  0.00    +0.000 A 
ATOM     12  C   UNL     1       3.327   5.971  18.523  0.00  0.00    +0.000 C 
ENDROOT
BRANCH   1  16
ATOM     13  C   UNL     1      -1.788  10.686  17.227  0.00  0.00    +0.000 C 
ATOM     14  C   UNL     1      -0.848  10.255  18.311  0.00  0.00    +0.000 A 
ATOM     15  C   UNL     1       0.328   9.605  18.003  0.00  0.00    +0.000 A 
ATOM     16  C   UNL     1       1.079   9.035  19.032  0.00  0.00    +0.000 A 
ATOM     17  C   UNL     1       0.745   9.322  20.383  0.00  0.00    +0.000 A 
ATOM     18  C   UNL     1       1.492   8.935  21.528  0.00  0.00    +0.000 A 
ATOM     19  C   UNL     1       1.094   9.305  22.816  0.00  0.00    +0.000 A 
ATOM     20  C   UNL     1      -0.068  10.044  22.988  0.00  0.00    +0.000 A 
ATOM     21  C   UNL     1      -0.819  10.412  21.876  0.00  0.00    +0.000 A 
ATOM     22  C   UNL     1      -0.434  10.071  20.585  0.00  0.00    +0.000 A 
ATOM     23  N   UNL     1      -1.228  10.483  19.582  0.00  0.00    +0.000 NA
ENDBRANCH   1  16
TORSDOF 1
ENDMDL
