MODEL 1
REMARK VINA RESULT:      -8.4      0.000      0.000
REMARK  Name = 
REMARK  8 active torsions:
REMARK  status: ('A' for Active; 'I' for Inactive)
REMARK    1  A    between atoms: C_1  and  C_2
REMARK    2  A    between atoms: C_6  and  O_7
REMARK    3  A    between atoms: O_7  and  C_8
REMARK    4  A    between atoms: C_11  and  N_12
REMARK    5  A    between atoms: N_15  and  C_16
REMARK    6  A    between atoms: C_17  and  C_18
REMARK    7  A    between atoms: C_21  and  C_22
REMARK    8  A    between atoms: C_27  and  C_28
REMARK                            x       y       z     vdW  Elec       q    Type
REMARK                         _______ _______ _______ _____ _____    ______ ____
ROOT
ATOM      1  C   UNL     1       2.296   7.601  19.558  0.00  0.00    +0.000 A 
ATOM      2  C   UNL     1       1.645   8.086  20.677  0.00  0.00    +0.000 A 
ATOM      3  C   UNL     1       0.770   9.163  20.514  0.00  0.00    +0.000 A 
ATOM      4  C   UNL     1       0.582   9.735  19.256  0.00  0.00    +0.000 A 
ATOM      5  C   UNL     1       1.331   9.201  18.211  0.00  0.00    +0.000 A 
ATOM      6  N   UNL     1       2.187   8.158  18.331  0.00  0.00    +0.000 NA
ENDROOT
BRANCH   4   7
ATOM      7  N   UNL     1      -0.333  10.787  18.988  0.00  0.00    +0.000 N 
ATOM      8  C   UNL     1      -1.643  10.621  18.585  0.00  0.00    +0.000 C 
ATOM      9  O   UNL     1      -2.222   9.543  18.510  0.00  0.00    +0.000 OA
ATOM     10  N   UNL     1      -2.240  11.825  18.235  0.00  0.00    +0.000 N 
ATOM     11  H   UNL     1      -0.041  11.726  19.221  0.00  0.00    +0.000 HD
ATOM     12  H   UNL     1      -1.639  12.477  17.753  0.00  0.00    +0.000 HD
BRANCH  10  13
ATOM     13  C   UNL     1      -3.581  11.814  17.844  0.00  0.00    +0.000 A 
ATOM     14  C   UNL     1      -4.753  12.064  18.622  0.00  0.00    +0.000 A 
ATOM     15  C   UNL     1      -4.882  12.503  20.034  0.00  0.00    +0.000 C 
ATOM     16  N   UNL     1      -5.863  11.893  17.895  0.00  0.00    +0.000 NA
ATOM     17  O   UNL     1      -5.437  11.524  16.638  0.00  0.00    +0.000 OA
ATOM     18  C   UNL     1      -4.075  11.503  16.594  0.00  0.00    +0.000 A 
BRANCH  18  19
ATOM     19  C   UNL     1      -3.290  11.108  15.354  0.00  0.00    +0.000 C 
ATOM     20  C   UNL     1      -3.971  10.180  14.366  0.00  0.00    +0.000 C 
ATOM     21  C   UNL     1      -2.865   9.658  15.217  0.00  0.00    +0.000 C 
ENDBRANCH  18  19
ENDBRANCH  10  13
ENDBRANCH   4   7
BRANCH   1  22
ATOM     22  O   UNL     1       3.098   6.483  19.758  0.00  0.00    +0.000 OA
BRANCH  22  28
ATOM     23  C   UNL     1       2.550   2.143  17.477  0.00  0.00    +0.000 C 
ATOM     24  C   UNL     1       2.259   3.093  18.607  0.00  0.00    +0.000 A 
ATOM     25  C   UNL     1       1.372   2.689  19.618  0.00  0.00    +0.000 A 
ATOM     26  C   UNL     1       1.082   3.529  20.689  0.00  0.00    +0.000 A 
ATOM     27  C   UNL     1       1.663   4.790  20.753  0.00  0.00    +0.000 A 
ATOM     28  C   UNL     1       2.510   5.236  19.729  0.00  0.00    +0.000 A 
ATOM     29  C   UNL     1       2.854   4.374  18.669  0.00  0.00    +0.000 A 
ATOM     30  C   UNL     1       3.832   4.804  17.606  0.00  0.00    +0.000 C 
ENDBRANCH  22  28
ENDBRANCH   1  22
TORSDOF 5
ENDMDL
MODEL 2
REMARK VINA RESULT:      -8.1      2.132      9.101
REMARK  Name = 
REMARK  8 active torsions:
REMARK  status: ('A' for Active; 'I' for Inactive)
REMARK    1  A    between atoms: C_1  and  C_2
REMARK    2  A    between atoms: C_6  and  O_7
REMARK    3  A    between atoms: O_7  and  C_8
REMARK    4  A    between atoms: C_11  and  N_12
REMARK    5  A    between atoms: N_15  and  C_16
REMARK    6  A    between atoms: C_17  and  C_18
REMARK    7  A    between atoms: C_21  and  C_22
REMARK    8  A    between atoms: C_27  and  C_28
REMARK                            x       y       z     vdW  Elec       q    Type
REMARK                         _______ _______ _______ _____ _____    ______ ____
ROOT
ATOM      1  C   UNL     1      -0.495  11.129  19.483  0.00  0.00    +0.000 A 
ATOM      2  C   UNL     1       0.563  10.899  18.623  0.00  0.00    +0.000 A 
ATOM      3  C   UNL     1       1.413   9.825  18.898  0.00  0.00    +0.000 A 
ATOM      4  C   UNL     1       1.201   9.027  20.022  0.00  0.00    +0.000 A 
ATOM      5  C   UNL     1       0.138   9.383  20.847  0.00  0.00    +0.000 A 
ATOM      6  N   UNL     1      -0.707  10.415  20.612  0.00  0.00    +0.000 NA
ENDROOT
BRANCH   4   7
ATOM      7  N   UNL     1       1.974   7.879  20.342  0.00  0.00    +0.000 N 
ATOM      8  C   UNL     1       2.458   6.963  19.430  0.00  0.00    +0.000 C 
ATOM      9  O   UNL     1       2.378   7.078  18.212  0.00  0.00    +0.000 OA
ATOM     10  N   UNL     1       3.030   5.860  20.049  0.00  0.00    +0.000 N 
ATOM     11  H   UNL     1       2.293   7.787  21.297  0.00  0.00    +0.000 HD
ATOM     12  H   UNL     1       2.559   5.545  20.884  0.00  0.00    +0.000 HD
BRANCH  10  13
ATOM     13  C   UNL     1       3.599   4.867  19.246  0.00  0.00    +0.000 A 
ATOM     14  C   UNL     1       4.963   4.684  18.864  0.00  0.00    +0.000 A 
ATOM     15  C   UNL     1       6.177   5.427  19.283  0.00  0.00    +0.000 C 
ATOM     16  N   UNL     1       5.097   3.647  18.029  0.00  0.00    +0.000 NA
ATOM     17  O   UNL     1       3.828   3.142  17.849  0.00  0.00    +0.000 OA
ATOM     18  C   UNL     1       2.934   3.849  18.595  0.00  0.00    +0.000 A 
BRANCH  18  19
ATOM     19  C   UNL     1       1.441   3.561  18.598  0.00  0.00    +0.000 C 
ATOM     20  C   UNL     1       0.786   3.300  19.940  0.00  0.00    +0.000 C 
ATOM     21  C   UNL     1       0.990   2.168  18.994  0.00  0.00    +0.000 C 
ENDBRANCH  18  19
ENDBRANCH  10  13
ENDBRANCH   4   7
BRANCH   1  22
ATOM     22  O   UNL     1      -1.355  12.161  19.128  0.00  0.00    +0.000 OA
BRANCH  22  28
ATOM     23  C   UNL     1      -6.266  12.091  19.592  0.00  0.00    +0.000 C 
ATOM     24  C   UNL     1      -5.004  11.825  18.817  0.00  0.00    +0.000 A 
ATOM     25  C   UNL     1      -5.103  11.236  17.547  0.00  0.00    +0.000 A 
ATOM     26  C   UNL     1      -3.963  10.982  16.789  0.00  0.00    +0.000 A 
ATOM     27  C   UNL     1      -2.710  11.300  17.300  0.00  0.00    +0.000 A 
ATOM     28  C   UNL     1      -2.583  11.840  18.587  0.00  0.00    +0.000 A 
ATOM     29  C   UNL     1      -3.731  12.152  19.341  0.00  0.00    +0.000 A 
ATOM     30  C   UNL     1      -3.618  12.814  20.690  0.00  0.00    +0.000 C 
ENDBRANCH  22  28
ENDBRANCH   1  22
TORSDOF 5
ENDMDL
MODEL 3
REMARK VINA RESULT:      -8.1      2.152      9.169
REMARK  Name = 
REMARK  8 active torsions:
REMARK  status: ('A' for Active; 'I' for Inactive)
REMARK    1  A    between atoms: C_1  and  C_2
REMARK    2  A    between atoms: C_6  and  O_7
REMARK    3  A    between atoms: O_7  and  C_8
REMARK    4  A    between atoms: C_11  and  N_12
REMARK    5  A    between atoms: N_15  and  C_16
REMARK    6  A    between atoms: C_17  and  C_18
REMARK    7  A    between atoms: C_21  and  C_22
REMARK    8  A    between atoms: C_27  and  C_28
REMARK                            x       y       z     vdW  Elec       q    Type
REMARK                         _______ _______ _______ _____ _____    ______ ____
ROOT
ATOM      1  C   UNL     1      -0.085  10.795  19.110  0.00  0.00    +0.000 A 
ATOM      2  C   UNL     1       0.940  10.377  18.281  0.00  0.00    +0.000 A 
ATOM      3  C   UNL     1       1.717   9.291  18.692  0.00  0.00    +0.000 A 
ATOM      4  C   UNL     1       1.468   8.667  19.914  0.00  0.00    +0.000 A 
ATOM      5  C   UNL     1       0.447   9.207  20.691  0.00  0.00    +0.000 A 
ATOM      6  N   UNL     1      -0.327  10.256  20.326  0.00  0.00    +0.000 NA
ENDROOT
BRANCH   4   7
ATOM      7  N   UNL     1       2.164   7.520  20.380  0.00  0.00    +0.000 N 
ATOM      8  C   UNL     1       2.386   6.371  19.649  0.00  0.00    +0.000 C 
ATOM      9  O   UNL     1       2.108   6.229  18.464  0.00  0.00    +0.000 OA
ATOM     10  N   UNL     1       2.941   5.359  20.421  0.00  0.00    +0.000 N 
ATOM     11  H   UNL     1       2.632   7.594  21.273  0.00  0.00    +0.000 HD
ATOM     12  H   UNL     1       2.593   5.300  21.366  0.00  0.00    +0.000 HD
BRANCH  10  13
ATOM     13  C   UNL     1       3.258   4.147  19.801  0.00  0.00    +0.000 A 
ATOM     14  C   UNL     1       2.468   2.965  19.664  0.00  0.00    +0.000 A 
ATOM     15  C   UNL     1       1.056   2.716  20.047  0.00  0.00    +0.000 C 
ATOM     16  N   UNL     1       3.155   1.990  19.058  0.00  0.00    +0.000 NA
ATOM     17  O   UNL     1       4.401   2.514  18.797  0.00  0.00    +0.000 OA
ATOM     18  C   UNL     1       4.460   3.811  19.212  0.00  0.00    +0.000 A 
BRANCH  18  19
ATOM     19  C   UNL     1       5.710   4.666  19.092  0.00  0.00    +0.000 C 
ATOM     20  C   UNL     1       5.661   5.837  18.129  0.00  0.00    +0.000 C 
ATOM     21  C   UNL     1       6.466   4.634  17.777  0.00  0.00    +0.000 C 
ENDBRANCH  18  19
ENDBRANCH  10  13
ENDBRANCH   4   7
BRANCH   1  22
ATOM     22  O   UNL     1      -0.876  11.830  18.625  0.00  0.00    +0.000 OA
BRANCH  22  28
ATOM     23  C   UNL     1      -5.760  12.064  19.283  0.00  0.00    +0.000 C 
ATOM     24  C   UNL     1      -4.547  11.667  18.486  0.00  0.00    +0.000 A 
ATOM     25  C   UNL     1      -4.730  10.980  17.275  0.00  0.00    +0.000 A 
ATOM     26  C   UNL     1      -3.638  10.604  16.498  0.00  0.00    +0.000 A 
ATOM     27  C   UNL     1      -2.350  10.894  16.932  0.00  0.00    +0.000 A 
ATOM     28  C   UNL     1      -2.140  11.532  18.162  0.00  0.00    +0.000 A 
ATOM     29  C   UNL     1      -3.238  11.967  18.931  0.00  0.00    +0.000 A 
ATOM     30  C   UNL     1      -3.033  12.732  20.213  0.00  0.00    +0.000 C 
ENDBRANCH  22  28
ENDBRANCH   1  22
TORSDOF 5
ENDMDL
MODEL 4
REMARK VINA RESULT:      -8.0      2.241      9.305
REMARK  Name = 
REMARK  8 active torsions:
REMARK  status: ('A' for Active; 'I' for Inactive)
REMARK    1  A    between atoms: C_1  and  C_2
REMARK    2  A    between atoms: C_6  and  O_7
REMARK    3  A    between atoms: O_7  and  C_8
REMARK    4  A    between atoms: C_11  and  N_12
REMARK    5  A    between atoms: N_15  and  C_16
REMARK    6  A    between atoms: C_17  and  C_18
REMARK    7  A    between atoms: C_21  and  C_22
REMARK    8  A    between atoms: C_27  and  C_28
REMARK                            x       y       z     vdW  Elec       q    Type
REMARK                         _______ _______ _______ _____ _____    ______ ____
ROOT
ATOM      1  C   UNL     1      -0.280  10.815  19.419  0.00  0.00    +0.000 A 
ATOM      2  C   UNL     1      -0.574  10.155  20.598  0.00  0.00    +0.000 A 
ATOM      3  C   UNL     1       0.224   9.067  20.960  0.00  0.00    +0.000 A 
ATOM      4  C   UNL     1       1.272   8.656  20.138  0.00  0.00    +0.000 A 
ATOM      5  C   UNL     1       1.443   9.360  18.949  0.00  0.00    +0.000 A 
ATOM      6  N   UNL     1       0.691  10.419  18.566  0.00  0.00    +0.000 NA
ENDROOT
BRANCH   4   7
ATOM      7  N   UNL     1       2.172   7.605  20.459  0.00  0.00    +0.000 N 
ATOM      8  C   UNL     1       2.406   6.490  19.680  0.00  0.00    +0.000 C 
ATOM      9  O   UNL     1       1.950   6.312  18.556  0.00  0.00    +0.000 OA
ATOM     10  N   UNL     1       3.203   5.556  20.329  0.00  0.00    +0.000 N 
ATOM     11  H   UNL     1       2.773   7.739  21.261  0.00  0.00    +0.000 HD
ATOM     12  H   UNL     1       3.030   5.458  21.318  0.00  0.00    +0.000 HD
BRANCH  10  13
ATOM     13  C   UNL     1       3.556   4.391  19.642  0.00  0.00    +0.000 A 
ATOM     14  C   UNL     1       2.968   3.091  19.702  0.00  0.00    +0.000 A 
ATOM     15  C   UNL     1       1.759   2.626  20.426  0.00  0.00    +0.000 C 
ATOM     16  N   UNL     1       3.637   2.221  18.937  0.00  0.00    +0.000 NA
ATOM     17  O   UNL     1       4.672   2.934  18.373  0.00  0.00    +0.000 OA
ATOM     18  C   UNL     1       4.612   4.237  18.767  0.00  0.00    +0.000 A 
BRANCH  18  19
ATOM     19  C   UNL     1       5.629   5.282  18.341  0.00  0.00    +0.000 C 
ATOM     20  C   UNL     1       7.010   4.789  17.949  0.00  0.00    +0.000 C 
ATOM     21  C   UNL     1       6.829   5.510  19.240  0.00  0.00    +0.000 C 
ENDBRANCH  18  19
ENDBRANCH  10  13
ENDBRANCH   4   7
BRANCH   1  22
ATOM     22  O   UNL     1      -1.053  11.935  19.139  0.00  0.00    +0.000 OA
BRANCH  22  28
ATOM     23  C   UNL     1      -5.964  12.313  19.428  0.00  0.00    +0.000 C 
ATOM     24  C   UNL     1      -4.703  11.960  18.687  0.00  0.00    +0.000 A 
ATOM     25  C   UNL     1      -4.807  11.433  17.390  0.00  0.00    +0.000 A 
ATOM     26  C   UNL     1      -3.667  11.103  16.662  0.00  0.00    +0.000 A 
ATOM     27  C   UNL     1      -2.411  11.279  17.230  0.00  0.00    +0.000 A 
ATOM     28  C   UNL     1      -2.284  11.754  18.543  0.00  0.00    +0.000 A 
ATOM     29  C   UNL     1      -3.427  12.143  19.269  0.00  0.00    +0.000 A 
ATOM     30  C   UNL     1      -3.304  12.738  20.648  0.00  0.00    +0.000 C 
ENDBRANCH  22  28
ENDBRANCH   1  22
TORSDOF 5
ENDMDL
MODEL 5
REMARK VINA RESULT:      -7.9      2.194      9.158
REMARK  Name = 
REMARK  8 active torsions:
REMARK  status: ('A' for Active; 'I' for Inactive)
REMARK    1  A    between atoms: C_1  and  C_2
REMARK    2  A    between atoms: C_6  and  O_7
REMARK    3  A    between atoms: O_7  and  C_8
REMARK    4  A    between atoms: C_11  and  N_12
REMARK    5  A    between atoms: N_15  and  C_16
REMARK    6  A    between atoms: C_17  and  C_18
REMARK    7  A    between atoms: C_21  and  C_22
REMARK    8  A    between atoms: C_27  and  C_28
REMARK                            x       y       z     vdW  Elec       q    Type
REMARK                         _______ _______ _______ _____ _____    ______ ____
ROOT
ATOM      1  C   UNL     1      -0.465  10.951  19.473  0.00  0.00    +0.000 A 
ATOM      2  C   UNL     1      -0.726  10.240  20.630  0.00  0.00    +0.000 A 
ATOM      3  C   UNL     1       0.115   9.171  20.949  0.00  0.00    +0.000 A 
ATOM      4  C   UNL     1       1.173   8.829  20.107  0.00  0.00    +0.000 A 
ATOM      5  C   UNL     1       1.308   9.580  18.942  0.00  0.00    +0.000 A 
ATOM      6  N   UNL     1       0.514  10.622  18.601  0.00  0.00    +0.000 NA
ENDROOT
BRANCH   4   7
ATOM      7  N   UNL     1       2.113   7.802  20.385  0.00  0.00    +0.000 N 
ATOM      8  C   UNL     1       2.516   6.827  19.495  0.00  0.00    +0.000 C 
ATOM      9  O   UNL     1       2.198   6.783  18.312  0.00  0.00    +0.000 OA
ATOM     10  N   UNL     1       3.311   5.863  20.100  0.00  0.00    +0.000 N 
ATOM     11  H   UNL     1       2.613   7.857  21.262  0.00  0.00    +0.000 HD
ATOM     12  H   UNL     1       3.042   5.613  21.040  0.00  0.00    +0.000 HD
BRANCH  10  13
ATOM     13  C   UNL     1       3.827   4.833  19.308  0.00  0.00    +0.000 A 
ATOM     14  C   UNL     1       4.913   4.860  18.381  0.00  0.00    +0.000 A 
ATOM     15  C   UNL     1       5.867   5.952  18.065  0.00  0.00    +0.000 C 
ATOM     16  N   UNL     1       5.057   3.679  17.768  0.00  0.00    +0.000 NA
ATOM     17  O   UNL     1       4.068   2.868  18.278  0.00  0.00    +0.000 OA
ATOM     18  C   UNL     1       3.348   3.542  19.218  0.00  0.00    +0.000 A 
BRANCH  18  19
ATOM     19  C   UNL     1       2.164   2.934  19.953  0.00  0.00    +0.000 C 
ATOM     20  C   UNL     1       1.170   2.138  19.129  0.00  0.00    +0.000 C 
ATOM     21  C   UNL     1       0.783   3.481  19.645  0.00  0.00    +0.000 C 
ENDBRANCH  18  19
ENDBRANCH  10  13
ENDBRANCH   4   7
BRANCH   1  22
ATOM     22  O   UNL     1      -1.282  12.050  19.237  0.00  0.00    +0.000 OA
BRANCH  22  28
ATOM     23  C   UNL     1      -6.174  12.362  19.802  0.00  0.00    +0.000 C 
ATOM     24  C   UNL     1      -4.952  12.009  18.997  0.00  0.00    +0.000 A 
ATOM     25  C   UNL     1      -5.121  11.447  17.722  0.00  0.00    +0.000 A 
ATOM     26  C   UNL     1      -4.020  11.116  16.937  0.00  0.00    +0.000 A 
ATOM     27  C   UNL     1      -2.737  11.326  17.427  0.00  0.00    +0.000 A 
ATOM     28  C   UNL     1      -2.542  11.836  18.718  0.00  0.00    +0.000 A 
ATOM     29  C   UNL     1      -3.647  12.226  19.500  0.00  0.00    +0.000 A 
ATOM     30  C   UNL     1      -3.455  12.857  20.854  0.00  0.00    +0.000 C 
ENDBRANCH  22  28
ENDBRANCH   1  22
TORSDOF 5
ENDMDL
MODEL 6
REMARK VINA RESULT:      -7.8      0.561      1.634
REMARK  Name = 
REMARK  8 active torsions:
REMARK  status: ('A' for Active; 'I' for Inactive)
REMARK    1  A    between atoms: C_1  and  C_2
REMARK    2  A    between atoms: C_6  and  O_7
REMARK    3  A    between atoms: O_7  and  C_8
REMARK    4  A    between atoms: C_11  and  N_12
REMARK    5  A    between atoms: N_15  and  C_16
REMARK    6  A    between atoms: C_17  and  C_18
REMARK    7  A    between atoms: C_21  and  C_22
REMARK    8  A    between atoms: C_27  and  C_28
REMARK                            x       y       z     vdW  Elec       q    Type
REMARK                         _______ _______ _______ _____ _____    ______ ____
ROOT
ATOM      1  C   UNL     1       2.246   7.524  19.785  0.00  0.00    +0.000 A 
ATOM      2  C   UNL     1       1.499   7.994  20.849  0.00  0.00    +0.000 A 
ATOM      3  C   UNL     1       0.651   9.081  20.628  0.00  0.00    +0.000 A 
ATOM      4  C   UNL     1       0.582   9.679  19.370  0.00  0.00    +0.000 A 
ATOM      5  C   UNL     1       1.419   9.157  18.387  0.00  0.00    +0.000 A 
ATOM      6  N   UNL     1       2.252   8.104  18.564  0.00  0.00    +0.000 NA
ENDROOT
BRANCH   4   7
ATOM      7  N   UNL     1      -0.298  10.743  19.040  0.00  0.00    +0.000 N 
ATOM      8  C   UNL     1      -1.614  10.599  18.650  0.00  0.00    +0.000 C 
ATOM      9  O   UNL     1      -2.231   9.539  18.642  0.00  0.00    +0.000 OA
ATOM     10  N   UNL     1      -2.170  11.799  18.228  0.00  0.00    +0.000 N 
ATOM     11  H   UNL     1       0.028  11.684  19.215  0.00  0.00    +0.000 HD
ATOM     12  H   UNL     1      -1.549  12.400  17.707  0.00  0.00    +0.000 HD
BRANCH  10  13
ATOM     13  C   UNL     1      -3.513  11.811  17.841  0.00  0.00    +0.000 A 
ATOM     14  C   UNL     1      -4.678  12.080  18.623  0.00  0.00    +0.000 A 
ATOM     15  C   UNL     1      -4.796  12.520  20.035  0.00  0.00    +0.000 C 
ATOM     16  N   UNL     1      -5.793  11.928  17.899  0.00  0.00    +0.000 NA
ATOM     17  O   UNL     1      -5.376  11.553  16.640  0.00  0.00    +0.000 OA
ATOM     18  C   UNL     1      -4.015  11.510  16.592  0.00  0.00    +0.000 A 
BRANCH  18  19
ATOM     19  C   UNL     1      -3.240  11.102  15.350  0.00  0.00    +0.000 C 
ATOM     20  C   UNL     1      -3.920  10.145  14.390  0.00  0.00    +0.000 C 
ATOM     21  C   UNL     1      -2.795   9.657  15.235  0.00  0.00    +0.000 C 
ENDBRANCH  18  19
ENDBRANCH  10  13
ENDBRANCH   4   7
BRANCH   1  22
ATOM     22  O   UNL     1       3.018   6.396  20.035  0.00  0.00    +0.000 OA
BRANCH  22  28
ATOM     23  C   UNL     1       2.420   2.108  17.668  0.00  0.00    +0.000 C 
ATOM     24  C   UNL     1       3.044   3.471  17.805  0.00  0.00    +0.000 A 
ATOM     25  C   UNL     1       3.982   3.885  16.846  0.00  0.00    +0.000 A 
ATOM     26  C   UNL     1       4.575   5.141  16.927  0.00  0.00    +0.000 A 
ATOM     27  C   UNL     1       4.250   5.991  17.977  0.00  0.00    +0.000 A 
ATOM     28  C   UNL     1       3.357   5.580  18.976  0.00  0.00    +0.000 A 
ATOM     29  C   UNL     1       2.709   4.333  18.876  0.00  0.00    +0.000 A 
ATOM     30  C   UNL     1       1.679   3.910  19.892  0.00  0.00    +0.000 C 
ENDBRANCH  22  28
ENDBRANCH   1  22
TORSDOF 5
ENDMDL
MODEL 7
REMARK VINA RESULT:      -7.7      2.924      9.182
REMARK  Name = 
REMARK  8 active torsions:
REMARK  status: ('A' for Active; 'I' for Inactive)
REMARK    1  A    between atoms: C_1  and  C_2
REMARK    2  A    between atoms: C_6  and  O_7
REMARK    3  A    between atoms: O_7  and  C_8
REMARK    4  A    between atoms: C_11  and  N_12
REMARK    5  A    between atoms: N_15  and  C_16
REMARK    6  A    between atoms: C_17  and  C_18
REMARK    7  A    between atoms: C_21  and  C_22
REMARK    8  A    between atoms: C_27  and  C_28
REMARK                            x       y       z     vdW  Elec       q    Type
REMARK                         _______ _______ _______ _____ _____    ______ ____
ROOT
ATOM      1  C   UNL     1      -0.227  11.059  21.173  0.00  0.00    +0.000 A 
ATOM      2  C   UNL     1      -0.339  10.245  22.286  0.00  0.00    +0.000 A 
ATOM      3  C   UNL     1       0.350   9.031  22.285  0.00  0.00    +0.000 A 
ATOM      4  C   UNL     1       1.111   8.652  21.179  0.00  0.00    +0.000 A 
ATOM      5  C   UNL     1       1.107   9.523  20.093  0.00  0.00    +0.000 A 
ATOM      6  N   UNL     1       0.453  10.709  20.059  0.00  0.00    +0.000 NA
ENDROOT
BRANCH   4   7
ATOM      7  N   UNL     1       1.893   7.469  21.117  0.00  0.00    +0.000 N 
ATOM      8  C   UNL     1       2.327   6.858  19.958  0.00  0.00    +0.000 C 
ATOM      9  O   UNL     1       2.185   7.315  18.829  0.00  0.00    +0.000 OA
ATOM     10  N   UNL     1       2.923   5.628  20.205  0.00  0.00    +0.000 N 
ATOM     11  H   UNL     1       2.260   7.110  21.989  0.00  0.00    +0.000 HD
ATOM     12  H   UNL     1       2.494   5.082  20.937  0.00  0.00    +0.000 HD
BRANCH  10  13
ATOM     13  C   UNL     1       3.447   4.914  19.124  0.00  0.00    +0.000 A 
ATOM     14  C   UNL     1       4.766   4.938  18.576  0.00  0.00    +0.000 A 
ATOM     15  C   UNL     1       5.981   5.646  19.050  0.00  0.00    +0.000 C 
ATOM     16  N   UNL     1       4.856   4.154  17.495  0.00  0.00    +0.000 NA
ATOM     17  O   UNL     1       3.602   3.612  17.318  0.00  0.00    +0.000 OA
ATOM     18  C   UNL     1       2.764   4.040  18.304  0.00  0.00    +0.000 A 
BRANCH  18  19
ATOM     19  C   UNL     1       1.299   3.644  18.378  0.00  0.00    +0.000 C 
ATOM     20  C   UNL     1       0.744   3.286  19.744  0.00  0.00    +0.000 C 
ATOM     21  C   UNL     1       0.970   2.209  18.741  0.00  0.00    +0.000 C 
ENDBRANCH  18  19
ENDBRANCH  10  13
ENDBRANCH   4   7
BRANCH   1  22
ATOM     22  O   UNL     1      -0.870  12.289  21.252  0.00  0.00    +0.000 OA
BRANCH  22  28
ATOM     23  C   UNL     1      -5.509  13.086  22.729  0.00  0.00    +0.000 C 
ATOM     24  C   UNL     1      -4.493  12.765  21.667  0.00  0.00    +0.000 A 
ATOM     25  C   UNL     1      -4.937  12.522  20.357  0.00  0.00    +0.000 A 
ATOM     26  C   UNL     1      -4.032  12.234  19.340  0.00  0.00    +0.000 A 
ATOM     27  C   UNL     1      -2.673  12.168  19.624  0.00  0.00    +0.000 A 
ATOM     28  C   UNL     1      -2.210  12.354  20.934  0.00  0.00    +0.000 A 
ATOM     29  C   UNL     1      -3.110  12.701  21.961  0.00  0.00    +0.000 A 
ATOM     30  C   UNL     1      -2.621  12.992  23.356  0.00  0.00    +0.000 C 
ENDBRANCH  22  28
ENDBRANCH   1  22
TORSDOF 5
ENDMDL
MODEL 8
REMARK VINA RESULT:      -7.7      2.361      9.289
REMARK  Name = 
REMARK  8 active torsions:
REMARK  status: ('A' for Active; 'I' for Inactive)
REMARK    1  A    between atoms: C_1  and  C_2
REMARK    2  A    between atoms: C_6  and  O_7
REMARK    3  A    between atoms: O_7  and  C_8
REMARK    4  A    between atoms: C_11  and  N_12
REMARK    5  A    between atoms: N_15  and  C_16
REMARK    6  A    between atoms: C_17  and  C_18
REMARK    7  A    between atoms: C_21  and  C_22
REMARK    8  A    between atoms: C_27  and  C_28
REMARK                            x       y       z     vdW  Elec       q    Type
REMARK                         _______ _______ _______ _____ _____    ______ ____
ROOT
ATOM      1  C   UNL     1       0.356  10.377  18.906  0.00  0.00    +0.000 A 
ATOM      2  C   UNL     1       0.274   9.718  20.120  0.00  0.00    +0.000 A 
ATOM      3  C   UNL     1       1.124   8.632  20.337  0.00  0.00    +0.000 A 
ATOM      4  C   UNL     1       2.012   8.220  19.344  0.00  0.00    +0.000 A 
ATOM      5  C   UNL     1       1.971   8.922  18.143  0.00  0.00    +0.000 A 
ATOM      6  N   UNL     1       1.162   9.980  17.896  0.00  0.00    +0.000 NA
ENDROOT
BRANCH   4   7
ATOM      7  N   UNL     1       2.955   7.170  19.503  0.00  0.00    +0.000 N 
ATOM      8  C   UNL     1       2.798   5.880  19.038  0.00  0.00    +0.000 C 
ATOM      9  O   UNL     1       1.873   5.497  18.331  0.00  0.00    +0.000 OA
ATOM     10  N   UNL     1       3.803   5.034  19.490  0.00  0.00    +0.000 N 
ATOM     11  H   UNL     1       3.860   7.413  19.883  0.00  0.00    +0.000 HD
ATOM     12  H   UNL     1       4.108   5.199  20.438  0.00  0.00    +0.000 HD
BRANCH  10  13
ATOM     13  C   UNL     1       3.794   3.703  19.065  0.00  0.00    +0.000 A 
ATOM     14  C   UNL     1       4.135   3.158  17.789  0.00  0.00    +0.000 A 
ATOM     15  C   UNL     1       4.690   3.827  16.586  0.00  0.00    +0.000 C 
ATOM     16  N   UNL     1       3.934   1.836  17.758  0.00  0.00    +0.000 NA
ATOM     17  O   UNL     1       3.455   1.498  19.004  0.00  0.00    +0.000 OA
ATOM     18  C   UNL     1       3.396   2.605  19.798  0.00  0.00    +0.000 A 
BRANCH  18  19
ATOM     19  C   UNL     1       2.882   2.575  21.227  0.00  0.00    +0.000 C 
ATOM     20  C   UNL     1       1.383   2.452  21.425  0.00  0.00    +0.000 C 
ATOM     21  C   UNL     1       2.054   3.752  21.707  0.00  0.00    +0.000 C 
ENDBRANCH  18  19
ENDBRANCH  10  13
ENDBRANCH   4   7
BRANCH   1  22
ATOM     22  O   UNL     1      -0.456  11.495  18.765  0.00  0.00    +0.000 OA
BRANCH  22  28
ATOM     23  C   UNL     1      -5.216  12.499  19.585  0.00  0.00    +0.000 C 
ATOM     24  C   UNL     1      -4.118  11.826  18.807  0.00  0.00    +0.000 A 
ATOM     25  C   UNL     1      -4.465  11.002  17.724  0.00  0.00    +0.000 A 
ATOM     26  C   UNL     1      -3.482  10.368  16.968  0.00  0.00    +0.000 A 
ATOM     27  C   UNL     1      -2.143  10.538  17.298  0.00  0.00    +0.000 A 
ATOM     28  C   UNL     1      -1.775  11.312  18.406  0.00  0.00    +0.000 A 
ATOM     29  C   UNL     1      -2.756  12.002  19.145  0.00  0.00    +0.000 A 
ATOM     30  C   UNL     1      -2.373  12.910  20.285  0.00  0.00    +0.000 C 
ENDBRANCH  22  28
ENDBRANCH   1  22
TORSDOF 5
ENDMDL
MODEL 9
REMARK VINA RESULT:      -7.7      2.377      9.104
REMARK  Name = 
REMARK  8 active torsions:
REMARK  status: ('A' for Active; 'I' for Inactive)
REMARK    1  A    between atoms: C_1  and  C_2
REMARK    2  A    between atoms: C_6  and  O_7
REMARK    3  A    between atoms: O_7  and  C_8
REMARK    4  A    between atoms: C_11  and  N_12
REMARK    5  A    between atoms: N_15  and  C_16
REMARK    6  A    between atoms: C_17  and  C_18
REMARK    7  A    between atoms: C_21  and  C_22
REMARK    8  A    between atoms: C_27  and  C_28
REMARK                            x       y       z     vdW  Elec       q    Type
REMARK                         _______ _______ _______ _____ _____    ______ ____
ROOT
ATOM      1  C   UNL     1       0.085  10.816  19.097  0.00  0.00    +0.000 A 
ATOM      2  C   UNL     1      -0.291  10.304  20.325  0.00  0.00    +0.000 A 
ATOM      3  C   UNL     1       0.380   9.174  20.800  0.00  0.00    +0.000 A 
ATOM      4  C   UNL     1       1.384   8.578  20.038  0.00  0.00    +0.000 A 
ATOM      5  C   UNL     1       1.642   9.146  18.794  0.00  0.00    +0.000 A 
ATOM      6  N   UNL     1       1.014  10.240  18.301  0.00  0.00    +0.000 NA
ENDROOT
BRANCH   4   7
ATOM      7  N   UNL     1       2.160   7.470  20.470  0.00  0.00    +0.000 N 
ATOM      8  C   UNL     1       2.395   6.325  19.735  0.00  0.00    +0.000 C 
ATOM      9  O   UNL     1       2.054   6.158  18.569  0.00  0.00    +0.000 OA
ATOM     10  N   UNL     1       3.041   5.348  20.480  0.00  0.00    +0.000 N 
ATOM     11  H   UNL     1       2.677   7.574  21.333  0.00  0.00    +0.000 HD
ATOM     12  H   UNL     1       2.752   5.282  21.444  0.00  0.00    +0.000 HD
BRANCH  10  13
ATOM     13  C   UNL     1       3.379   4.146  19.851  0.00  0.00    +0.000 A 
ATOM     14  C   UNL     1       2.638   2.929  19.766  0.00  0.00    +0.000 A 
ATOM     15  C   UNL     1       1.262   2.618  20.228  0.00  0.00    +0.000 C 
ATOM     16  N   UNL     1       3.334   1.980  19.128  0.00  0.00    +0.000 NA
ATOM     17  O   UNL     1       4.539   2.559  18.794  0.00  0.00    +0.000 OA
ATOM     18  C   UNL     1       4.560   3.860  19.197  0.00  0.00    +0.000 A 
BRANCH  18  19
ATOM     19  C   UNL     1       5.761   4.771  19.002  0.00  0.00    +0.000 C 
ATOM     20  C   UNL     1       5.631   5.883  17.979  0.00  0.00    +0.000 C 
ATOM     21  C   UNL     1       6.491   4.706  17.674  0.00  0.00    +0.000 C 
ENDBRANCH  18  19
ENDBRANCH  10  13
ENDBRANCH   4   7
BRANCH   1  22
ATOM     22  O   UNL     1      -0.559  11.982  18.701  0.00  0.00    +0.000 OA
BRANCH  22  28
ATOM     23  C   UNL     1      -5.301  11.226  17.568  0.00  0.00    +0.000 C 
ATOM     24  C   UNL     1      -4.223  11.754  18.474  0.00  0.00    +0.000 A 
ATOM     25  C   UNL     1      -4.597  12.426  19.649  0.00  0.00    +0.000 A 
ATOM     26  C   UNL     1      -3.634  12.921  20.524  0.00  0.00    +0.000 A 
ATOM     27  C   UNL     1      -2.286  12.766  20.225  0.00  0.00    +0.000 A 
ATOM     28  C   UNL     1      -1.888  12.147  19.032  0.00  0.00    +0.000 A 
ATOM     29  C   UNL     1      -2.852  11.592  18.167  0.00  0.00    +0.000 A 
ATOM     30  C   UNL     1      -2.440  10.845  16.924  0.00  0.00    +0.000 C 
ENDBRANCH  22  28
ENDBRANCH   1  22
TORSDOF 5
ENDMDL
