MODEL 1
REMARK VINA RESULT:      -8.4      0.000      0.000
REMARK  Name = 
REMARK  6 active torsions:
REMARK  status: ('A' for Active; 'I' for Inactive)
REMARK    1  A    between atoms: C_1  and  C_2
REMARK    2  A    between atoms: C_4  and  C_5
REMARK    3  A    between atoms: C_8  and  S_9
REMARK    4  A    between atoms: S_9  and  N_12
REMARK    5  A    between atoms: N_12  and  C_13
REMARK    6  A    between atoms: C_15  and  C_16
REMARK                            x       y       z     vdW  Elec       q    Type
REMARK                         _______ _______ _______ _____ _____    ______ ____
ROOT
ATOM      1  S   UNL     1       2.746   3.329  18.391  0.00  0.00    +0.000 S 
ATOM      2  O   UNL     1       2.467   2.313  19.381  0.00  0.00    +0.000 OA
ATOM      3  O   UNL     1       2.139   3.319  17.081  0.00  0.00    +0.000 OA
ENDROOT
BRANCH   1   7
ATOM      4  C   UNL     1       1.719   7.383  20.240  0.00  0.00    +0.000 A 
ATOM      5  C   UNL     1       1.551   6.197  20.975  0.00  0.00    +0.000 A 
ATOM      6  C   UNL     1       1.924   4.961  20.441  0.00  0.00    +0.000 A 
ATOM      7  C   UNL     1       2.452   4.904  19.149  0.00  0.00    +0.000 A 
ATOM      8  C   UNL     1       2.673   6.075  18.420  0.00  0.00    +0.000 A 
ATOM      9  C   UNL     1       2.306   7.309  18.963  0.00  0.00    +0.000 A 
BRANCH   4  13
ATOM     10  C   UNL     1      -0.228  11.895  20.753  0.00  0.00    +0.000 C 
ATOM     11  C   UNL     1       0.426  10.588  20.952  0.00  0.00    +0.000 A 
ATOM     12  N   UNL     1       0.678   9.643  20.069  0.00  0.00    +0.000 NA
ATOM     13  C   UNL     1       1.267   8.639  20.811  0.00  0.00    +0.000 A 
ATOM     14  C   UNL     1       1.358   9.043  22.123  0.00  0.00    +0.000 A 
ATOM     15  O   UNL     1       0.822  10.292  22.226  0.00  0.00    +0.000 OA
ENDBRANCH   4  13
ENDBRANCH   1   7
BRANCH   1  16
ATOM     16  N   UNL     1       4.417   3.330  18.177  0.00  0.00    +0.000 NA
ATOM     17  H   UNL     1       4.782   2.384  18.077  0.00  0.00    +0.000 HD
BRANCH  16  18
ATOM     18  C   UNL     1       5.288   4.466  17.729  0.00  0.00    +0.000 C 
ATOM     19  C   UNL     1       6.589   4.084  16.965  0.00  0.00    +0.000 C 
ATOM     20  C   UNL     1       5.693   4.014  15.691  0.00  0.00    +0.000 C 
ATOM     21  C   UNL     1       4.870   5.137  16.376  0.00  0.00    +0.000 C 
BRANCH  20  22
ATOM     22  C   UNL     1       6.371   4.128  14.278  0.00  0.00    +0.000 A 
ATOM     23  C   UNL     1       5.885   3.336  13.212  0.00  0.00    +0.000 A 
ATOM     24  C   UNL     1       6.335   3.489  11.900  0.00  0.00    +0.000 A 
ATOM     25  C   UNL     1       7.305   4.440  11.609  0.00  0.00    +0.000 A 
ATOM     26  C   UNL     1       7.835   5.216  12.636  0.00  0.00    +0.000 A 
ATOM     27  C   UNL     1       7.372   5.054  13.944  0.00  0.00    +0.000 A 
ATOM     28  F   UNL     1       7.883   5.845  14.899  0.00  0.00    +0.000 F 
ENDBRANCH  20  22
ENDBRANCH  16  18
ENDBRANCH   1  16
TORSDOF 5
ENDMDL
MODEL 2
REMARK VINA RESULT:      -8.2      5.017      7.409
REMARK  Name = 
REMARK  6 active torsions:
REMARK  status: ('A' for Active; 'I' for Inactive)
REMARK    1  A    between atoms: C_1  and  C_2
REMARK    2  A    between atoms: C_4  and  C_5
REMARK    3  A    between atoms: C_8  and  S_9
REMARK    4  A    between atoms: S_9  and  N_12
REMARK    5  A    between atoms: N_12  and  C_13
REMARK    6  A    between atoms: C_15  and  C_16
REMARK                            x       y       z     vdW  Elec       q    Type
REMARK                         _______ _______ _______ _____ _____    ______ ____
ROOT
ATOM      1  S   UNL     1       6.765   4.860  17.018  0.00  0.00    +0.000 S 
ATOM      2  O   UNL     1       5.793   5.131  15.983  0.00  0.00    +0.000 OA
ATOM      3  O   UNL     1       7.914   4.014  16.797  0.00  0.00    +0.000 OA
ENDROOT
BRANCH   1   7
ATOM      4  C   UNL     1       8.421   8.857  18.499  0.00  0.00    +0.000 A 
ATOM      5  C   UNL     1       7.583   8.802  17.374  0.00  0.00    +0.000 A 
ATOM      6  C   UNL     1       7.021   7.593  16.953  0.00  0.00    +0.000 A 
ATOM      7  C   UNL     1       7.314   6.421  17.654  0.00  0.00    +0.000 A 
ATOM      8  C   UNL     1       8.105   6.461  18.805  0.00  0.00    +0.000 A 
ATOM      9  C   UNL     1       8.657   7.673  19.224  0.00  0.00    +0.000 A 
BRANCH   4  13
ATOM     10  C   UNL     1      10.536  13.315  18.260  0.00  0.00    +0.000 C 
ATOM     11  C   UNL     1       9.948  12.032  18.688  0.00  0.00    +0.000 A 
ATOM     12  N   UNL     1       9.479  11.048  17.949  0.00  0.00    +0.000 NA
ATOM     13  C   UNL     1       9.028  10.123  18.869  0.00  0.00    +0.000 A 
ATOM     14  C   UNL     1       9.269  10.596  20.139  0.00  0.00    +0.000 A 
ATOM     15  O   UNL     1       9.860  11.820  20.035  0.00  0.00    +0.000 OA
ENDBRANCH   4  13
ENDBRANCH   1   7
BRANCH   1  16
ATOM     16  N   UNL     1       5.904   4.218  18.315  0.00  0.00    +0.000 NA
ATOM     17  H   UNL     1       6.442   4.260  19.180  0.00  0.00    +0.000 HD
BRANCH  16  18
ATOM     18  C   UNL     1       4.424   4.006  18.425  0.00  0.00    +0.000 C 
ATOM     19  C   UNL     1       3.717   4.657  19.649  0.00  0.00    +0.000 C 
ATOM     20  C   UNL     1       3.664   5.959  18.791  0.00  0.00    +0.000 C 
ATOM     21  C   UNL     1       3.543   4.993  17.583  0.00  0.00    +0.000 C 
BRANCH  20  22
ATOM     22  C   UNL     1       2.618   7.071  19.163  0.00  0.00    +0.000 A 
ATOM     23  C   UNL     1       2.038   7.072  20.452  0.00  0.00    +0.000 A 
ATOM     24  C   UNL     1       1.219   8.108  20.904  0.00  0.00    +0.000 A 
ATOM     25  C   UNL     1       0.939   9.182  20.068  0.00  0.00    +0.000 A 
ATOM     26  C   UNL     1       1.462   9.201  18.778  0.00  0.00    +0.000 A 
ATOM     27  C   UNL     1       2.283   8.160  18.342  0.00  0.00    +0.000 A 
ATOM     28  F   UNL     1       2.796   8.234  17.104  0.00  0.00    +0.000 F 
ENDBRANCH  20  22
ENDBRANCH  16  18
ENDBRANCH   1  16
TORSDOF 5
ENDMDL
MODEL 3
REMARK VINA RESULT:      -8.2      4.707     10.496
REMARK  Name = 
REMARK  6 active torsions:
REMARK  status: ('A' for Active; 'I' for Inactive)
REMARK    1  A    between atoms: C_1  and  C_2
REMARK    2  A    between atoms: C_4  and  C_5
REMARK    3  A    between atoms: C_8  and  S_9
REMARK    4  A    between atoms: S_9  and  N_12
REMARK    5  A    between atoms: N_12  and  C_13
REMARK    6  A    between atoms: C_15  and  C_16
REMARK                            x       y       z     vdW  Elec       q    Type
REMARK                         _______ _______ _______ _____ _____    ______ ____
ROOT
ATOM      1  S   UNL     1       0.877  10.527  20.147  0.00  0.00    +0.000 S 
ATOM      2  O   UNL     1       0.905  10.342  21.581  0.00  0.00    +0.000 OA
ATOM      3  O   UNL     1       1.464  11.678  19.504  0.00  0.00    +0.000 OA
ENDROOT
BRANCH   1   7
ATOM      4  C   UNL     1       2.844   6.826  18.318  0.00  0.00    +0.000 A 
ATOM      5  C   UNL     1       2.389   6.813  19.647  0.00  0.00    +0.000 A 
ATOM      6  C   UNL     1       1.729   7.917  20.193  0.00  0.00    +0.000 A 
ATOM      7  C   UNL     1       1.537   9.057  19.409  0.00  0.00    +0.000 A 
ATOM      8  C   UNL     1       1.937   9.073  18.070  0.00  0.00    +0.000 A 
ATOM      9  C   UNL     1       2.589   7.964  17.529  0.00  0.00    +0.000 A 
BRANCH   4  13
ATOM     10  C   UNL     1       6.041   4.009  15.818  0.00  0.00    +0.000 C 
ATOM     11  C   UNL     1       4.970   4.531  16.687  0.00  0.00    +0.000 A 
ATOM     12  N   UNL     1       4.583   5.776  16.871  0.00  0.00    +0.000 NA
ATOM     13  C   UNL     1       3.574   5.680  17.808  0.00  0.00    +0.000 A 
ATOM     14  C   UNL     1       3.388   4.356  18.135  0.00  0.00    +0.000 A 
ATOM     15  O   UNL     1       4.278   3.609  17.422  0.00  0.00    +0.000 OA
ENDBRANCH   4  13
ENDBRANCH   1   7
BRANCH   1  16
ATOM     16  N   UNL     1      -0.746  10.467  19.697  0.00  0.00    +0.000 NA
ATOM     17  H   UNL     1      -1.361  10.531  20.508  0.00  0.00    +0.000 HD
BRANCH  16  18
ATOM     18  C   UNL     1      -1.339  10.738  18.348  0.00  0.00    +0.000 C 
ATOM     19  C   UNL     1      -2.745  10.130  18.072  0.00  0.00    +0.000 C 
ATOM     20  C   UNL     1      -3.314  11.391  18.790  0.00  0.00    +0.000 C 
ATOM     21  C   UNL     1      -2.074  12.116  18.205  0.00  0.00    +0.000 C 
BRANCH  20  22
ATOM     22  C   UNL     1      -4.807  11.807  18.528  0.00  0.00    +0.000 A 
ATOM     23  C   UNL     1      -5.673  12.002  19.629  0.00  0.00    +0.000 A 
ATOM     24  C   UNL     1      -6.964  12.513  19.483  0.00  0.00    +0.000 A 
ATOM     25  C   UNL     1      -7.441  12.836  18.219  0.00  0.00    +0.000 A 
ATOM     26  C   UNL     1      -6.632  12.625  17.106  0.00  0.00    +0.000 A 
ATOM     27  C   UNL     1      -5.341  12.116  17.267  0.00  0.00    +0.000 A 
ATOM     28  F   UNL     1      -4.581  11.961  16.173  0.00  0.00    +0.000 F 
ENDBRANCH  20  22
ENDBRANCH  16  18
ENDBRANCH   1  16
TORSDOF 5
ENDMDL
MODEL 4
REMARK VINA RESULT:      -8.1      3.300      9.420
REMARK  Name = 
REMARK  6 active torsions:
REMARK  status: ('A' for Active; 'I' for Inactive)
REMARK    1  A    between atoms: C_1  and  C_2
REMARK    2  A    between atoms: C_4  and  C_5
REMARK    3  A    between atoms: C_8  and  S_9
REMARK    4  A    between atoms: S_9  and  N_12
REMARK    5  A    between atoms: N_12  and  C_13
REMARK    6  A    between atoms: C_15  and  C_16
REMARK                            x       y       z     vdW  Elec       q    Type
REMARK                         _______ _______ _______ _____ _____    ______ ____
ROOT
ATOM      1  S   UNL     1       1.751   4.869  20.431  0.00  0.00    +0.000 S 
ATOM      2  O   UNL     1       0.674   3.962  20.099  0.00  0.00    +0.000 OA
ATOM      3  O   UNL     1       2.547   4.720  21.625  0.00  0.00    +0.000 OA
ENDROOT
BRANCH   1   7
ATOM      4  C   UNL     1       4.687   4.860  16.926  0.00  0.00    +0.000 A 
ATOM      5  C   UNL     1       3.512   4.093  16.878  0.00  0.00    +0.000 A 
ATOM      6  C   UNL     1       2.578   4.140  17.916  0.00  0.00    +0.000 A 
ATOM      7  C   UNL     1       2.829   4.949  19.027  0.00  0.00    +0.000 A 
ATOM      8  C   UNL     1       3.967   5.758  19.073  0.00  0.00    +0.000 A 
ATOM      9  C   UNL     1       4.893   5.712  18.028  0.00  0.00    +0.000 A 
BRANCH   4  13
ATOM     10  C   UNL     1       6.786   3.883  12.561  0.00  0.00    +0.000 C 
ATOM     11  C   UNL     1       6.494   4.279  13.952  0.00  0.00    +0.000 A 
ATOM     12  N   UNL     1       5.359   4.203  14.616  0.00  0.00    +0.000 NA
ATOM     13  C   UNL     1       5.657   4.740  15.852  0.00  0.00    +0.000 A 
ATOM     14  C   UNL     1       6.984   5.104  15.877  0.00  0.00    +0.000 A 
ATOM     15  O   UNL     1       7.532   4.812  14.664  0.00  0.00    +0.000 OA
ENDBRANCH   4  13
ENDBRANCH   1   7
BRANCH   1  16
ATOM     16  N   UNL     1       1.073   6.411  20.462  0.00  0.00    +0.000 NA
ATOM     17  H   UNL     1       0.082   6.380  20.699  0.00  0.00    +0.000 HD
BRANCH  16  18
ATOM     18  C   UNL     1       1.780   7.727  20.593  0.00  0.00    +0.000 C 
ATOM     19  C   UNL     1       1.127   8.941  19.873  0.00  0.00    +0.000 C 
ATOM     20  C   UNL     1       0.231   9.076  21.142  0.00  0.00    +0.000 C 
ATOM     21  C   UNL     1       1.466   8.527  21.904  0.00  0.00    +0.000 C 
BRANCH  20  22
ATOM     22  C   UNL     1      -0.470  10.452  21.435  0.00  0.00    +0.000 A 
ATOM     23  C   UNL     1      -0.796  11.306  20.356  0.00  0.00    +0.000 A 
ATOM     24  C   UNL     1      -1.548  12.469  20.523  0.00  0.00    +0.000 A 
ATOM     25  C   UNL     1      -1.993  12.829  21.789  0.00  0.00    +0.000 A 
ATOM     26  C   UNL     1      -1.663  12.033  22.883  0.00  0.00    +0.000 A 
ATOM     27  C   UNL     1      -0.913  10.870  22.700  0.00  0.00    +0.000 A 
ATOM     28  F   UNL     1      -0.647  10.112  23.775  0.00  0.00    +0.000 F 
ENDBRANCH  20  22
ENDBRANCH  16  18
ENDBRANCH   1  16
TORSDOF 5
ENDMDL
MODEL 5
REMARK VINA RESULT:      -8.1      4.731     10.460
REMARK  Name = 
REMARK  6 active torsions:
REMARK  status: ('A' for Active; 'I' for Inactive)
REMARK    1  A    between atoms: C_1  and  C_2
REMARK    2  A    between atoms: C_4  and  C_5
REMARK    3  A    between atoms: C_8  and  S_9
REMARK    4  A    between atoms: S_9  and  N_12
REMARK    5  A    between atoms: N_12  and  C_13
REMARK    6  A    between atoms: C_15  and  C_16
REMARK                            x       y       z     vdW  Elec       q    Type
REMARK                         _______ _______ _______ _____ _____    ______ ____
ROOT
ATOM      1  S   UNL     1       0.962  10.543  20.076  0.00  0.00    +0.000 S 
ATOM      2  O   UNL     1       1.025  10.541  21.521  0.00  0.00    +0.000 OA
ATOM      3  O   UNL     1       1.614  11.551  19.275  0.00  0.00    +0.000 OA
ENDROOT
BRANCH   1   7
ATOM      4  C   UNL     1       2.573   6.490  18.703  0.00  0.00    +0.000 A 
ATOM      5  C   UNL     1       2.137   6.676  20.025  0.00  0.00    +0.000 A 
ATOM      6  C   UNL     1       1.583   7.892  20.435  0.00  0.00    +0.000 A 
ATOM      7  C   UNL     1       1.481   8.942  19.520  0.00  0.00    +0.000 A 
ATOM      8  C   UNL     1       1.863   8.762  18.188  0.00  0.00    +0.000 A 
ATOM      9  C   UNL     1       2.408   7.542  17.782  0.00  0.00    +0.000 A 
BRANCH   4  13
ATOM     10  C   UNL     1       3.552   1.665  18.282  0.00  0.00    +0.000 C 
ATOM     11  C   UNL     1       3.560   3.139  18.209  0.00  0.00    +0.000 A 
ATOM     12  N   UNL     1       2.732   4.001  18.761  0.00  0.00    +0.000 NA
ATOM     13  C   UNL     1       3.193   5.230  18.333  0.00  0.00    +0.000 A 
ATOM     14  C   UNL     1       4.305   5.044  17.544  0.00  0.00    +0.000 A 
ATOM     15  O   UNL     1       4.551   3.706  17.458  0.00  0.00    +0.000 OA
ENDBRANCH   4  13
ENDBRANCH   1   7
BRANCH   1  16
ATOM     16  N   UNL     1      -0.675  10.558  19.678  0.00  0.00    +0.000 NA
ATOM     17  H   UNL     1      -1.258  10.725  20.497  0.00  0.00    +0.000 HD
BRANCH  16  18
ATOM     18  C   UNL     1      -1.294  10.762  18.327  0.00  0.00    +0.000 C 
ATOM     19  C   UNL     1      -2.699  10.131  18.104  0.00  0.00    +0.000 C 
ATOM     20  C   UNL     1      -3.267  11.419  18.774  0.00  0.00    +0.000 C 
ATOM     21  C   UNL     1      -2.042  12.126  18.135  0.00  0.00    +0.000 C 
BRANCH  20  22
ATOM     22  C   UNL     1      -4.767  11.811  18.520  0.00  0.00    +0.000 A 
ATOM     23  C   UNL     1      -5.627  12.005  19.625  0.00  0.00    +0.000 A 
ATOM     24  C   UNL     1      -6.926  12.496  19.485  0.00  0.00    +0.000 A 
ATOM     25  C   UNL     1      -7.418  12.800  18.221  0.00  0.00    +0.000 A 
ATOM     26  C   UNL     1      -6.614  12.588  17.104  0.00  0.00    +0.000 A 
ATOM     27  C   UNL     1      -5.315  12.100  17.260  0.00  0.00    +0.000 A 
ATOM     28  F   UNL     1      -4.561  11.945  16.162  0.00  0.00    +0.000 F 
ENDBRANCH  20  22
ENDBRANCH  16  18
ENDBRANCH   1  16
TORSDOF 5
ENDMDL
MODEL 6
REMARK VINA RESULT:      -8.1      1.732      2.224
REMARK  Name = 
REMARK  6 active torsions:
REMARK  status: ('A' for Active; 'I' for Inactive)
REMARK    1  A    between atoms: C_1  and  C_2
REMARK    2  A    between atoms: C_4  and  C_5
REMARK    3  A    between atoms: C_8  and  S_9
REMARK    4  A    between atoms: S_9  and  N_12
REMARK    5  A    between atoms: N_12  and  C_13
REMARK    6  A    between atoms: C_15  and  C_16
REMARK                            x       y       z     vdW  Elec       q    Type
REMARK                         _______ _______ _______ _____ _____    ______ ____
ROOT
ATOM      1  S   UNL     1       3.319   5.703  18.668  0.00  0.00    +0.000 S 
ATOM      2  O   UNL     1       3.657   5.125  19.950  0.00  0.00    +0.000 OA
ATOM      3  O   UNL     1       2.596   4.971  17.656  0.00  0.00    +0.000 OA
ENDROOT
BRANCH   1   7
ATOM      4  C   UNL     1       0.908   9.519  19.401  0.00  0.00    +0.000 A 
ATOM      5  C   UNL     1       1.161   8.619  20.449  0.00  0.00    +0.000 A 
ATOM      6  C   UNL     1       1.951   7.484  20.249  0.00  0.00    +0.000 A 
ATOM      7  C   UNL     1       2.480   7.233  18.981  0.00  0.00    +0.000 A 
ATOM      8  C   UNL     1       2.283   8.140  17.937  0.00  0.00    +0.000 A 
ATOM      9  C   UNL     1       1.499   9.277  18.146  0.00  0.00    +0.000 A 
BRANCH   4  13
ATOM     10  C   UNL     1      -2.257  12.669  21.515  0.00  0.00    +0.000 C 
ATOM     11  C   UNL     1      -1.338  11.958  20.605  0.00  0.00    +0.000 A 
ATOM     12  N   UNL     1      -0.698  10.823  20.794  0.00  0.00    +0.000 NA
ATOM     13  C   UNL     1       0.037  10.656  19.638  0.00  0.00    +0.000 A 
ATOM     14  C   UNL     1      -0.215  11.709  18.788  0.00  0.00    +0.000 A 
ATOM     15  O   UNL     1      -1.096  12.551  19.398  0.00  0.00    +0.000 OA
ENDBRANCH   4  13
ENDBRANCH   1   7
BRANCH   1  16
ATOM     16  N   UNL     1       4.772   6.213  17.986  0.00  0.00    +0.000 NA
ATOM     17  H   UNL     1       4.897   7.221  18.080  0.00  0.00    +0.000 HD
BRANCH  16  18
ATOM     18  C   UNL     1       5.983   5.388  17.671  0.00  0.00    +0.000 C 
ATOM     19  C   UNL     1       5.752   4.122  16.796  0.00  0.00    +0.000 C 
ATOM     20  C   UNL     1       5.848   5.081  15.570  0.00  0.00    +0.000 C 
ATOM     21  C   UNL     1       6.836   5.889  16.454  0.00  0.00    +0.000 C 
BRANCH  20  22
ATOM     22  C   UNL     1       6.187   4.480  14.159  0.00  0.00    +0.000 A 
ATOM     23  C   UNL     1       5.264   3.605  13.540  0.00  0.00    +0.000 A 
ATOM     24  C   UNL     1       5.425   3.152  12.230  0.00  0.00    +0.000 A 
ATOM     25  C   UNL     1       6.534   3.550  11.492  0.00  0.00    +0.000 A 
ATOM     26  C   UNL     1       7.484   4.381  12.078  0.00  0.00    +0.000 A 
ATOM     27  C   UNL     1       7.307   4.831  13.389  0.00  0.00    +0.000 A 
ATOM     28  F   UNL     1       8.227   5.659  13.903  0.00  0.00    +0.000 F 
ENDBRANCH  20  22
ENDBRANCH  16  18
ENDBRANCH   1  16
TORSDOF 5
ENDMDL
MODEL 7
REMARK VINA RESULT:      -8.0      2.866      8.721
REMARK  Name = 
REMARK  6 active torsions:
REMARK  status: ('A' for Active; 'I' for Inactive)
REMARK    1  A    between atoms: C_1  and  C_2
REMARK    2  A    between atoms: C_4  and  C_5
REMARK    3  A    between atoms: C_8  and  S_9
REMARK    4  A    between atoms: S_9  and  N_12
REMARK    5  A    between atoms: N_12  and  C_13
REMARK    6  A    between atoms: C_15  and  C_16
REMARK                            x       y       z     vdW  Elec       q    Type
REMARK                         _______ _______ _______ _____ _____    ______ ____
ROOT
ATOM      1  S   UNL     1       1.728   4.621  20.623  0.00  0.00    +0.000 S 
ATOM      2  O   UNL     1       0.648   3.803  20.115  0.00  0.00    +0.000 OA
ATOM      3  O   UNL     1       2.393   4.335  21.871  0.00  0.00    +0.000 OA
ENDROOT
BRANCH   1   7
ATOM      4  C   UNL     1       4.808   4.684  17.244  0.00  0.00    +0.000 A 
ATOM      5  C   UNL     1       3.485   5.096  17.015  0.00  0.00    +0.000 A 
ATOM      6  C   UNL     1       2.554   5.142  18.057  0.00  0.00    +0.000 A 
ATOM      7  C   UNL     1       2.944   4.752  19.340  0.00  0.00    +0.000 A 
ATOM      8  C   UNL     1       4.267   4.386  19.600  0.00  0.00    +0.000 A 
ATOM      9  C   UNL     1       5.194   4.351  18.556  0.00  0.00    +0.000 A 
BRANCH   4  13
ATOM     10  C   UNL     1       6.689   3.907  12.742  0.00  0.00    +0.000 C 
ATOM     11  C   UNL     1       6.469   4.227  14.165  0.00  0.00    +0.000 A 
ATOM     12  N   UNL     1       5.361   4.146  14.872  0.00  0.00    +0.000 NA
ATOM     13  C   UNL     1       5.727   4.599  16.123  0.00  0.00    +0.000 A 
ATOM     14  C   UNL     1       7.065   4.920  16.112  0.00  0.00    +0.000 A 
ATOM     15  O   UNL     1       7.553   4.685  14.861  0.00  0.00    +0.000 OA
ENDBRANCH   4  13
ENDBRANCH   1   7
BRANCH   1  16
ATOM     16  N   UNL     1       1.122   6.190  20.717  0.00  0.00    +0.000 NA
ATOM     17  H   UNL     1       0.158   6.200  21.047  0.00  0.00    +0.000 HD
BRANCH  16  18
ATOM     18  C   UNL     1       1.894   7.474  20.779  0.00  0.00    +0.000 C 
ATOM     19  C   UNL     1       1.725   8.445  19.575  0.00  0.00    +0.000 C 
ATOM     20  C   UNL     1       0.443   8.955  20.303  0.00  0.00    +0.000 C 
ATOM     21  C   UNL     1       1.218   8.622  21.606  0.00  0.00    +0.000 C 
BRANCH  20  22
ATOM     22  C   UNL     1      -0.129  10.370  19.933  0.00  0.00    +0.000 A 
ATOM     23  C   UNL     1       0.092  11.457  20.811  0.00  0.00    +0.000 A 
ATOM     24  C   UNL     1      -0.255  12.768  20.481  0.00  0.00    +0.000 A 
ATOM     25  C   UNL     1      -0.853  13.038  19.256  0.00  0.00    +0.000 A 
ATOM     26  C   UNL     1      -1.121  11.990  18.379  0.00  0.00    +0.000 A 
ATOM     27  C   UNL     1      -0.764  10.684  18.721  0.00  0.00    +0.000 A 
ATOM     28  F   UNL     1      -1.007   9.709  17.832  0.00  0.00    +0.000 F 
ENDBRANCH  20  22
ENDBRANCH  16  18
ENDBRANCH   1  16
TORSDOF 5
ENDMDL
MODEL 8
REMARK VINA RESULT:      -8.0      4.754     10.613
REMARK  Name = 
REMARK  6 active torsions:
REMARK  status: ('A' for Active; 'I' for Inactive)
REMARK    1  A    between atoms: C_1  and  C_2
REMARK    2  A    between atoms: C_4  and  C_5
REMARK    3  A    between atoms: C_8  and  S_9
REMARK    4  A    between atoms: S_9  and  N_12
REMARK    5  A    between atoms: N_12  and  C_13
REMARK    6  A    between atoms: C_15  and  C_16
REMARK                            x       y       z     vdW  Elec       q    Type
REMARK                         _______ _______ _______ _____ _____    ______ ____
ROOT
ATOM      1  S   UNL     1       0.452   9.760  20.240  0.00  0.00    +0.000 S 
ATOM      2  O   UNL     1      -0.364   9.037  21.192  0.00  0.00    +0.000 OA
ATOM      3  O   UNL     1       1.195  10.943  20.601  0.00  0.00    +0.000 OA
ENDROOT
BRANCH   1   7
ATOM      4  C   UNL     1       3.072   6.601  18.224  0.00  0.00    +0.000 A 
ATOM      5  C   UNL     1       2.700   7.768  17.536  0.00  0.00    +0.000 A 
ATOM      6  C   UNL     1       1.955   8.768  18.167  0.00  0.00    +0.000 A 
ATOM      7  C   UNL     1       1.557   8.592  19.494  0.00  0.00    +0.000 A 
ATOM      8  C   UNL     1       1.958   7.462  20.211  0.00  0.00    +0.000 A 
ATOM      9  C   UNL     1       2.710   6.470  19.578  0.00  0.00    +0.000 A 
BRANCH   4  13
ATOM     10  C   UNL     1       6.284   4.269  15.281  0.00  0.00    +0.000 C 
ATOM     11  C   UNL     1       5.203   4.630  16.218  0.00  0.00    +0.000 A 
ATOM     12  N   UNL     1       4.825   5.823  16.629  0.00  0.00    +0.000 NA
ATOM     13  C   UNL     1       3.799   5.563  17.515  0.00  0.00    +0.000 A 
ATOM     14  C   UNL     1       3.595   4.204  17.582  0.00  0.00    +0.000 A 
ATOM     15  O   UNL     1       4.490   3.594  16.754  0.00  0.00    +0.000 OA
ENDBRANCH   4  13
ENDBRANCH   1   7
BRANCH   1  16
ATOM     16  N   UNL     1      -0.567  10.169  18.964  0.00  0.00    +0.000 NA
ATOM     17  H   UNL     1      -1.131   9.374  18.665  0.00  0.00    +0.000 HD
BRANCH  16  18
ATOM     18  C   UNL     1      -1.010  11.537  18.540  0.00  0.00    +0.000 C 
ATOM     19  C   UNL     1      -2.216  11.604  17.558  0.00  0.00    +0.000 C 
ATOM     20  C   UNL     1      -3.118  11.493  18.825  0.00  0.00    +0.000 C 
ATOM     21  C   UNL     1      -1.976  12.266  19.537  0.00  0.00    +0.000 C 
BRANCH  20  22
ATOM     22  C   UNL     1      -4.612  11.971  18.740  0.00  0.00    +0.000 A 
ATOM     23  C   UNL     1      -5.259  11.996  17.482  0.00  0.00    +0.000 A 
ATOM     24  C   UNL     1      -6.621  12.265  17.347  0.00  0.00    +0.000 A 
ATOM     25  C   UNL     1      -7.388  12.533  18.474  0.00  0.00    +0.000 A 
ATOM     26  C   UNL     1      -6.782  12.553  19.727  0.00  0.00    +0.000 A 
ATOM     27  C   UNL     1      -5.418  12.278  19.847  0.00  0.00    +0.000 A 
ATOM     28  F   UNL     1      -4.879  12.272  21.076  0.00  0.00    +0.000 F 
ENDBRANCH  20  22
ENDBRANCH  16  18
ENDBRANCH   1  16
TORSDOF 5
ENDMDL
MODEL 9
REMARK VINA RESULT:      -7.9      3.102      8.657
REMARK  Name = 
REMARK  6 active torsions:
REMARK  status: ('A' for Active; 'I' for Inactive)
REMARK    1  A    between atoms: C_1  and  C_2
REMARK    2  A    between atoms: C_4  and  C_5
REMARK    3  A    between atoms: C_8  and  S_9
REMARK    4  A    between atoms: S_9  and  N_12
REMARK    5  A    between atoms: N_12  and  C_13
REMARK    6  A    between atoms: C_15  and  C_16
REMARK                            x       y       z     vdW  Elec       q    Type
REMARK                         _______ _______ _______ _____ _____    ______ ____
ROOT
ATOM      1  S   UNL     1       1.755   4.294  20.606  0.00  0.00    +0.000 S 
ATOM      2  O   UNL     1       0.626   3.459  20.259  0.00  0.00    +0.000 OA
ATOM      3  O   UNL     1       2.457   4.163  21.860  0.00  0.00    +0.000 OA
ENDROOT
BRANCH   1   7
ATOM      4  C   UNL     1       4.747   4.294  17.148  0.00  0.00    +0.000 A 
ATOM      5  C   UNL     1       5.188   4.415  18.476  0.00  0.00    +0.000 A 
ATOM      6  C   UNL     1       4.286   4.350  19.542  0.00  0.00    +0.000 A 
ATOM      7  C   UNL     1       2.925   4.184  19.279  0.00  0.00    +0.000 A 
ATOM      8  C   UNL     1       2.471   4.012  17.968  0.00  0.00    +0.000 A 
ATOM      9  C   UNL     1       3.378   4.069  16.908  0.00  0.00    +0.000 A 
BRANCH   4  13
ATOM     10  C   UNL     1       6.848   4.225  12.677  0.00  0.00    +0.000 C 
ATOM     11  C   UNL     1       6.550   4.353  14.116  0.00  0.00    +0.000 A 
ATOM     12  N   UNL     1       5.430   4.094  14.758  0.00  0.00    +0.000 NA
ATOM     13  C   UNL     1       5.710   4.422  16.068  0.00  0.00    +0.000 A 
ATOM     14  C   UNL     1       7.013   4.855  16.156  0.00  0.00    +0.000 A 
ATOM     15  O   UNL     1       7.563   4.814  14.910  0.00  0.00    +0.000 OA
ENDBRANCH   4  13
ENDBRANCH   1   7
BRANCH   1  16
ATOM     16  N   UNL     1       1.216   5.885  20.489  0.00  0.00    +0.000 NA
ATOM     17  H   UNL     1       0.232   5.967  20.743  0.00  0.00    +0.000 HD
BRANCH  16  18
ATOM     18  C   UNL     1       2.038   7.139  20.473  0.00  0.00    +0.000 C 
ATOM     19  C   UNL     1       1.775   8.128  19.301  0.00  0.00    +0.000 C 
ATOM     20  C   UNL     1       0.601   8.677  20.168  0.00  0.00    +0.000 C 
ATOM     21  C   UNL     1       1.500   8.303  21.376  0.00  0.00    +0.000 C 
BRANCH  20  22
ATOM     22  C   UNL     1       0.045  10.117  19.872  0.00  0.00    +0.000 A 
ATOM     23  C   UNL     1      -0.380  10.437  18.561  0.00  0.00    +0.000 A 
ATOM     24  C   UNL     1      -1.020  11.639  18.255  0.00  0.00    +0.000 A 
ATOM     25  C   UNL     1      -1.246  12.576  19.256  0.00  0.00    +0.000 A 
ATOM     26  C   UNL     1      -0.809  12.314  20.552  0.00  0.00    +0.000 A 
ATOM     27  C   UNL     1      -0.174  11.105  20.844  0.00  0.00    +0.000 A 
ATOM     28  F   UNL     1       0.198  10.876  22.112  0.00  0.00    +0.000 F 
ENDBRANCH  20  22
ENDBRANCH  16  18
ENDBRANCH   1  16
TORSDOF 5
ENDMDL
