MODEL 1
REMARK VINA RESULT:      -8.8      0.000      0.000
REMARK  Name = 
REMARK  7 active torsions:
REMARK  status: ('A' for Active; 'I' for Inactive)
REMARK    1  A    between atoms: C_2  and  C_3
REMARK    2  A    between atoms: C_3  and  C_4
REMARK    3  A    between atoms: C_4  and  C_5
REMARK    4  A    between atoms: N_12  and  C_13
REMARK    5  A    between atoms: C_13  and  C_14
REMARK    6  A    between atoms: C_13  and  C_20
REMARK    7  A    between atoms: C_22  and  C_23
REMARK                            x       y       z     vdW  Elec       q    Type
REMARK                         _______ _______ _______ _____ _____    ______ ____
ROOT
ATOM      1  C   UNL     1       3.173   5.758  18.363  0.00  0.00    +0.000 C 
ENDROOT
BRANCH   1   2
ATOM      2  C   UNL     1       2.338   4.816  19.224  0.00  0.00    +0.000 A 
ATOM      3  C   UNL     1       1.371   3.964  18.667  0.00  0.00    +0.000 A 
ATOM      4  C   UNL     1       0.745   2.985  19.444  0.00  0.00    +0.000 A 
ATOM      5  C   UNL     1       1.068   2.851  20.792  0.00  0.00    +0.000 A 
ATOM      6  C   UNL     1       1.996   3.712  21.372  0.00  0.00    +0.000 A 
ATOM      7  C   UNL     1       2.622   4.690  20.596  0.00  0.00    +0.000 A 
ENDBRANCH   1   2
BRANCH   1  10
ATOM      8  O   UNL     1       2.191   8.012  19.822  0.00  0.00    +0.000 OA
ATOM      9  C   UNL     1       1.987   7.930  18.616  0.00  0.00    +0.000 C 
ATOM     10  N   UNL     1       2.401   6.871  17.845  0.00  0.00    +0.000 N 
ATOM     11  H   UNL     1       2.075   6.818  16.893  0.00  0.00    +0.000 HD
BRANCH   9  12
ATOM     12  C   UNL     1       1.233   8.999  17.832  0.00  0.00    +0.000 C 
BRANCH  12  13
ATOM     13  C   UNL     1       0.827  10.163  18.745  0.00  0.00    +0.000 C 
BRANCH  13  14
ATOM     14  C   UNL     1      -0.594  10.647  18.563  0.00  0.00    +0.000 A 
ATOM     15  C   UNL     1      -1.394  10.091  17.481  0.00  0.00    +0.000 A 
ATOM     16  C   UNL     1      -2.676  10.438  17.310  0.00  0.00    +0.000 A 
ATOM     17  C   UNL     1      -3.309  11.406  18.243  0.00  0.00    +0.000 A 
ATOM     18  O   UNL     1      -4.479  11.745  18.119  0.00  0.00    +0.000 OA
ATOM     19  N   UNL     1      -2.497  11.880  19.242  0.00  0.00    +0.000 N 
ATOM     20  C   UNL     1      -1.184  11.513  19.408  0.00  0.00    +0.000 A 
ATOM     21  H   UNL     1      -2.932  12.523  19.894  0.00  0.00    +0.000 HD
ENDBRANCH  13  14
ENDBRANCH  12  13
ENDBRANCH   9  12
ENDBRANCH   1  10
BRANCH   1  22
ATOM     22  C   UNL     1       3.866   4.926  17.291  0.00  0.00    +0.000 C 
ATOM     23  C   UNL     1       4.724   3.753  17.697  0.00  0.00    +0.000 C 
ATOM     24  C   UNL     1       5.342   4.869  16.889  0.00  0.00    +0.000 C 
BRANCH  24  25
ATOM     25  C   UNL     1       6.407   5.763  17.469  0.00  0.00    +0.000 A 
ATOM     26  C   UNL     1       7.152   5.412  18.607  0.00  0.00    +0.000 A 
ATOM     27  C   UNL     1       8.097   6.282  19.158  0.00  0.00    +0.000 A 
ATOM     28  C   UNL     1       8.324   7.525  18.573  0.00  0.00    +0.000 A 
ATOM     29  C   UNL     1       7.631   7.882  17.422  0.00  0.00    +0.000 A 
ATOM     30  C   UNL     1       6.702   6.999  16.867  0.00  0.00    +0.000 A 
ENDBRANCH  24  25
ENDBRANCH   1  22
TORSDOF 7
ENDMDL
MODEL 2
REMARK VINA RESULT:      -8.8      0.703      1.348
REMARK  Name = 
REMARK  7 active torsions:
REMARK  status: ('A' for Active; 'I' for Inactive)
REMARK    1  A    between atoms: C_2  and  C_3
REMARK    2  A    between atoms: C_3  and  C_4
REMARK    3  A    between atoms: C_4  and  C_5
REMARK    4  A    between atoms: N_12  and  C_13
REMARK    5  A    between atoms: C_13  and  C_14
REMARK    6  A    between atoms: C_13  and  C_20
REMARK    7  A    between atoms: C_22  and  C_23
REMARK                            x       y       z     vdW  Elec       q    Type
REMARK                         _______ _______ _______ _____ _____    ______ ____
ROOT
ATOM      1  C   UNL     1       3.096   5.846  18.351  0.00  0.00    +0.000 C 
ENDROOT
BRANCH   1   2
ATOM      2  C   UNL     1       2.260   4.864  19.166  0.00  0.00    +0.000 A 
ATOM      3  C   UNL     1       1.376   3.959  18.557  0.00  0.00    +0.000 A 
ATOM      4  C   UNL     1       0.756   2.952  19.302  0.00  0.00    +0.000 A 
ATOM      5  C   UNL     1       1.002   2.840  20.668  0.00  0.00    +0.000 A 
ATOM      6  C   UNL     1       1.846   3.752  21.297  0.00  0.00    +0.000 A 
ATOM      7  C   UNL     1       2.466   4.759  20.553  0.00  0.00    +0.000 A 
ENDBRANCH   1   2
BRANCH   1  10
ATOM      8  O   UNL     1       2.199   8.094  19.872  0.00  0.00    +0.000 OA
ATOM      9  C   UNL     1       1.950   8.030  18.673  0.00  0.00    +0.000 C 
ATOM     10  N   UNL     1       2.320   6.975  17.875  0.00  0.00    +0.000 N 
ATOM     11  H   UNL     1       1.959   6.938  16.935  0.00  0.00    +0.000 HD
BRANCH   9  12
ATOM     12  C   UNL     1       1.182   9.118  17.930  0.00  0.00    +0.000 C 
BRANCH  12  13
ATOM     13  C   UNL     1       0.327   9.944  18.900  0.00  0.00    +0.000 C 
BRANCH  13  14
ATOM     14  C   UNL     1      -1.035  10.335  18.370  0.00  0.00    +0.000 A 
ATOM     15  C   UNL     1      -1.807  11.338  19.089  0.00  0.00    +0.000 A 
ATOM     16  C   UNL     1      -2.992  11.766  18.634  0.00  0.00    +0.000 A 
ATOM     17  C   UNL     1      -3.537  11.216  17.366  0.00  0.00    +0.000 A 
ATOM     18  O   UNL     1      -4.616  11.585  16.919  0.00  0.00    +0.000 OA
ATOM     19  N   UNL     1      -2.750  10.283  16.740  0.00  0.00    +0.000 N 
ATOM     20  C   UNL     1      -1.535   9.856  17.216  0.00  0.00    +0.000 A 
ATOM     21  H   UNL     1      -3.108   9.923  15.863  0.00  0.00    +0.000 HD
ENDBRANCH  13  14
ENDBRANCH  12  13
ENDBRANCH   9  12
ENDBRANCH   1  10
BRANCH   1  22
ATOM     22  C   UNL     1       3.800   5.063  17.249  0.00  0.00    +0.000 C 
ATOM     23  C   UNL     1       4.660   3.877  17.611  0.00  0.00    +0.000 C 
ATOM     24  C   UNL     1       5.279   5.029  16.856  0.00  0.00    +0.000 C 
BRANCH  24  25
ATOM     25  C   UNL     1       6.336   5.902  17.482  0.00  0.00    +0.000 A 
ATOM     26  C   UNL     1       6.617   7.199  17.021  0.00  0.00    +0.000 A 
ATOM     27  C   UNL     1       7.639   7.968  17.583  0.00  0.00    +0.000 A 
ATOM     28  C   UNL     1       8.398   7.458  18.632  0.00  0.00    +0.000 A 
ATOM     29  C   UNL     1       8.115   6.194  19.137  0.00  0.00    +0.000 A 
ATOM     30  C   UNL     1       7.080   5.438  18.581  0.00  0.00    +0.000 A 
ENDBRANCH  24  25
ENDBRANCH   1  22
TORSDOF 7
ENDMDL
MODEL 3
REMARK VINA RESULT:      -8.7      0.462      1.021
REMARK  Name = 
REMARK  7 active torsions:
REMARK  status: ('A' for Active; 'I' for Inactive)
REMARK    1  A    between atoms: C_2  and  C_3
REMARK    2  A    between atoms: C_3  and  C_4
REMARK    3  A    between atoms: C_4  and  C_5
REMARK    4  A    between atoms: N_12  and  C_13
REMARK    5  A    between atoms: C_13  and  C_14
REMARK    6  A    between atoms: C_13  and  C_20
REMARK    7  A    between atoms: C_22  and  C_23
REMARK                            x       y       z     vdW  Elec       q    Type
REMARK                         _______ _______ _______ _____ _____    ______ ____
ROOT
ATOM      1  C   UNL     1       3.221   5.856  18.219  0.00  0.00    +0.000 C 
ENDROOT
BRANCH   1   2
ATOM      2  C   UNL     1       2.525   4.809  19.083  0.00  0.00    +0.000 A 
ATOM      3  C   UNL     1       2.798   4.677  20.454  0.00  0.00    +0.000 A 
ATOM      4  C   UNL     1       2.025   3.838  21.261  0.00  0.00    +0.000 A 
ATOM      5  C   UNL     1       0.975   3.109  20.708  0.00  0.00    +0.000 A 
ATOM      6  C   UNL     1       0.713   3.197  19.344  0.00  0.00    +0.000 A 
ATOM      7  C   UNL     1       1.485   4.036  18.537  0.00  0.00    +0.000 A 
ENDBRANCH   1   2
BRANCH   1  10
ATOM      8  O   UNL     1       2.379   8.140  19.719  0.00  0.00    +0.000 OA
ATOM      9  C   UNL     1       1.986   7.987  18.568  0.00  0.00    +0.000 C 
ATOM     10  N   UNL     1       2.322   6.907  17.787  0.00  0.00    +0.000 N 
ATOM     11  H   UNL     1       1.848   6.792  16.904  0.00  0.00    +0.000 HD
BRANCH   9  12
ATOM     12  C   UNL     1       1.063   8.982  17.872  0.00  0.00    +0.000 C 
BRANCH  12  13
ATOM     13  C   UNL     1       0.234   9.767  18.895  0.00  0.00    +0.000 C 
BRANCH  13  14
ATOM     14  C   UNL     1      -1.028  10.394  18.344  0.00  0.00    +0.000 A 
ATOM     15  C   UNL     1      -1.652   9.803  17.169  0.00  0.00    +0.000 A 
ATOM     16  C   UNL     1      -2.800  10.279  16.674  0.00  0.00    +0.000 A 
ATOM     17  C   UNL     1      -3.467  11.432  17.334  0.00  0.00    +0.000 A 
ATOM     18  O   UNL     1      -4.519  11.892  16.910  0.00  0.00    +0.000 OA
ATOM     19  N   UNL     1      -2.826  11.930  18.440  0.00  0.00    +0.000 N 
ATOM     20  C   UNL     1      -1.649  11.429  18.939  0.00  0.00    +0.000 A 
ATOM     21  H   UNL     1      -3.290  12.701  18.906  0.00  0.00    +0.000 HD
ENDBRANCH  13  14
ENDBRANCH  12  13
ENDBRANCH   9  12
ENDBRANCH   1  10
BRANCH   1  22
ATOM     22  C   UNL     1       3.929   5.132  17.080  0.00  0.00    +0.000 C 
ATOM     23  C   UNL     1       4.763   3.910  17.379  0.00  0.00    +0.000 C 
ATOM     24  C   UNL     1       5.413   5.096  16.707  0.00  0.00    +0.000 C 
BRANCH  24  25
ATOM     25  C   UNL     1       6.475   5.909  17.402  0.00  0.00    +0.000 A 
ATOM     26  C   UNL     1       7.171   5.439  18.529  0.00  0.00    +0.000 A 
ATOM     27  C   UNL     1       8.113   6.233  19.188  0.00  0.00    +0.000 A 
ATOM     28  C   UNL     1       8.387   7.517  18.726  0.00  0.00    +0.000 A 
ATOM     29  C   UNL     1       7.744   7.993  17.589  0.00  0.00    +0.000 A 
ATOM     30  C   UNL     1       6.817   7.186  16.924  0.00  0.00    +0.000 A 
ENDBRANCH  24  25
ENDBRANCH   1  22
TORSDOF 7
ENDMDL
MODEL 4
REMARK VINA RESULT:      -8.7      1.939      2.561
REMARK  Name = 
REMARK  7 active torsions:
REMARK  status: ('A' for Active; 'I' for Inactive)
REMARK    1  A    between atoms: C_2  and  C_3
REMARK    2  A    between atoms: C_3  and  C_4
REMARK    3  A    between atoms: C_4  and  C_5
REMARK    4  A    between atoms: N_12  and  C_13
REMARK    5  A    between atoms: C_13  and  C_14
REMARK    6  A    between atoms: C_13  and  C_20
REMARK    7  A    between atoms: C_22  and  C_23
REMARK                            x       y       z     vdW  Elec       q    Type
REMARK                         _______ _______ _______ _____ _____    ______ ____
ROOT
ATOM      1  C   UNL     1       2.995   5.740  18.640  0.00  0.00    +0.000 C 
ENDROOT
BRANCH   1   2
ATOM      2  C   UNL     1       2.424   4.603  19.481  0.00  0.00    +0.000 A 
ATOM      3  C   UNL     1       2.841   4.376  20.802  0.00  0.00    +0.000 A 
ATOM      4  C   UNL     1       2.182   3.447  21.612  0.00  0.00    +0.000 A 
ATOM      5  C   UNL     1       1.102   2.724  21.111  0.00  0.00    +0.000 A 
ATOM      6  C   UNL     1       0.699   2.907  19.791  0.00  0.00    +0.000 A 
ATOM      7  C   UNL     1       1.357   3.835  18.981  0.00  0.00    +0.000 A 
ENDBRANCH   1   2
BRANCH   1  10
ATOM      8  O   UNL     1       3.535   8.393  17.721  0.00  0.00    +0.000 OA
ATOM      9  C   UNL     1       2.381   8.052  17.955  0.00  0.00    +0.000 C 
ATOM     10  N   UNL     1       2.037   6.807  18.423  0.00  0.00    +0.000 N 
ATOM     11  H   UNL     1       1.085   6.655  18.718  0.00  0.00    +0.000 HD
BRANCH   9  12
ATOM     12  C   UNL     1       1.190   8.984  17.764  0.00  0.00    +0.000 C 
BRANCH  12  13
ATOM     13  C   UNL     1       1.421  10.321  18.479  0.00  0.00    +0.000 C 
BRANCH  13  14
ATOM     14  C   UNL     1       0.706  10.465  19.804  0.00  0.00    +0.000 A 
ATOM     15  C   UNL     1       0.788   9.378  20.769  0.00  0.00    +0.000 A 
ATOM     16  C   UNL     1       0.225   9.475  21.980  0.00  0.00    +0.000 A 
ATOM     17  C   UNL     1      -0.496  10.717  22.361  0.00  0.00    +0.000 A 
ATOM     18  O   UNL     1      -1.021  10.842  23.460  0.00  0.00    +0.000 OA
ATOM     19  N   UNL     1      -0.524  11.701  21.404  0.00  0.00    +0.000 N 
ATOM     20  C   UNL     1       0.060  11.589  20.167  0.00  0.00    +0.000 A 
ATOM     21  H   UNL     1      -0.995  12.558  21.669  0.00  0.00    +0.000 HD
ENDBRANCH  13  14
ENDBRANCH  12  13
ENDBRANCH   9  12
ENDBRANCH   1  10
BRANCH   1  22
ATOM     22  C   UNL     1       3.560   5.140  17.358  0.00  0.00    +0.000 C 
ATOM     23  C   UNL     1       4.411   3.896  17.431  0.00  0.00    +0.000 C 
ATOM     24  C   UNL     1       4.992   5.146  16.816  0.00  0.00    +0.000 C 
BRANCH  24  25
ATOM     25  C   UNL     1       6.134   5.885  17.465  0.00  0.00    +0.000 A 
ATOM     26  C   UNL     1       6.557   7.153  17.032  0.00  0.00    +0.000 A 
ATOM     27  C   UNL     1       7.653   7.794  17.616  0.00  0.00    +0.000 A 
ATOM     28  C   UNL     1       8.347   7.181  18.655  0.00  0.00    +0.000 A 
ATOM     29  C   UNL     1       7.924   5.945  19.131  0.00  0.00    +0.000 A 
ATOM     30  C   UNL     1       6.816   5.319  18.555  0.00  0.00    +0.000 A 
ENDBRANCH  24  25
ENDBRANCH   1  22
TORSDOF 7
ENDMDL
MODEL 5
REMARK VINA RESULT:      -8.6      2.038      2.455
REMARK  Name = 
REMARK  7 active torsions:
REMARK  status: ('A' for Active; 'I' for Inactive)
REMARK    1  A    between atoms: C_2  and  C_3
REMARK    2  A    between atoms: C_3  and  C_4
REMARK    3  A    between atoms: C_4  and  C_5
REMARK    4  A    between atoms: N_12  and  C_13
REMARK    5  A    between atoms: C_13  and  C_14
REMARK    6  A    between atoms: C_13  and  C_20
REMARK    7  A    between atoms: C_22  and  C_23
REMARK                            x       y       z     vdW  Elec       q    Type
REMARK                         _______ _______ _______ _____ _____    ______ ____
ROOT
ATOM      1  C   UNL     1       2.822   5.760  18.715  0.00  0.00    +0.000 C 
ENDROOT
BRANCH   1   2
ATOM      2  C   UNL     1       2.189   4.702  19.613  0.00  0.00    +0.000 A 
ATOM      3  C   UNL     1       1.243   3.786  19.127  0.00  0.00    +0.000 A 
ATOM      4  C   UNL     1       0.810   2.716  19.916  0.00  0.00    +0.000 A 
ATOM      5  C   UNL     1       1.309   2.552  21.206  0.00  0.00    +0.000 A 
ATOM      6  C   UNL     1       2.219   3.472  21.719  0.00  0.00    +0.000 A 
ATOM      7  C   UNL     1       2.651   4.542  20.932  0.00  0.00    +0.000 A 
ENDBRANCH   1   2
BRANCH   1  10
ATOM      8  O   UNL     1       3.521   8.383  17.818  0.00  0.00    +0.000 OA
ATOM      9  C   UNL     1       2.342   8.089  17.981  0.00  0.00    +0.000 C 
ATOM     10  N   UNL     1       1.921   6.861  18.433  0.00  0.00    +0.000 N 
ATOM     11  H   UNL     1       0.948   6.749  18.668  0.00  0.00    +0.000 HD
BRANCH   9  12
ATOM     12  C   UNL     1       1.203   9.065  17.710  0.00  0.00    +0.000 C 
BRANCH  12  13
ATOM     13  C   UNL     1       1.433  10.392  18.444  0.00  0.00    +0.000 C 
BRANCH  13  14
ATOM     14  C   UNL     1       0.821  10.470  19.824  0.00  0.00    +0.000 A 
ATOM     15  C   UNL     1      -0.138  11.527  20.111  0.00  0.00    +0.000 A 
ATOM     16  C   UNL     1      -0.755  11.608  21.296  0.00  0.00    +0.000 A 
ATOM     17  C   UNL     1      -0.468  10.599  22.348  0.00  0.00    +0.000 A 
ATOM     18  O   UNL     1      -1.016  10.641  23.443  0.00  0.00    +0.000 OA
ATOM     19  N   UNL     1       0.438   9.628  22.003  0.00  0.00    +0.000 N 
ATOM     20  C   UNL     1       1.062   9.555  20.782  0.00  0.00    +0.000 A 
ATOM     21  H   UNL     1       0.619   8.925  22.710  0.00  0.00    +0.000 HD
ENDBRANCH  13  14
ENDBRANCH  12  13
ENDBRANCH   9  12
ENDBRANCH   1  10
BRANCH   1  22
ATOM     22  C   UNL     1       3.361   5.062  17.472  0.00  0.00    +0.000 C 
ATOM     23  C   UNL     1       4.167   3.795  17.621  0.00  0.00    +0.000 C 
ATOM     24  C   UNL     1       4.790   4.983  16.929  0.00  0.00    +0.000 C 
BRANCH  24  25
ATOM     25  C   UNL     1       5.960   5.719  17.529  0.00  0.00    +0.000 A 
ATOM     26  C   UNL     1       6.441   6.931  17.005  0.00  0.00    +0.000 A 
ATOM     27  C   UNL     1       7.562   7.566  17.547  0.00  0.00    +0.000 A 
ATOM     28  C   UNL     1       8.221   7.005  18.636  0.00  0.00    +0.000 A 
ATOM     29  C   UNL     1       7.742   5.829  19.202  0.00  0.00    +0.000 A 
ATOM     30  C   UNL     1       6.611   5.210  18.666  0.00  0.00    +0.000 A 
ENDBRANCH  24  25
ENDBRANCH   1  22
TORSDOF 7
ENDMDL
MODEL 6
REMARK VINA RESULT:      -8.6      2.062      2.178
REMARK  Name = 
REMARK  7 active torsions:
REMARK  status: ('A' for Active; 'I' for Inactive)
REMARK    1  A    between atoms: C_2  and  C_3
REMARK    2  A    between atoms: C_3  and  C_4
REMARK    3  A    between atoms: C_4  and  C_5
REMARK    4  A    between atoms: N_12  and  C_13
REMARK    5  A    between atoms: C_13  and  C_14
REMARK    6  A    between atoms: C_13  and  C_20
REMARK    7  A    between atoms: C_22  and  C_23
REMARK                            x       y       z     vdW  Elec       q    Type
REMARK                         _______ _______ _______ _____ _____    ______ ____
ROOT
ATOM      1  C   UNL     1       2.805   5.681  18.626  0.00  0.00    +0.000 C 
ENDROOT
BRANCH   1   2
ATOM      2  C   UNL     1       2.164   4.682  19.584  0.00  0.00    +0.000 A 
ATOM      3  C   UNL     1       1.159   3.795  19.168  0.00  0.00    +0.000 A 
ATOM      4  C   UNL     1       0.713   2.771  20.008  0.00  0.00    +0.000 A 
ATOM      5  C   UNL     1       1.257   2.625  21.282  0.00  0.00    +0.000 A 
ATOM      6  C   UNL     1       2.227   3.519  21.727  0.00  0.00    +0.000 A 
ATOM      7  C   UNL     1       2.673   4.542  20.888  0.00  0.00    +0.000 A 
ENDBRANCH   1   2
BRANCH   1  10
ATOM      8  O   UNL     1       3.536   8.385  18.053  0.00  0.00    +0.000 OA
ATOM      9  C   UNL     1       2.357   8.049  18.007  0.00  0.00    +0.000 C 
ATOM     10  N   UNL     1       1.918   6.779  18.292  0.00  0.00    +0.000 N 
ATOM     11  H   UNL     1       0.924   6.623  18.363  0.00  0.00    +0.000 HD
BRANCH   9  12
ATOM     12  C   UNL     1       1.237   9.015  17.637  0.00  0.00    +0.000 C 
BRANCH  12  13
ATOM     13  C   UNL     1       1.511  10.414  18.204  0.00  0.00    +0.000 C 
BRANCH  13  14
ATOM     14  C   UNL     1       0.877  10.689  19.549  0.00  0.00    +0.000 A 
ATOM     15  C   UNL     1       0.180   9.609  20.233  0.00  0.00    +0.000 A 
ATOM     16  C   UNL     1      -0.348   9.779  21.451  0.00  0.00    +0.000 A 
ATOM     17  C   UNL     1      -0.220  11.093  22.134  0.00  0.00    +0.000 A 
ATOM     18  O   UNL     1      -0.688  11.284  23.249  0.00  0.00    +0.000 OA
ATOM     19  N   UNL     1       0.457  12.059  21.433  0.00  0.00    +0.000 N 
ATOM     20  C   UNL     1       0.996  11.870  20.185  0.00  0.00    +0.000 A 
ATOM     21  H   UNL     1       0.566  12.949  21.905  0.00  0.00    +0.000 HD
ENDBRANCH  13  14
ENDBRANCH  12  13
ENDBRANCH   9  12
ENDBRANCH   1  10
BRANCH   1  22
ATOM     22  C   UNL     1       3.324   4.910  17.419  0.00  0.00    +0.000 C 
ATOM     23  C   UNL     1       4.095   3.630  17.629  0.00  0.00    +0.000 C 
ATOM     24  C   UNL     1       4.751   4.766  16.882  0.00  0.00    +0.000 C 
BRANCH  24  25
ATOM     25  C   UNL     1       5.941   5.497  17.448  0.00  0.00    +0.000 A 
ATOM     26  C   UNL     1       6.713   4.982  18.502  0.00  0.00    +0.000 A 
ATOM     27  C   UNL     1       7.779   5.705  19.046  0.00  0.00    +0.000 A 
ATOM     28  C   UNL     1       8.102   6.959  18.537  0.00  0.00    +0.000 A 
ATOM     29  C   UNL     1       7.381   7.475  17.465  0.00  0.00    +0.000 A 
ATOM     30  C   UNL     1       6.329   6.739  16.916  0.00  0.00    +0.000 A 
ENDBRANCH  24  25
ENDBRANCH   1  22
TORSDOF 7
ENDMDL
MODEL 7
REMARK VINA RESULT:      -8.5      0.827      1.228
REMARK  Name = 
REMARK  7 active torsions:
REMARK  status: ('A' for Active; 'I' for Inactive)
REMARK    1  A    between atoms: C_2  and  C_3
REMARK    2  A    between atoms: C_3  and  C_4
REMARK    3  A    between atoms: C_4  and  C_5
REMARK    4  A    between atoms: N_12  and  C_13
REMARK    5  A    between atoms: C_13  and  C_14
REMARK    6  A    between atoms: C_13  and  C_20
REMARK    7  A    between atoms: C_22  and  C_23
REMARK                            x       y       z     vdW  Elec       q    Type
REMARK                         _______ _______ _______ _____ _____    ______ ____
ROOT
ATOM      1  C   UNL     1       3.036   5.668  18.548  0.00  0.00    +0.000 C 
ENDROOT
BRANCH   1   2
ATOM      2  C   UNL     1       2.457   4.575  19.440  0.00  0.00    +0.000 A 
ATOM      3  C   UNL     1       2.875   4.403  20.769  0.00  0.00    +0.000 A 
ATOM      4  C   UNL     1       2.209   3.517  21.621  0.00  0.00    +0.000 A 
ATOM      5  C   UNL     1       1.123   2.782  21.154  0.00  0.00    +0.000 A 
ATOM      6  C   UNL     1       0.717   2.910  19.828  0.00  0.00    +0.000 A 
ATOM      7  C   UNL     1       1.382   3.795  18.976  0.00  0.00    +0.000 A 
ENDBRANCH   1   2
BRANCH   1  10
ATOM      8  O   UNL     1       3.607   8.369  17.802  0.00  0.00    +0.000 OA
ATOM      9  C   UNL     1       2.443   7.994  17.894  0.00  0.00    +0.000 C 
ATOM     10  N   UNL     1       2.081   6.723  18.270  0.00  0.00    +0.000 N 
ATOM     11  H   UNL     1       1.106   6.539  18.451  0.00  0.00    +0.000 HD
BRANCH   9  12
ATOM     12  C   UNL     1       1.257   8.909  17.609  0.00  0.00    +0.000 C 
BRANCH  12  13
ATOM     13  C   UNL     1       1.324  10.177  18.470  0.00  0.00    +0.000 C 
BRANCH  13  14
ATOM     14  C   UNL     1      -0.013  10.825  18.752  0.00  0.00    +0.000 A 
ATOM     15  C   UNL     1      -1.171  10.419  17.970  0.00  0.00    +0.000 A 
ATOM     16  C   UNL     1      -2.390  10.915  18.216  0.00  0.00    +0.000 A 
ATOM     17  C   UNL     1      -2.577  11.899  19.313  0.00  0.00    +0.000 A 
ATOM     18  O   UNL     1      -3.678  12.373  19.568  0.00  0.00    +0.000 OA
ATOM     19  N   UNL     1      -1.443  12.227  20.012  0.00  0.00    +0.000 N 
ATOM     20  C   UNL     1      -0.200  11.708  19.751  0.00  0.00    +0.000 A 
ATOM     21  H   UNL     1      -1.572  12.881  20.776  0.00  0.00    +0.000 HD
ENDBRANCH  13  14
ENDBRANCH  12  13
ENDBRANCH   9  12
ENDBRANCH   1  10
BRANCH   1  22
ATOM     22  C   UNL     1       3.612   5.004  17.303  0.00  0.00    +0.000 C 
ATOM     23  C   UNL     1       4.456   3.762  17.445  0.00  0.00    +0.000 C 
ATOM     24  C   UNL     1       5.049   4.978  16.776  0.00  0.00    +0.000 C 
BRANCH  24  25
ATOM     25  C   UNL     1       6.188   5.742  17.401  0.00  0.00    +0.000 A 
ATOM     26  C   UNL     1       6.911   5.255  18.502  0.00  0.00    +0.000 A 
ATOM     27  C   UNL     1       7.928   6.007  19.098  0.00  0.00    +0.000 A 
ATOM     28  C   UNL     1       8.250   7.264  18.595  0.00  0.00    +0.000 A 
ATOM     29  C   UNL     1       7.580   7.753  17.480  0.00  0.00    +0.000 A 
ATOM     30  C   UNL     1       6.578   6.988  16.879  0.00  0.00    +0.000 A 
ENDBRANCH  24  25
ENDBRANCH   1  22
TORSDOF 7
ENDMDL
MODEL 8
REMARK VINA RESULT:      -8.4      2.004      2.421
REMARK  Name = 
REMARK  7 active torsions:
REMARK  status: ('A' for Active; 'I' for Inactive)
REMARK    1  A    between atoms: C_2  and  C_3
REMARK    2  A    between atoms: C_3  and  C_4
REMARK    3  A    between atoms: C_4  and  C_5
REMARK    4  A    between atoms: N_12  and  C_13
REMARK    5  A    between atoms: C_13  and  C_14
REMARK    6  A    between atoms: C_13  and  C_20
REMARK    7  A    between atoms: C_22  and  C_23
REMARK                            x       y       z     vdW  Elec       q    Type
REMARK                         _______ _______ _______ _____ _____    ______ ____
ROOT
ATOM      1  C   UNL     1       3.114   5.781  18.394  0.00  0.00    +0.000 C 
ENDROOT
BRANCH   1   2
ATOM      2  C   UNL     1       2.304   4.811  19.248  0.00  0.00    +0.000 A 
ATOM      3  C   UNL     1       1.388   3.910  18.682  0.00  0.00    +0.000 A 
ATOM      4  C   UNL     1       0.790   2.913  19.458  0.00  0.00    +0.000 A 
ATOM      5  C   UNL     1       1.092   2.806  20.813  0.00  0.00    +0.000 A 
ATOM      6  C   UNL     1       1.969   3.714  21.401  0.00  0.00    +0.000 A 
ATOM      7  C   UNL     1       2.566   4.711  20.627  0.00  0.00    +0.000 A 
ENDBRANCH   1   2
BRANCH   1  10
ATOM      8  O   UNL     1       2.249   8.026  19.938  0.00  0.00    +0.000 OA
ATOM      9  C   UNL     1       1.973   7.963  18.745  0.00  0.00    +0.000 C 
ATOM     10  N   UNL     1       2.327   6.910  17.937  0.00  0.00    +0.000 N 
ATOM     11  H   UNL     1       1.945   6.874  17.005  0.00  0.00    +0.000 HD
BRANCH   9  12
ATOM     12  C   UNL     1       1.189   9.052  18.021  0.00  0.00    +0.000 C 
BRANCH  12  13
ATOM     13  C   UNL     1       0.461   9.959  19.021  0.00  0.00    +0.000 C 
BRANCH  13  14
ATOM     14  C   UNL     1       0.956  11.387  19.061  0.00  0.00    +0.000 A 
ATOM     15  C   UNL     1       2.131  11.747  18.280  0.00  0.00    +0.000 A 
ATOM     16  C   UNL     1       2.578  13.007  18.231  0.00  0.00    +0.000 A 
ATOM     17  C   UNL     1       1.864  14.074  18.979  0.00  0.00    +0.000 A 
ATOM     18  O   UNL     1       2.243  15.238  18.955  0.00  0.00    +0.000 OA
ATOM     19  N   UNL     1       0.761  13.662  19.684  0.00  0.00    +0.000 N 
ATOM     20  C   UNL     1       0.312  12.366  19.724  0.00  0.00    +0.000 A 
ATOM     21  H   UNL     1       0.258  14.391  20.177  0.00  0.00    +0.000 HD
ENDBRANCH  13  14
ENDBRANCH  12  13
ENDBRANCH   9  12
ENDBRANCH   1  10
BRANCH   1  22
ATOM     22  C   UNL     1       3.772   4.984  17.274  0.00  0.00    +0.000 C 
ATOM     23  C   UNL     1       4.602   3.770  17.611  0.00  0.00    +0.000 C 
ATOM     24  C   UNL     1       5.242   4.908  16.852  0.00  0.00    +0.000 C 
BRANCH  24  25
ATOM     25  C   UNL     1       6.337   5.743  17.463  0.00  0.00    +0.000 A 
ATOM     26  C   UNL     1       7.086   5.315  18.572  0.00  0.00    +0.000 A 
ATOM     27  C   UNL     1       8.060   6.131  19.154  0.00  0.00    +0.000 A 
ATOM     28  C   UNL     1       8.313   7.396  18.630  0.00  0.00    +0.000 A 
ATOM     29  C   UNL     1       7.616   7.829  17.507  0.00  0.00    +0.000 A 
ATOM     30  C   UNL     1       6.657   7.000  16.920  0.00  0.00    +0.000 A 
ENDBRANCH  24  25
ENDBRANCH   1  22
TORSDOF 7
ENDMDL
MODEL 9
REMARK VINA RESULT:      -8.3      0.984      1.322
REMARK  Name = 
REMARK  7 active torsions:
REMARK  status: ('A' for Active; 'I' for Inactive)
REMARK    1  A    between atoms: C_2  and  C_3
REMARK    2  A    between atoms: C_3  and  C_4
REMARK    3  A    between atoms: C_4  and  C_5
REMARK    4  A    between atoms: N_12  and  C_13
REMARK    5  A    between atoms: C_13  and  C_14
REMARK    6  A    between atoms: C_13  and  C_20
REMARK    7  A    between atoms: C_22  and  C_23
REMARK                            x       y       z     vdW  Elec       q    Type
REMARK                         _______ _______ _______ _____ _____    ______ ____
ROOT
ATOM      1  C   UNL     1       2.868   6.094  19.400  0.00  0.00    +0.000 C 
ENDROOT
BRANCH   1   2
ATOM      2  C   UNL     1       2.434   4.754  19.987  0.00  0.00    +0.000 A 
ATOM      3  C   UNL     1       3.298   3.973  20.769  0.00  0.00    +0.000 A 
ATOM      4  C   UNL     1       2.829   2.841  21.443  0.00  0.00    +0.000 A 
ATOM      5  C   UNL     1       1.492   2.469  21.336  0.00  0.00    +0.000 A 
ATOM      6  C   UNL     1       0.628   3.210  20.534  0.00  0.00    +0.000 A 
ATOM      7  C   UNL     1       1.096   4.340  19.860  0.00  0.00    +0.000 A 
ENDBRANCH   1   2
BRANCH   1  10
ATOM      8  O   UNL     1       2.659   8.658  18.153  0.00  0.00    +0.000 OA
ATOM      9  C   UNL     1       1.921   8.373  19.090  0.00  0.00    +0.000 C 
ATOM     10  N   UNL     1       1.972   7.176  19.760  0.00  0.00    +0.000 N 
ATOM     11  H   UNL     1       1.425   7.077  20.601  0.00  0.00    +0.000 HD
BRANCH   9  12
ATOM     12  C   UNL     1       0.863   9.331  19.627  0.00  0.00    +0.000 C 
BRANCH  12  13
ATOM     13  C   UNL     1       0.720  10.556  18.716  0.00  0.00    +0.000 C 
BRANCH  13  14
ATOM     14  C   UNL     1      -0.694  10.856  18.271  0.00  0.00    +0.000 A 
ATOM     15  C   UNL     1      -1.400   9.874  17.460  0.00  0.00    +0.000 A 
ATOM     16  C   UNL     1      -2.672  10.060  17.088  0.00  0.00    +0.000 A 
ATOM     17  C   UNL     1      -3.393  11.288  17.512  0.00  0.00    +0.000 A 
ATOM     18  O   UNL     1      -4.557  11.490  17.192  0.00  0.00    +0.000 OA
ATOM     19  N   UNL     1      -2.667  12.162  18.281  0.00  0.00    +0.000 N 
ATOM     20  C   UNL     1      -1.363  11.958  18.658  0.00  0.00    +0.000 A 
ATOM     21  H   UNL     1      -3.163  12.990  18.591  0.00  0.00    +0.000 HD
ENDBRANCH  13  14
ENDBRANCH  12  13
ENDBRANCH   9  12
ENDBRANCH   1  10
BRANCH   1  22
ATOM     22  C   UNL     1       3.054   5.912  17.898  0.00  0.00    +0.000 C 
ATOM     23  C   UNL     1       3.619   4.617  17.369  0.00  0.00    +0.000 C 
ATOM     24  C   UNL     1       4.333   5.911  17.057  0.00  0.00    +0.000 C 
BRANCH  24  25
ATOM     25  C   UNL     1       5.703   6.206  17.609  0.00  0.00    +0.000 A 
ATOM     26  C   UNL     1       6.308   5.412  18.598  0.00  0.00    +0.000 A 
ATOM     27  C   UNL     1       7.557   5.739  19.134  0.00  0.00    +0.000 A 
ATOM     28  C   UNL     1       8.235   6.867  18.681  0.00  0.00    +0.000 A 
ATOM     29  C   UNL     1       7.680   7.647  17.673  0.00  0.00    +0.000 A 
ATOM     30  C   UNL     1       6.440   7.304  17.130  0.00  0.00    +0.000 A 
ENDBRANCH  24  25
ENDBRANCH   1  22
TORSDOF 7
ENDMDL
