MODEL 1
REMARK VINA RESULT:      -8.3      0.000      0.000
REMARK  Name = 
REMARK  7 active torsions:
REMARK  status: ('A' for Active; 'I' for Inactive)
REMARK    1  A    between atoms: C_1  and  C_2
REMARK    2  A    between atoms: C_2  and  C_3
REMARK    3  A    between atoms: C_3  and  C_4
REMARK    4  A    between atoms: N_13  and  C_14
REMARK    5  A    between atoms: C_14  and  C_15
REMARK    6  A    between atoms: C_22  and  C_23
REMARK    7  A    between atoms: C_24  and  C_25
REMARK                            x       y       z     vdW  Elec       q    Type
REMARK                         _______ _______ _______ _____ _____    ______ ____
ROOT
ATOM      1  C   UNL     1       6.235   4.819  16.236  0.00  0.00    +0.000 C 
ATOM      2  N   UNL     1       5.953   3.491  16.744  0.00  0.00    +0.000 N 
ATOM      3  C   UNL     1       4.642   3.370  17.186  0.00  0.00    +0.000 C 
ATOM      4  O   UNL     1       4.246   2.410  17.839  0.00  0.00    +0.000 OA
ATOM      5  N   UNL     1       3.947   4.446  16.767  0.00  0.00    +0.000 N 
ATOM      6  C   UNL     1       4.771   5.298  16.080  0.00  0.00    +0.000 C 
ATOM      7  O   UNL     1       4.407   6.313  15.496  0.00  0.00    +0.000 OA
ATOM      8  H   UNL     1       6.653   2.820  17.043  0.00  0.00    +0.000 HD
ENDROOT
BRANCH   1   9
ATOM      9  C   UNL     1       6.952   5.688  17.284  0.00  0.00    +0.000 A 
ATOM     10  C   UNL     1       7.384   5.120  18.500  0.00  0.00    +0.000 A 
ATOM     11  C   UNL     1       8.146   5.852  19.410  0.00  0.00    +0.000 A 
ATOM     12  C   UNL     1       8.456   7.181  19.147  0.00  0.00    +0.000 A 
ATOM     13  C   UNL     1       7.969   7.786  17.992  0.00  0.00    +0.000 A 
ATOM     14  C   UNL     1       7.213   7.052  17.073  0.00  0.00    +0.000 A 
ENDBRANCH   1   9
BRANCH   1  16
ATOM     15  C   UNL     1       6.362   4.047  13.769  0.00  0.00    +0.000 C 
ATOM     16  C   UNL     1       7.015   4.818  14.913  0.00  0.00    +0.000 C 
ENDBRANCH   1  16
BRANCH   5  17
ATOM     17  C   UNL     1       2.556   4.755  17.073  0.00  0.00    +0.000 C 
BRANCH  17  18
ATOM     18  C   UNL     1       2.311   5.086  18.537  0.00  0.00    +0.000 A 
ATOM     19  C   UNL     1       1.687   4.236  19.377  0.00  0.00    +0.000 A 
ATOM     20  C   UNL     1       1.802   4.348  20.832  0.00  0.00    +0.000 A 
ATOM     21  O   UNL     1       1.713   3.353  21.547  0.00  0.00    +0.000 OA
ATOM     22  O   UNL     1       2.061   5.595  21.337  0.00  0.00    +0.000 OA
ATOM     23  C   UNL     1       2.003   6.642  20.416  0.00  0.00    +0.000 A 
ATOM     24  C   UNL     1       1.411   7.809  20.880  0.00  0.00    +0.000 A 
ATOM     25  C   UNL     1       1.194   8.871  20.023  0.00  0.00    +0.000 A 
ATOM     26  C   UNL     1       0.247   9.947  20.445  0.00  0.00    +0.000 C 
ATOM     27  C   UNL     1       1.814   8.838  18.752  0.00  0.00    +0.000 A 
ATOM     28  C   UNL     1       1.917  10.083  17.910  0.00  0.00    +0.000 C 
ATOM     29  C   UNL     1       2.379   7.632  18.282  0.00  0.00    +0.000 A 
ATOM     30  C   UNL     1       2.359   6.476  19.069  0.00  0.00    +0.000 A 
ENDBRANCH  17  18
ENDBRANCH   5  17
TORSDOF 4
ENDMDL
MODEL 2
REMARK VINA RESULT:      -7.8      2.769      7.165
REMARK  Name = 
REMARK  7 active torsions:
REMARK  status: ('A' for Active; 'I' for Inactive)
REMARK    1  A    between atoms: C_1  and  C_2
REMARK    2  A    between atoms: C_2  and  C_3
REMARK    3  A    between atoms: C_3  and  C_4
REMARK    4  A    between atoms: N_13  and  C_14
REMARK    5  A    between atoms: C_14  and  C_15
REMARK    6  A    between atoms: C_22  and  C_23
REMARK    7  A    between atoms: C_24  and  C_25
REMARK                            x       y       z     vdW  Elec       q    Type
REMARK                         _______ _______ _______ _____ _____    ______ ____
ROOT
ATOM      1  C   UNL     1       0.011  10.393  19.046  0.00  0.00    +0.000 C 
ATOM      2  N   UNL     1       0.664  10.106  17.784  0.00  0.00    +0.000 N 
ATOM      3  C   UNL     1       1.671   9.160  17.923  0.00  0.00    +0.000 C 
ATOM      4  O   UNL     1       2.486   8.920  17.037  0.00  0.00    +0.000 OA
ATOM      5  N   UNL     1       1.565   8.595  19.142  0.00  0.00    +0.000 N 
ATOM      6  C   UNL     1       0.527   9.164  19.833  0.00  0.00    +0.000 C 
ATOM      7  O   UNL     1       0.125   8.794  20.931  0.00  0.00    +0.000 OA
ATOM      8  H   UNL     1       0.640  10.705  16.965  0.00  0.00    +0.000 HD
ENDROOT
BRANCH   1   9
ATOM      9  C   UNL     1       0.555  11.681  19.688  0.00  0.00    +0.000 A 
ATOM     10  C   UNL     1      -0.109  12.261  20.787  0.00  0.00    +0.000 A 
ATOM     11  C   UNL     1       0.431  13.353  21.466  0.00  0.00    +0.000 A 
ATOM     12  C   UNL     1       1.624  13.919  21.034  0.00  0.00    +0.000 A 
ATOM     13  C   UNL     1       2.255  13.415  19.899  0.00  0.00    +0.000 A 
ATOM     14  C   UNL     1       1.721  12.314  19.223  0.00  0.00    +0.000 A 
ENDBRANCH   1   9
BRANCH   1  16
ATOM     15  C   UNL     1      -2.103  10.054  17.592  0.00  0.00    +0.000 C 
ATOM     16  C   UNL     1      -1.521  10.447  18.947  0.00  0.00    +0.000 C 
ENDBRANCH   1  16
BRANCH   5  17
ATOM     17  C   UNL     1       2.465   7.607  19.725  0.00  0.00    +0.000 C 
BRANCH  17  18
ATOM     18  C   UNL     1       2.658   6.372  18.859  0.00  0.00    +0.000 A 
ATOM     19  C   UNL     1       2.029   5.206  19.109  0.00  0.00    +0.000 A 
ATOM     20  C   UNL     1       1.878   4.163  18.094  0.00  0.00    +0.000 A 
ATOM     21  O   UNL     1       0.917   3.399  18.117  0.00  0.00    +0.000 OA
ATOM     22  O   UNL     1       2.826   4.123  17.105  0.00  0.00    +0.000 OA
ATOM     23  C   UNL     1       3.923   4.966  17.288  0.00  0.00    +0.000 A 
ATOM     24  C   UNL     1       5.152   4.427  16.934  0.00  0.00    +0.000 A 
ATOM     25  C   UNL     1       6.319   5.125  17.179  0.00  0.00    +0.000 A 
ATOM     26  C   UNL     1       7.617   4.387  17.128  0.00  0.00    +0.000 C 
ATOM     27  C   UNL     1       6.215   6.486  17.551  0.00  0.00    +0.000 A 
ATOM     28  C   UNL     1       7.413   7.397  17.496  0.00  0.00    +0.000 C 
ATOM     29  C   UNL     1       4.961   7.008  17.942  0.00  0.00    +0.000 A 
ATOM     30  C   UNL     1       3.817   6.204  17.939  0.00  0.00    +0.000 A 
ENDBRANCH  17  18
ENDBRANCH   5  17
TORSDOF 4
ENDMDL
MODEL 3
REMARK VINA RESULT:      -7.7      2.774      7.239
REMARK  Name = 
REMARK  7 active torsions:
REMARK  status: ('A' for Active; 'I' for Inactive)
REMARK    1  A    between atoms: C_1  and  C_2
REMARK    2  A    between atoms: C_2  and  C_3
REMARK    3  A    between atoms: C_3  and  C_4
REMARK    4  A    between atoms: N_13  and  C_14
REMARK    5  A    between atoms: C_14  and  C_15
REMARK    6  A    between atoms: C_22  and  C_23
REMARK    7  A    between atoms: C_24  and  C_25
REMARK                            x       y       z     vdW  Elec       q    Type
REMARK                         _______ _______ _______ _____ _____    ______ ____
ROOT
ATOM      1  C   UNL     1      -0.143  10.417  19.329  0.00  0.00    +0.000 C 
ATOM      2  N   UNL     1       0.571  10.244  18.079  0.00  0.00    +0.000 N 
ATOM      3  C   UNL     1       1.625   9.348  18.201  0.00  0.00    +0.000 C 
ATOM      4  O   UNL     1       2.484   9.209  17.336  0.00  0.00    +0.000 OA
ATOM      5  N   UNL     1       1.509   8.706  19.380  0.00  0.00    +0.000 N 
ATOM      6  C   UNL     1       0.416   9.173  20.062  0.00  0.00    +0.000 C 
ATOM      7  O   UNL     1      -0.004   8.715  21.120  0.00  0.00    +0.000 OA
ATOM      8  H   UNL     1       0.542  10.889  17.297  0.00  0.00    +0.000 HD
ENDROOT
BRANCH   1   9
ATOM      9  C   UNL     1       0.303  11.692  20.066  0.00  0.00    +0.000 A 
ATOM     10  C   UNL     1       1.402  12.437  19.592  0.00  0.00    +0.000 A 
ATOM     11  C   UNL     1       1.748  13.661  20.164  0.00  0.00    +0.000 A 
ATOM     12  C   UNL     1       1.032  14.147  21.252  0.00  0.00    +0.000 A 
ATOM     13  C   UNL     1      -0.004  13.387  21.790  0.00  0.00    +0.000 A 
ATOM     14  C   UNL     1      -0.360  12.165  21.211  0.00  0.00    +0.000 A 
ENDBRANCH   1   9
BRANCH   1  16
ATOM     15  C   UNL     1      -2.179  10.082  17.769  0.00  0.00    +0.000 C 
ATOM     16  C   UNL     1      -1.670  10.392  19.173  0.00  0.00    +0.000 C 
ENDBRANCH   1  16
BRANCH   5  17
ATOM     17  C   UNL     1       2.443   7.736  19.939  0.00  0.00    +0.000 C 
BRANCH  17  18
ATOM     18  C   UNL     1       2.238   6.322  19.418  0.00  0.00    +0.000 A 
ATOM     19  C   UNL     1       1.841   5.308  20.214  0.00  0.00    +0.000 A 
ATOM     20  C   UNL     1       1.257   4.076  19.681  0.00  0.00    +0.000 A 
ATOM     21  O   UNL     1       0.448   3.429  20.340  0.00  0.00    +0.000 OA
ATOM     22  O   UNL     1       1.618   3.723  18.407  0.00  0.00    +0.000 OA
ATOM     23  C   UNL     1       2.642   4.481  17.839  0.00  0.00    +0.000 A 
ATOM     24  C   UNL     1       3.569   3.765  17.095  0.00  0.00    +0.000 A 
ATOM     25  C   UNL     1       4.689   4.392  16.582  0.00  0.00    +0.000 A 
ATOM     26  C   UNL     1       5.828   3.547  16.111  0.00  0.00    +0.000 C 
ATOM     27  C   UNL     1       4.733   5.805  16.611  0.00  0.00    +0.000 A 
ATOM     28  C   UNL     1       5.730   6.566  15.777  0.00  0.00    +0.000 C 
ATOM     29  C   UNL     1       3.803   6.516  17.403  0.00  0.00    +0.000 A 
ATOM     30  C   UNL     1       2.821   5.841  18.136  0.00  0.00    +0.000 A 
ENDBRANCH  17  18
ENDBRANCH   5  17
TORSDOF 4
ENDMDL
MODEL 4
REMARK VINA RESULT:      -7.7      1.258      3.292
REMARK  Name = 
REMARK  7 active torsions:
REMARK  status: ('A' for Active; 'I' for Inactive)
REMARK    1  A    between atoms: C_1  and  C_2
REMARK    2  A    between atoms: C_2  and  C_3
REMARK    3  A    between atoms: C_3  and  C_4
REMARK    4  A    between atoms: N_13  and  C_14
REMARK    5  A    between atoms: C_14  and  C_15
REMARK    6  A    between atoms: C_22  and  C_23
REMARK    7  A    between atoms: C_24  and  C_25
REMARK                            x       y       z     vdW  Elec       q    Type
REMARK                         _______ _______ _______ _____ _____    ______ ____
ROOT
ATOM      1  C   UNL     1       6.411   4.986  16.189  0.00  0.00    +0.000 C 
ATOM      2  N   UNL     1       6.171   6.399  16.404  0.00  0.00    +0.000 N 
ATOM      3  C   UNL     1       4.839   6.664  16.693  0.00  0.00    +0.000 C 
ATOM      4  O   UNL     1       4.373   7.798  16.706  0.00  0.00    +0.000 OA
ATOM      5  N   UNL     1       4.215   5.496  16.947  0.00  0.00    +0.000 N 
ATOM      6  C   UNL     1       5.094   4.455  16.805  0.00  0.00    +0.000 C 
ATOM      7  O   UNL     1       4.845   3.282  17.064  0.00  0.00    +0.000 OA
ATOM      8  H   UNL     1       6.781   7.148  16.093  0.00  0.00    +0.000 HD
ENDROOT
BRANCH   1   9
ATOM      9  C   UNL     1       6.454   4.639  14.690  0.00  0.00    +0.000 A 
ATOM     10  C   UNL     1       7.479   5.155  13.872  0.00  0.00    +0.000 A 
ATOM     11  C   UNL     1       7.615   4.757  12.543  0.00  0.00    +0.000 A 
ATOM     12  C   UNL     1       6.703   3.868  11.987  0.00  0.00    +0.000 A 
ATOM     13  C   UNL     1       5.633   3.410  12.753  0.00  0.00    +0.000 A 
ATOM     14  C   UNL     1       5.501   3.800  14.089  0.00  0.00    +0.000 A 
ENDBRANCH   1   9
BRANCH   1  16
ATOM     15  C   UNL     1       7.840   4.916  18.345  0.00  0.00    +0.000 C 
ATOM     16  C   UNL     1       7.667   4.460  16.899  0.00  0.00    +0.000 C 
ENDBRANCH   1  16
BRANCH   5  17
ATOM     17  C   UNL     1       2.796   5.311  17.222  0.00  0.00    +0.000 C 
BRANCH  17  18
ATOM     18  C   UNL     1       2.431   5.482  18.688  0.00  0.00    +0.000 A 
ATOM     19  C   UNL     1       1.870   4.494  19.415  0.00  0.00    +0.000 A 
ATOM     20  C   UNL     1       1.889   4.492  20.879  0.00  0.00    +0.000 A 
ATOM     21  O   UNL     1       1.884   3.435  21.505  0.00  0.00    +0.000 OA
ATOM     22  O   UNL     1       1.964   5.712  21.497  0.00  0.00    +0.000 OA
ATOM     23  C   UNL     1       1.828   6.821  20.660  0.00  0.00    +0.000 A 
ATOM     24  C   UNL     1       1.072   7.865  21.175  0.00  0.00    +0.000 A 
ATOM     25  C   UNL     1       0.773   8.964  20.393  0.00  0.00    +0.000 A 
ATOM     26  C   UNL     1      -0.321   9.880  20.836  0.00  0.00    +0.000 C 
ATOM     27  C   UNL     1       1.462   9.116  19.167  0.00  0.00    +0.000 A 
ATOM     28  C   UNL     1       1.458  10.432  18.435  0.00  0.00    +0.000 C 
ATOM     29  C   UNL     1       2.198   8.030  18.641  0.00  0.00    +0.000 A 
ATOM     30  C   UNL     1       2.277   6.816  19.331  0.00  0.00    +0.000 A 
ENDBRANCH  17  18
ENDBRANCH   5  17
TORSDOF 4
ENDMDL
MODEL 5
REMARK VINA RESULT:      -7.4      3.011      7.700
REMARK  Name = 
REMARK  7 active torsions:
REMARK  status: ('A' for Active; 'I' for Inactive)
REMARK    1  A    between atoms: C_1  and  C_2
REMARK    2  A    between atoms: C_2  and  C_3
REMARK    3  A    between atoms: C_3  and  C_4
REMARK    4  A    between atoms: N_13  and  C_14
REMARK    5  A    between atoms: C_14  and  C_15
REMARK    6  A    between atoms: C_22  and  C_23
REMARK    7  A    between atoms: C_24  and  C_25
REMARK                            x       y       z     vdW  Elec       q    Type
REMARK                         _______ _______ _______ _____ _____    ______ ____
ROOT
ATOM      1  C   UNL     1       1.011  10.890  19.497  0.00  0.00    +0.000 C 
ATOM      2  N   UNL     1       1.107   9.998  20.635  0.00  0.00    +0.000 N 
ATOM      3  C   UNL     1       1.294   8.677  20.248  0.00  0.00    +0.000 C 
ATOM      4  O   UNL     1       1.194   7.735  21.027  0.00  0.00    +0.000 OA
ATOM      5  N   UNL     1       1.594   8.654  18.934  0.00  0.00    +0.000 N 
ATOM      6  C   UNL     1       1.584   9.927  18.428  0.00  0.00    +0.000 C 
ATOM      7  O   UNL     1       1.912  10.235  17.287  0.00  0.00    +0.000 OA
ATOM      8  H   UNL     1       0.780  10.210  21.572  0.00  0.00    +0.000 HD
ENDROOT
BRANCH   1   9
ATOM      9  C   UNL     1      -0.452  11.223  19.158  0.00  0.00    +0.000 A 
ATOM     10  C   UNL     1      -1.069  10.642  18.032  0.00  0.00    +0.000 A 
ATOM     11  C   UNL     1      -2.427  10.827  17.774  0.00  0.00    +0.000 A 
ATOM     12  C   UNL     1      -3.190  11.633  18.610  0.00  0.00    +0.000 A 
ATOM     13  C   UNL     1      -2.582  12.285  19.681  0.00  0.00    +0.000 A 
ATOM     14  C   UNL     1      -1.224  12.093  19.947  0.00  0.00    +0.000 A 
ENDBRANCH   1   9
BRANCH   1  16
ATOM     15  C   UNL     1       1.679  13.194  18.526  0.00  0.00    +0.000 C 
ATOM     16  C   UNL     1       1.834  12.177  19.654  0.00  0.00    +0.000 C 
ENDBRANCH   1  16
BRANCH   5  17
ATOM     17  C   UNL     1       1.794   7.469  18.109  0.00  0.00    +0.000 C 
BRANCH  17  18
ATOM     18  C   UNL     1       3.189   6.874  18.225  0.00  0.00    +0.000 A 
ATOM     19  C   UNL     1       4.125   7.030  17.266  0.00  0.00    +0.000 A 
ATOM     20  C   UNL     1       5.551   6.830  17.525  0.00  0.00    +0.000 A 
ATOM     21  O   UNL     1       6.398   7.449  16.885  0.00  0.00    +0.000 OA
ATOM     22  O   UNL     1       5.880   5.968  18.537  0.00  0.00    +0.000 OA
ATOM     23  C   UNL     1       4.818   5.243  19.080  0.00  0.00    +0.000 A 
ATOM     24  C   UNL     1       5.095   3.915  19.376  0.00  0.00    +0.000 A 
ATOM     25  C   UNL     1       4.090   3.071  19.809  0.00  0.00    +0.000 A 
ATOM     26  C   UNL     1       4.328   1.597  19.769  0.00  0.00    +0.000 C 
ATOM     27  C   UNL     1       2.853   3.646  20.185  0.00  0.00    +0.000 A 
ATOM     28  C   UNL     1       1.846   2.861  20.982  0.00  0.00    +0.000 C 
ATOM     29  C   UNL     1       2.576   4.989  19.844  0.00  0.00    +0.000 A 
ATOM     30  C   UNL     1       3.519   5.766  19.162  0.00  0.00    +0.000 A 
ENDBRANCH  17  18
ENDBRANCH   5  17
TORSDOF 4
ENDMDL
MODEL 6
REMARK VINA RESULT:      -7.4      2.935      7.720
REMARK  Name = 
REMARK  7 active torsions:
REMARK  status: ('A' for Active; 'I' for Inactive)
REMARK    1  A    between atoms: C_1  and  C_2
REMARK    2  A    between atoms: C_2  and  C_3
REMARK    3  A    between atoms: C_3  and  C_4
REMARK    4  A    between atoms: N_13  and  C_14
REMARK    5  A    between atoms: C_14  and  C_15
REMARK    6  A    between atoms: C_22  and  C_23
REMARK    7  A    between atoms: C_24  and  C_25
REMARK                            x       y       z     vdW  Elec       q    Type
REMARK                         _______ _______ _______ _____ _____    ______ ____
ROOT
ATOM      1  C   UNL     1       0.977  10.814  19.691  0.00  0.00    +0.000 C 
ATOM      2  N   UNL     1       1.137   9.797  20.711  0.00  0.00    +0.000 N 
ATOM      3  C   UNL     1       1.360   8.540  20.164  0.00  0.00    +0.000 C 
ATOM      4  O   UNL     1       1.318   7.509  20.827  0.00  0.00    +0.000 OA
ATOM      5  N   UNL     1       1.623   8.685  18.850  0.00  0.00    +0.000 N 
ATOM      6  C   UNL     1       1.552  10.008  18.501  0.00  0.00    +0.000 C 
ATOM      7  O   UNL     1       1.836  10.461  17.397  0.00  0.00    +0.000 OA
ATOM      8  H   UNL     1       0.830   9.884  21.675  0.00  0.00    +0.000 HD
ENDROOT
BRANCH   1   9
ATOM      9  C   UNL     1      -0.507  11.127  19.430  0.00  0.00    +0.000 A 
ATOM     10  C   UNL     1      -1.212  11.987  20.296  0.00  0.00    +0.000 A 
ATOM     11  C   UNL     1      -2.518  12.388  20.014  0.00  0.00    +0.000 A 
ATOM     12  C   UNL     1      -3.164  11.903  18.882  0.00  0.00    +0.000 A 
ATOM     13  C   UNL     1      -2.515  10.987  18.058  0.00  0.00    +0.000 A 
ATOM     14  C   UNL     1      -1.203  10.592  18.333  0.00  0.00    +0.000 A 
ENDBRANCH   1   9
BRANCH   1  16
ATOM     15  C   UNL     1       1.775  13.126  18.847  0.00  0.00    +0.000 C 
ATOM     16  C   UNL     1       1.757  12.105  19.980  0.00  0.00    +0.000 C 
ENDBRANCH   1  16
BRANCH   5  17
ATOM     17  C   UNL     1       1.842   7.615  17.885  0.00  0.00    +0.000 C 
BRANCH  17  18
ATOM     18  C   UNL     1       3.163   6.886  18.071  0.00  0.00    +0.000 A 
ATOM     19  C   UNL     1       4.248   7.146  17.312  0.00  0.00    +0.000 A 
ATOM     20  C   UNL     1       5.600   6.770  17.724  0.00  0.00    +0.000 A 
ATOM     21  O   UNL     1       6.573   7.427  17.359  0.00  0.00    +0.000 OA
ATOM     22  O   UNL     1       5.713   5.697  18.568  0.00  0.00    +0.000 OA
ATOM     23  C   UNL     1       4.538   4.977  18.787  0.00  0.00    +0.000 A 
ATOM     24  C   UNL     1       4.686   3.598  18.833  0.00  0.00    +0.000 A 
ATOM     25  C   UNL     1       3.578   2.778  18.928  0.00  0.00    +0.000 A 
ATOM     26  C   UNL     1       3.734   1.326  18.612  0.00  0.00    +0.000 C 
ATOM     27  C   UNL     1       2.333   3.375  19.236  0.00  0.00    +0.000 A 
ATOM     28  C   UNL     1       1.167   2.540  19.695  0.00  0.00    +0.000 C 
ATOM     29  C   UNL     1       2.192   4.778  19.149  0.00  0.00    +0.000 A 
ATOM     30  C   UNL     1       3.275   5.588  18.791  0.00  0.00    +0.000 A 
ENDBRANCH  17  18
ENDBRANCH   5  17
TORSDOF 4
ENDMDL
MODEL 7
REMARK VINA RESULT:      -7.2      6.403      9.793
REMARK  Name = 
REMARK  7 active torsions:
REMARK  status: ('A' for Active; 'I' for Inactive)
REMARK    1  A    between atoms: C_1  and  C_2
REMARK    2  A    between atoms: C_2  and  C_3
REMARK    3  A    between atoms: C_3  and  C_4
REMARK    4  A    between atoms: N_13  and  C_14
REMARK    5  A    between atoms: C_14  and  C_15
REMARK    6  A    between atoms: C_22  and  C_23
REMARK    7  A    between atoms: C_24  and  C_25
REMARK                            x       y       z     vdW  Elec       q    Type
REMARK                         _______ _______ _______ _____ _____    ______ ____
ROOT
ATOM      1  C   UNL     1      -0.493  10.842  19.045  0.00  0.00    +0.000 C 
ATOM      2  N   UNL     1      -1.065   9.791  18.227  0.00  0.00    +0.000 N 
ATOM      3  C   UNL     1      -2.360  10.090  17.826  0.00  0.00    +0.000 C 
ATOM      4  O   UNL     1      -3.104   9.263  17.307  0.00  0.00    +0.000 OA
ATOM      5  N   UNL     1      -2.606  11.387  18.099  0.00  0.00    +0.000 N 
ATOM      6  C   UNL     1      -1.513  11.954  18.700  0.00  0.00    +0.000 C 
ATOM      7  O   UNL     1      -1.400  13.144  18.977  0.00  0.00    +0.000 OA
ATOM      8  H   UNL     1      -0.730   8.834  18.189  0.00  0.00    +0.000 HD
ENDROOT
BRANCH   1   9
ATOM      9  C   UNL     1      -0.585  10.508  20.544  0.00  0.00    +0.000 A 
ATOM     10  C   UNL     1      -0.147   9.256  21.020  0.00  0.00    +0.000 A 
ATOM     11  C   UNL     1      -0.101   8.974  22.385  0.00  0.00    +0.000 A 
ATOM     12  C   UNL     1      -0.533   9.923  23.304  0.00  0.00    +0.000 A 
ATOM     13  C   UNL     1      -1.048  11.135  22.853  0.00  0.00    +0.000 A 
ATOM     14  C   UNL     1      -1.086  11.423  21.486  0.00  0.00    +0.000 A 
ENDBRANCH   1   9
BRANCH   1  16
ATOM     15  C   UNL     1       1.763  10.075  18.036  0.00  0.00    +0.000 C 
ATOM     16  C   UNL     1       0.949  11.204  18.662  0.00  0.00    +0.000 C 
ENDBRANCH   1  16
BRANCH   5  17
ATOM     17  C   UNL     1      -3.867  12.092  17.906  0.00  0.00    +0.000 C 
BRANCH  17  18
ATOM     18  C   UNL     1      -4.941  11.709  18.912  0.00  0.00    +0.000 A 
ATOM     19  C   UNL     1      -6.003  10.946  18.583  0.00  0.00    +0.000 A 
ATOM     20  C   UNL     1      -6.803  10.243  19.586  0.00  0.00    +0.000 A 
ATOM     21  O   UNL     1      -7.377   9.193  19.308  0.00  0.00    +0.000 OA
ATOM     22  O   UNL     1      -6.832  10.785  20.844  0.00  0.00    +0.000 OA
ATOM     23  C   UNL     1      -6.243  12.044  20.971  0.00  0.00    +0.000 A 
ATOM     24  C   UNL     1      -6.919  12.936  21.792  0.00  0.00    +0.000 A 
ATOM     25  C   UNL     1      -6.493  14.246  21.901  0.00  0.00    +0.000 A 
ATOM     26  C   UNL     1      -7.427  15.255  22.487  0.00  0.00    +0.000 C 
ATOM     27  C   UNL     1      -5.225  14.580  21.372  0.00  0.00    +0.000 A 
ATOM     28  C   UNL     1      -4.545  15.870  21.747  0.00  0.00    +0.000 C 
ATOM     29  C   UNL     1      -4.568  13.674  20.509  0.00  0.00    +0.000 A 
ATOM     30  C   UNL     1      -5.143  12.438  20.194  0.00  0.00    +0.000 A 
ENDBRANCH  17  18
ENDBRANCH   5  17
TORSDOF 4
ENDMDL
MODEL 8
REMARK VINA RESULT:      -7.1      6.322      9.741
REMARK  Name = 
REMARK  7 active torsions:
REMARK  status: ('A' for Active; 'I' for Inactive)
REMARK    1  A    between atoms: C_1  and  C_2
REMARK    2  A    between atoms: C_2  and  C_3
REMARK    3  A    between atoms: C_3  and  C_4
REMARK    4  A    between atoms: N_13  and  C_14
REMARK    5  A    between atoms: C_14  and  C_15
REMARK    6  A    between atoms: C_22  and  C_23
REMARK    7  A    between atoms: C_24  and  C_25
REMARK                            x       y       z     vdW  Elec       q    Type
REMARK                         _______ _______ _______ _____ _____    ______ ____
ROOT
ATOM      1  C   UNL     1      -0.434  10.697  19.057  0.00  0.00    +0.000 C 
ATOM      2  N   UNL     1      -1.189   9.667  18.373  0.00  0.00    +0.000 N 
ATOM      3  C   UNL     1      -2.479  10.081  18.068  0.00  0.00    +0.000 C 
ATOM      4  O   UNL     1      -3.351   9.311  17.680  0.00  0.00    +0.000 OA
ATOM      5  N   UNL     1      -2.560  11.412  18.266  0.00  0.00    +0.000 N 
ATOM      6  C   UNL     1      -1.361  11.892  18.724  0.00  0.00    +0.000 C 
ATOM      7  O   UNL     1      -1.097  13.077  18.903  0.00  0.00    +0.000 OA
ATOM      8  H   UNL     1      -0.961   8.678  18.375  0.00  0.00    +0.000 HD
ENDROOT
BRANCH   1   9
ATOM      9  C   UNL     1      -0.414  10.471  20.579  0.00  0.00    +0.000 A 
ATOM     10  C   UNL     1      -0.987  11.423  21.445  0.00  0.00    +0.000 A 
ATOM     11  C   UNL     1      -1.096  11.185  22.815  0.00  0.00    +0.000 A 
ATOM     12  C   UNL     1      -0.594  10.007  23.357  0.00  0.00    +0.000 A 
ATOM     13  C   UNL     1       0.051   9.090  22.532  0.00  0.00    +0.000 A 
ATOM     14  C   UNL     1       0.152   9.322  21.157  0.00  0.00    +0.000 A 
ENDBRANCH   1   9
BRANCH   1  16
ATOM     15  C   UNL     1       1.602   9.637  17.862  0.00  0.00    +0.000 C 
ATOM     16  C   UNL     1       0.995  10.873  18.521  0.00  0.00    +0.000 C 
ENDBRANCH   1  16
BRANCH   5  17
ATOM     17  C   UNL     1      -3.753  12.239  18.136  0.00  0.00    +0.000 C 
BRANCH  17  18
ATOM     18  C   UNL     1      -4.736  12.077  19.285  0.00  0.00    +0.000 A 
ATOM     19  C   UNL     1      -5.979  11.582  19.110  0.00  0.00    +0.000 A 
ATOM     20  C   UNL     1      -6.771  11.047  20.218  0.00  0.00    +0.000 A 
ATOM     21  O   UNL     1      -7.601  10.162  20.026  0.00  0.00    +0.000 OA
ATOM     22  O   UNL     1      -6.503  11.544  21.466  0.00  0.00    +0.000 OA
ATOM     23  C   UNL     1      -5.632  12.635  21.506  0.00  0.00    +0.000 A 
ATOM     24  C   UNL     1      -5.969  13.631  22.412  0.00  0.00    +0.000 A 
ATOM     25  C   UNL     1      -5.246  14.809  22.456  0.00  0.00    +0.000 A 
ATOM     26  C   UNL     1      -5.838  15.983  23.165  0.00  0.00    +0.000 C 
ATOM     27  C   UNL     1      -4.021  14.865  21.752  0.00  0.00    +0.000 A 
ATOM     28  C   UNL     1      -3.022  15.958  22.026  0.00  0.00    +0.000 C 
ATOM     29  C   UNL     1      -3.712  13.860  20.808  0.00  0.00    +0.000 A 
ATOM     30  C   UNL     1      -4.589  12.795  20.580  0.00  0.00    +0.000 A 
ENDBRANCH  17  18
ENDBRANCH   5  17
TORSDOF 4
ENDMDL
MODEL 9
REMARK VINA RESULT:      -7.0      5.907      9.364
REMARK  Name = 
REMARK  7 active torsions:
REMARK  status: ('A' for Active; 'I' for Inactive)
REMARK    1  A    between atoms: C_1  and  C_2
REMARK    2  A    between atoms: C_2  and  C_3
REMARK    3  A    between atoms: C_3  and  C_4
REMARK    4  A    between atoms: N_13  and  C_14
REMARK    5  A    between atoms: C_14  and  C_15
REMARK    6  A    between atoms: C_22  and  C_23
REMARK    7  A    between atoms: C_24  and  C_25
REMARK                            x       y       z     vdW  Elec       q    Type
REMARK                         _______ _______ _______ _____ _____    ______ ____
ROOT
ATOM      1  C   UNL     1       1.008  11.184  19.004  0.00  0.00    +0.000 C 
ATOM      2  N   UNL     1      -0.291  11.354  18.384  0.00  0.00    +0.000 N 
ATOM      3  C   UNL     1      -1.316  11.380  19.320  0.00  0.00    +0.000 C 
ATOM      4  O   UNL     1      -2.502  11.307  19.012  0.00  0.00    +0.000 OA
ATOM      5  N   UNL     1      -0.774  11.504  20.547  0.00  0.00    +0.000 N 
ATOM      6  C   UNL     1       0.593  11.532  20.455  0.00  0.00    +0.000 C 
ATOM      7  O   UNL     1       1.359  11.733  21.392  0.00  0.00    +0.000 OA
ATOM      8  H   UNL     1      -0.500  11.170  17.408  0.00  0.00    +0.000 HD
ENDROOT
BRANCH   1   9
ATOM      9  C   UNL     1       1.480   9.721  18.941  0.00  0.00    +0.000 A 
ATOM     10  C   UNL     1       2.075   9.218  17.767  0.00  0.00    +0.000 A 
ATOM     11  C   UNL     1       2.625   7.937  17.724  0.00  0.00    +0.000 A 
ATOM     12  C   UNL     1       2.554   7.113  18.841  0.00  0.00    +0.000 A 
ATOM     13  C   UNL     1       1.897   7.559  19.985  0.00  0.00    +0.000 A 
ATOM     14  C   UNL     1       1.353   8.846  20.033  0.00  0.00    +0.000 A 
ENDBRANCH   1   9
BRANCH   1  16
ATOM     15  C   UNL     1       1.714  13.602  18.412  0.00  0.00    +0.000 C 
ATOM     16  C   UNL     1       2.086  12.122  18.442  0.00  0.00    +0.000 C 
ENDBRANCH   1  16
BRANCH   5  17
ATOM     17  C   UNL     1      -1.488  11.498  21.818  0.00  0.00    +0.000 C 
BRANCH  17  18
ATOM     18  C   UNL     1      -1.846  12.887  22.324  0.00  0.00    +0.000 A 
ATOM     19  C   UNL     1      -1.123  13.523  23.268  0.00  0.00    +0.000 A 
ATOM     20  C   UNL     1      -1.197  14.971  23.468  0.00  0.00    +0.000 A 
ATOM     21  O   UNL     1      -0.231  15.595  23.898  0.00  0.00    +0.000 OA
ATOM     22  O   UNL     1      -2.367  15.585  23.105  0.00  0.00    +0.000 OA
ATOM     23  C   UNL     1      -3.414  14.730  22.759  0.00  0.00    +0.000 A 
ATOM     24  C   UNL     1      -4.668  15.112  23.215  0.00  0.00    +0.000 A 
ATOM     25  C   UNL     1      -5.760  14.284  23.033  0.00  0.00    +0.000 A 
ATOM     26  C   UNL     1      -6.994  14.542  23.836  0.00  0.00    +0.000 C 
ATOM     27  C   UNL     1      -5.622  13.182  22.158  0.00  0.00    +0.000 A 
ATOM     28  C   UNL     1      -6.831  12.450  21.639  0.00  0.00    +0.000 C 
ATOM     29  C   UNL     1      -4.334  12.786  21.732  0.00  0.00    +0.000 A 
ATOM     30  C   UNL     1      -3.195  13.488  22.143  0.00  0.00    +0.000 A 
ENDBRANCH  17  18
ENDBRANCH   5  17
TORSDOF 4
ENDMDL
