MODEL 1
REMARK VINA RESULT:      -8.8      0.000      0.000
REMARK  Name = 
REMARK  5 active torsions:
REMARK  status: ('A' for Active; 'I' for Inactive)
REMARK    1  A    between atoms: C_1  and  C_2
REMARK    2  A    between atoms: C_2  and  C_3
REMARK    3  A    between atoms: C_9  and  S_10
REMARK    4  A    between atoms: S_10  and  N_13
REMARK    5  A    between atoms: N_13  and  C_14
REMARK                            x       y       z     vdW  Elec       q    Type
REMARK                         _______ _______ _______ _____ _____    ______ ____
ROOT
ATOM      1  S   UNL     1       5.371   4.485  18.100  0.00  0.00    +0.000 S 
ATOM      2  O   UNL     1       6.417   4.203  19.055  0.00  0.00    +0.000 OA
ATOM      3  O   UNL     1       4.468   5.604  18.278  0.00  0.00    +0.000 OA
ENDROOT
BRANCH   1  10
ATOM      4  C   UNL     1       6.143   3.735  12.849  0.00  0.00    +0.000 A 
ATOM      5  N   UNL     1       7.039   4.325  12.048  0.00  0.00    +0.000 NA
ATOM      6  O   UNL     1       7.757   5.193  12.861  0.00  0.00    +0.000 OA
ATOM      7  C   UNL     1       7.291   5.120  14.139  0.00  0.00    +0.000 A 
ATOM      8  N   UNL     1       7.785   5.835  15.171  0.00  0.00    +0.000 NA
ATOM      9  C   UNL     1       7.156   5.583  16.346  0.00  0.00    +0.000 A 
ATOM     10  C   UNL     1       6.113   4.682  16.513  0.00  0.00    +0.000 A 
ATOM     11  C   UNL     1       5.613   3.979  15.412  0.00  0.00    +0.000 A 
ATOM     12  C   UNL     1       6.247   4.206  14.182  0.00  0.00    +0.000 A 
BRANCH   4  14
ATOM     13  C   UNL     1       4.233   3.282  11.308  0.00  0.00    +0.000 C 
ATOM     14  C   UNL     1       5.217   2.699  12.312  0.00  0.00    +0.000 C 
ENDBRANCH   4  14
ENDBRANCH   1  10
BRANCH   1  15
ATOM     15  N   UNL     1       4.398   3.132  17.917  0.00  0.00    +0.000 N 
ATOM     16  H   UNL     1       4.884   2.256  17.738  0.00  0.00    +0.000 HD
BRANCH  15  17
ATOM     17  C   UNL     1       3.096   3.094  18.480  0.00  0.00    +0.000 A 
ATOM     18  C   UNL     1       1.988   3.330  17.656  0.00  0.00    +0.000 A 
ATOM     19  C   UNL     1       0.690   3.252  18.165  0.00  0.00    +0.000 A 
ATOM     20  C   UNL     1       0.456   2.954  19.511  0.00  0.00    +0.000 A 
ATOM     21  C   UNL     1       1.578   2.743  20.320  0.00  0.00    +0.000 A 
ATOM     22  N   UNL     1       1.693   2.451  21.655  0.00  0.00    +0.000 N 
ATOM     23  N   UNL     1       2.962   2.302  22.074  0.00  0.00    +0.000 NA
ATOM     24  C   UNL     1       3.680   2.521  20.971  0.00  0.00    +0.000 A 
ATOM     25  C   UNL     1       2.882   2.801  19.840  0.00  0.00    +0.000 A 
ATOM     26  H   UNL     1       0.947   2.336  22.332  0.00  0.00    +0.000 HD
ENDBRANCH  15  17
ENDBRANCH   1  15
TORSDOF 4
ENDMDL
MODEL 2
REMARK VINA RESULT:      -8.7      4.154      4.707
REMARK  Name = 
REMARK  5 active torsions:
REMARK  status: ('A' for Active; 'I' for Inactive)
REMARK    1  A    between atoms: C_1  and  C_2
REMARK    2  A    between atoms: C_2  and  C_3
REMARK    3  A    between atoms: C_9  and  S_10
REMARK    4  A    between atoms: S_10  and  N_13
REMARK    5  A    between atoms: N_13  and  C_14
REMARK                            x       y       z     vdW  Elec       q    Type
REMARK                         _______ _______ _______ _____ _____    ______ ____
ROOT
ATOM      1  S   UNL     1       2.726   4.772  19.385  0.00  0.00    +0.000 S 
ATOM      2  O   UNL     1       1.701   4.820  18.368  0.00  0.00    +0.000 OA
ATOM      3  O   UNL     1       2.731   3.742  20.403  0.00  0.00    +0.000 OA
ENDROOT
BRANCH   1  10
ATOM      4  C   UNL     1       6.223   4.439  15.336  0.00  0.00    +0.000 A 
ATOM      5  N   UNL     1       7.560   4.469  15.388  0.00  0.00    +0.000 NA
ATOM      6  O   UNL     1       7.882   4.603  16.733  0.00  0.00    +0.000 OA
ATOM      7  C   UNL     1       6.742   4.652  17.477  0.00  0.00    +0.000 A 
ATOM      8  N   UNL     1       6.715   4.771  18.821  0.00  0.00    +0.000 NA
ATOM      9  C   UNL     1       5.459   4.793  19.331  0.00  0.00    +0.000 A 
ATOM     10  C   UNL     1       4.294   4.695  18.581  0.00  0.00    +0.000 A 
ATOM     11  C   UNL     1       4.365   4.599  17.188  0.00  0.00    +0.000 A 
ATOM     12  C   UNL     1       5.649   4.562  16.626  0.00  0.00    +0.000 A 
BRANCH   4  14
ATOM     13  C   UNL     1       6.452   3.722  12.956  0.00  0.00    +0.000 C 
ATOM     14  C   UNL     1       5.522   4.262  14.033  0.00  0.00    +0.000 C 
ENDBRANCH   4  14
ENDBRANCH   1  10
BRANCH   1  15
ATOM     15  N   UNL     1       2.773   6.232  20.205  0.00  0.00    +0.000 N 
ATOM     16  H   UNL     1       3.467   6.302  20.948  0.00  0.00    +0.000 HD
BRANCH  15  17
ATOM     17  C   UNL     1       2.292   7.421  19.597  0.00  0.00    +0.000 A 
ATOM     18  C   UNL     1       2.661   7.712  18.278  0.00  0.00    +0.000 A 
ATOM     19  C   UNL     1       2.168   8.846  17.631  0.00  0.00    +0.000 A 
ATOM     20  C   UNL     1       1.307   9.734  18.283  0.00  0.00    +0.000 A 
ATOM     21  C   UNL     1       0.967   9.436  19.607  0.00  0.00    +0.000 A 
ATOM     22  N   UNL     1       0.173  10.093  20.511  0.00  0.00    +0.000 N 
ATOM     23  N   UNL     1       0.075   9.475  21.702  0.00  0.00    +0.000 NA
ATOM     24  C   UNL     1       0.845   8.395  21.555  0.00  0.00    +0.000 A 
ATOM     25  C   UNL     1       1.433   8.307  20.274  0.00  0.00    +0.000 A 
ATOM     26  H   UNL     1      -0.332  10.961  20.378  0.00  0.00    +0.000 HD
ENDBRANCH  15  17
ENDBRANCH   1  15
TORSDOF 4
ENDMDL
MODEL 3
REMARK VINA RESULT:      -8.5      1.856      2.042
REMARK  Name = 
REMARK  5 active torsions:
REMARK  status: ('A' for Active; 'I' for Inactive)
REMARK    1  A    between atoms: C_1  and  C_2
REMARK    2  A    between atoms: C_2  and  C_3
REMARK    3  A    between atoms: C_9  and  S_10
REMARK    4  A    between atoms: S_10  and  N_13
REMARK    5  A    between atoms: N_13  and  C_14
REMARK                            x       y       z     vdW  Elec       q    Type
REMARK                         _______ _______ _______ _____ _____    ______ ____
ROOT
ATOM      1  S   UNL     1       4.997   4.050  17.546  0.00  0.00    +0.000 S 
ATOM      2  O   UNL     1       4.585   2.665  17.553  0.00  0.00    +0.000 OA
ATOM      3  O   UNL     1       5.789   4.606  18.624  0.00  0.00    +0.000 OA
ENDROOT
BRANCH   1  10
ATOM      4  C   UNL     1       6.312   3.614  12.368  0.00  0.00    +0.000 A 
ATOM      5  N   UNL     1       7.270   4.265  11.696  0.00  0.00    +0.000 NA
ATOM      6  O   UNL     1       7.882   5.098  12.624  0.00  0.00    +0.000 OA
ATOM      7  C   UNL     1       7.291   4.944  13.842  0.00  0.00    +0.000 A 
ATOM      8  N   UNL     1       7.662   5.608  14.957  0.00  0.00    +0.000 NA
ATOM      9  C   UNL     1       6.924   5.278  16.046  0.00  0.00    +0.000 A 
ATOM     10  C   UNL     1       5.891   4.350  16.056  0.00  0.00    +0.000 A 
ATOM     11  C   UNL     1       5.521   3.702  14.873  0.00  0.00    +0.000 A 
ATOM     12  C   UNL     1       6.270   4.010  13.728  0.00  0.00    +0.000 A 
BRANCH   4  14
ATOM     13  C   UNL     1       4.137   3.169  11.227  0.00  0.00    +0.000 C 
ATOM     14  C   UNL     1       5.470   2.593  11.684  0.00  0.00    +0.000 C 
ENDBRANCH   4  14
ENDBRANCH   1  10
BRANCH   1  15
ATOM     15  N   UNL     1       3.651   5.037  17.406  0.00  0.00    +0.000 N 
ATOM     16  H   UNL     1       3.214   5.065  16.486  0.00  0.00    +0.000 HD
BRANCH  15  17
ATOM     17  C   UNL     1       2.875   5.373  18.547  0.00  0.00    +0.000 A 
ATOM     18  C   UNL     1       2.923   6.681  19.044  0.00  0.00    +0.000 A 
ATOM     19  C   UNL     1       2.137   7.060  20.134  0.00  0.00    +0.000 A 
ATOM     20  C   UNL     1       1.293   6.145  20.771  0.00  0.00    +0.000 A 
ATOM     21  C   UNL     1       1.276   4.838  20.270  0.00  0.00    +0.000 A 
ATOM     22  N   UNL     1       0.585   3.723  20.666  0.00  0.00    +0.000 N 
ATOM     23  N   UNL     1       0.825   2.635  19.912  0.00  0.00    +0.000 NA
ATOM     24  C   UNL     1       1.712   3.070  19.015  0.00  0.00    +0.000 A 
ATOM     25  C   UNL     1       2.039   4.434  19.178  0.00  0.00    +0.000 A 
ATOM     26  H   UNL     1      -0.068   3.638  21.437  0.00  0.00    +0.000 HD
ENDBRANCH  15  17
ENDBRANCH   1  15
TORSDOF 4
ENDMDL
MODEL 4
REMARK VINA RESULT:      -8.4      4.129      4.916
REMARK  Name = 
REMARK  5 active torsions:
REMARK  status: ('A' for Active; 'I' for Inactive)
REMARK    1  A    between atoms: C_1  and  C_2
REMARK    2  A    between atoms: C_2  and  C_3
REMARK    3  A    between atoms: C_9  and  S_10
REMARK    4  A    between atoms: S_10  and  N_13
REMARK    5  A    between atoms: N_13  and  C_14
REMARK                            x       y       z     vdW  Elec       q    Type
REMARK                         _______ _______ _______ _____ _____    ______ ____
ROOT
ATOM      1  S   UNL     1       2.641   4.992  19.348  0.00  0.00    +0.000 S 
ATOM      2  O   UNL     1       1.645   5.265  18.338  0.00  0.00    +0.000 OA
ATOM      3  O   UNL     1       2.516   3.861  20.244  0.00  0.00    +0.000 OA
ENDROOT
BRANCH   1  10
ATOM      4  C   UNL     1       6.127   4.470  15.310  0.00  0.00    +0.000 A 
ATOM      5  N   UNL     1       7.464   4.433  15.366  0.00  0.00    +0.000 NA
ATOM      6  O   UNL     1       7.789   4.556  16.711  0.00  0.00    +0.000 OA
ATOM      7  C   UNL     1       6.651   4.665  17.452  0.00  0.00    +0.000 A 
ATOM      8  N   UNL     1       6.627   4.790  18.796  0.00  0.00    +0.000 NA
ATOM      9  C   UNL     1       5.371   4.877  19.302  0.00  0.00    +0.000 A 
ATOM     10  C   UNL     1       4.205   4.834  18.549  0.00  0.00    +0.000 A 
ATOM     11  C   UNL     1       4.275   4.729  17.156  0.00  0.00    +0.000 A 
ATOM     12  C   UNL     1       5.557   4.626  16.598  0.00  0.00    +0.000 A 
BRANCH   4  14
ATOM     13  C   UNL     1       6.318   3.707  12.942  0.00  0.00    +0.000 C 
ATOM     14  C   UNL     1       5.422   4.322  14.006  0.00  0.00    +0.000 C 
ENDBRANCH   4  14
ENDBRANCH   1  10
BRANCH   1  15
ATOM     15  N   UNL     1       2.831   6.338  20.328  0.00  0.00    +0.000 N 
ATOM     16  H   UNL     1       3.773   6.504  20.677  0.00  0.00    +0.000 HD
BRANCH  15  17
ATOM     17  C   UNL     1       1.925   7.428  20.247  0.00  0.00    +0.000 A 
ATOM     18  C   UNL     1       1.011   7.635  21.288  0.00  0.00    +0.000 A 
ATOM     19  C   UNL     1       0.138   8.724  21.266  0.00  0.00    +0.000 A 
ATOM     20  C   UNL     1       0.137   9.630  20.201  0.00  0.00    +0.000 A 
ATOM     21  C   UNL     1       1.044   9.393  19.162  0.00  0.00    +0.000 A 
ATOM     22  N   UNL     1       1.283  10.068  17.994  0.00  0.00    +0.000 N 
ATOM     23  N   UNL     1       2.263   9.533  17.245  0.00  0.00    +0.000 NA
ATOM     24  C   UNL     1       2.651   8.472  17.954  0.00  0.00    +0.000 A 
ATOM     25  C   UNL     1       1.934   8.323  19.162  0.00  0.00    +0.000 A 
ATOM     26  H   UNL     1       0.817  10.901  17.651  0.00  0.00    +0.000 HD
ENDBRANCH  15  17
ENDBRANCH   1  15
TORSDOF 4
ENDMDL
MODEL 5
REMARK VINA RESULT:      -8.4      2.139      3.084
REMARK  Name = 
REMARK  5 active torsions:
REMARK  status: ('A' for Active; 'I' for Inactive)
REMARK    1  A    between atoms: C_1  and  C_2
REMARK    2  A    between atoms: C_2  and  C_3
REMARK    3  A    between atoms: C_9  and  S_10
REMARK    4  A    between atoms: S_10  and  N_13
REMARK    5  A    between atoms: N_13  and  C_14
REMARK                            x       y       z     vdW  Elec       q    Type
REMARK                         _______ _______ _______ _____ _____    ______ ____
ROOT
ATOM      1  S   UNL     1       2.694   6.912  18.579  0.00  0.00    +0.000 S 
ATOM      2  O   UNL     1       2.668   7.285  19.974  0.00  0.00    +0.000 OA
ATOM      3  O   UNL     1       2.502   7.894  17.531  0.00  0.00    +0.000 OA
ENDROOT
BRANCH   1  10
ATOM      4  C   UNL     1       6.752   4.946  15.681  0.00  0.00    +0.000 A 
ATOM      5  N   UNL     1       7.882   4.372  16.114  0.00  0.00    +0.000 NA
ATOM      6  O   UNL     1       7.800   4.380  17.501  0.00  0.00    +0.000 OA
ATOM      7  C   UNL     1       6.628   4.954  17.891  0.00  0.00    +0.000 A 
ATOM      8  N   UNL     1       6.245   5.104  19.176  0.00  0.00    +0.000 NA
ATOM      9  C   UNL     1       5.034   5.701  19.307  0.00  0.00    +0.000 A 
ATOM     10  C   UNL     1       4.235   6.119  18.251  0.00  0.00    +0.000 A 
ATOM     11  C   UNL     1       4.680   5.968  16.934  0.00  0.00    +0.000 A 
ATOM     12  C   UNL     1       5.924   5.344  16.759  0.00  0.00    +0.000 A 
BRANCH   4  14
ATOM     13  C   UNL     1       6.188   3.722  13.580  0.00  0.00    +0.000 C 
ATOM     14  C   UNL     1       6.481   5.071  14.221  0.00  0.00    +0.000 C 
ENDBRANCH   4  14
ENDBRANCH   1  10
BRANCH   1  15
ATOM     15  N   UNL     1       1.562   5.709  18.297  0.00  0.00    +0.000 N 
ATOM     16  H   UNL     1       0.824   5.939  17.635  0.00  0.00    +0.000 HD
BRANCH  15  17
ATOM     17  C   UNL     1       1.883   4.344  18.524  0.00  0.00    +0.000 A 
ATOM     18  C   UNL     1       2.116   3.506  17.426  0.00  0.00    +0.000 A 
ATOM     19  C   UNL     1       2.481   2.172  17.611  0.00  0.00    +0.000 A 
ATOM     20  C   UNL     1       2.609   1.627  18.893  0.00  0.00    +0.000 A 
ATOM     21  C   UNL     1       2.352   2.477  19.975  0.00  0.00    +0.000 A 
ATOM     22  N   UNL     1       2.376   2.257  21.327  0.00  0.00    +0.000 N 
ATOM     23  N   UNL     1       2.082   3.344  22.062  0.00  0.00    +0.000 NA
ATOM     24  C   UNL     1       1.848   4.284  21.145  0.00  0.00    +0.000 A 
ATOM     25  C   UNL     1       1.999   3.814  19.822  0.00  0.00    +0.000 A 
ATOM     26  H   UNL     1       2.590   1.393  21.813  0.00  0.00    +0.000 HD
ENDBRANCH  15  17
ENDBRANCH   1  15
TORSDOF 4
ENDMDL
MODEL 6
REMARK VINA RESULT:      -8.4      3.050      3.445
REMARK  Name = 
REMARK  5 active torsions:
REMARK  status: ('A' for Active; 'I' for Inactive)
REMARK    1  A    between atoms: C_1  and  C_2
REMARK    2  A    between atoms: C_2  and  C_3
REMARK    3  A    between atoms: C_9  and  S_10
REMARK    4  A    between atoms: S_10  and  N_13
REMARK    5  A    between atoms: N_13  and  C_14
REMARK                            x       y       z     vdW  Elec       q    Type
REMARK                         _______ _______ _______ _____ _____    ______ ____
ROOT
ATOM      1  S   UNL     1       4.753   4.398  17.618  0.00  0.00    +0.000 S 
ATOM      2  O   UNL     1       4.226   3.053  17.647  0.00  0.00    +0.000 OA
ATOM      3  O   UNL     1       5.541   4.922  18.715  0.00  0.00    +0.000 OA
ENDROOT
BRANCH   1  10
ATOM      4  C   UNL     1       6.270   3.653  12.532  0.00  0.00    +0.000 A 
ATOM      5  N   UNL     1       7.301   4.209  11.882  0.00  0.00    +0.000 NA
ATOM      6  O   UNL     1       7.925   5.039  12.805  0.00  0.00    +0.000 OA
ATOM      7  C   UNL     1       7.270   4.977  13.998  0.00  0.00    +0.000 A 
ATOM      8  N   UNL     1       7.634   5.662  15.102  0.00  0.00    +0.000 NA
ATOM      9  C   UNL     1       6.826   5.429  16.166  0.00  0.00    +0.000 A 
ATOM     10  C   UNL     1       5.732   4.573  16.163  0.00  0.00    +0.000 A 
ATOM     11  C   UNL     1       5.373   3.901  14.990  0.00  0.00    +0.000 A 
ATOM     12  C   UNL     1       6.194   4.109  13.872  0.00  0.00    +0.000 A 
BRANCH   4  14
ATOM     13  C   UNL     1       4.086   3.288  11.382  0.00  0.00    +0.000 C 
ATOM     14  C   UNL     1       5.392   2.663  11.848  0.00  0.00    +0.000 C 
ENDBRANCH   4  14
ENDBRANCH   1  10
BRANCH   1  15
ATOM     15  N   UNL     1       3.501   5.487  17.387  0.00  0.00    +0.000 N 
ATOM     16  H   UNL     1       3.042   5.450  16.479  0.00  0.00    +0.000 HD
BRANCH  15  17
ATOM     17  C   UNL     1       2.794   6.026  18.494  0.00  0.00    +0.000 A 
ATOM     18  C   UNL     1       2.512   5.202  19.591  0.00  0.00    +0.000 A 
ATOM     19  C   UNL     1       1.863   5.709  20.718  0.00  0.00    +0.000 A 
ATOM     20  C   UNL     1       1.461   7.047  20.781  0.00  0.00    +0.000 A 
ATOM     21  C   UNL     1       1.735   7.847  19.666  0.00  0.00    +0.000 A 
ATOM     22  N   UNL     1       1.468   9.167  19.408  0.00  0.00    +0.000 N 
ATOM     23  N   UNL     1       1.909   9.589  18.210  0.00  0.00    +0.000 NA
ATOM     24  C   UNL     1       2.463   8.497  17.681  0.00  0.00    +0.000 A 
ATOM     25  C   UNL     1       2.391   7.373  18.534  0.00  0.00    +0.000 A 
ATOM     26  H   UNL     1       0.994   9.833  20.007  0.00  0.00    +0.000 HD
ENDBRANCH  15  17
ENDBRANCH   1  15
TORSDOF 4
ENDMDL
MODEL 7
REMARK VINA RESULT:      -8.3      1.211      1.245
REMARK  Name = 
REMARK  5 active torsions:
REMARK  status: ('A' for Active; 'I' for Inactive)
REMARK    1  A    between atoms: C_1  and  C_2
REMARK    2  A    between atoms: C_2  and  C_3
REMARK    3  A    between atoms: C_9  and  S_10
REMARK    4  A    between atoms: S_10  and  N_13
REMARK    5  A    between atoms: N_13  and  C_14
REMARK                            x       y       z     vdW  Elec       q    Type
REMARK                         _______ _______ _______ _____ _____    ______ ____
ROOT
ATOM      1  S   UNL     1       5.590   4.538  18.982  0.00  0.00    +0.000 S 
ATOM      2  O   UNL     1       5.374   3.115  19.113  0.00  0.00    +0.000 OA
ATOM      3  O   UNL     1       6.436   5.261  19.910  0.00  0.00    +0.000 OA
ENDROOT
BRANCH   1  10
ATOM      4  C   UNL     1       6.152   4.024  13.676  0.00  0.00    +0.000 A 
ATOM      5  N   UNL     1       6.949   4.717  12.854  0.00  0.00    +0.000 NA
ATOM      6  O   UNL     1       7.629   5.621  13.661  0.00  0.00    +0.000 OA
ATOM      7  C   UNL     1       7.238   5.467  14.957  0.00  0.00    +0.000 A 
ATOM      8  N   UNL     1       7.720   6.191  15.988  0.00  0.00    +0.000 NA
ATOM      9  C   UNL     1       7.178   5.847  17.183  0.00  0.00    +0.000 A 
ATOM     10  C   UNL     1       6.229   4.850  17.368  0.00  0.00    +0.000 A 
ATOM     11  C   UNL     1       5.736   4.139  16.269  0.00  0.00    +0.000 A 
ATOM     12  C   UNL     1       6.283   4.461  15.018  0.00  0.00    +0.000 A 
BRANCH   4  14
ATOM     13  C   UNL     1       4.825   3.204  11.728  0.00  0.00    +0.000 C 
ATOM     14  C   UNL     1       5.295   2.926  13.148  0.00  0.00    +0.000 C 
ENDBRANCH   4  14
ENDBRANCH   1  10
BRANCH   1  15
ATOM     15  N   UNL     1       4.116   5.334  18.985  0.00  0.00    +0.000 N 
ATOM     16  H   UNL     1       4.129   6.295  18.651  0.00  0.00    +0.000 HD
BRANCH  15  17
ATOM     17  C   UNL     1       2.898   4.605  18.937  0.00  0.00    +0.000 A 
ATOM     18  C   UNL     1       2.214   4.497  17.720  0.00  0.00    +0.000 A 
ATOM     19  C   UNL     1       1.040   3.748  17.624  0.00  0.00    +0.000 A 
ATOM     20  C   UNL     1       0.503   3.097  18.739  0.00  0.00    +0.000 A 
ATOM     21  C   UNL     1       1.192   3.235  19.949  0.00  0.00    +0.000 A 
ATOM     22  N   UNL     1       0.931   2.746  21.203  0.00  0.00    +0.000 N 
ATOM     23  N   UNL     1       1.850   3.087  22.124  0.00  0.00    +0.000 NA
ATOM     24  C   UNL     1       2.718   3.830  21.435  0.00  0.00    +0.000 A 
ATOM     25  C   UNL     1       2.370   3.965  20.073  0.00  0.00    +0.000 A 
ATOM     26  H   UNL     1       0.149   2.172  21.495  0.00  0.00    +0.000 HD
ENDBRANCH  15  17
ENDBRANCH   1  15
TORSDOF 4
ENDMDL
MODEL 8
REMARK VINA RESULT:      -8.1      2.338      3.457
REMARK  Name = 
REMARK  5 active torsions:
REMARK  status: ('A' for Active; 'I' for Inactive)
REMARK    1  A    between atoms: C_1  and  C_2
REMARK    2  A    between atoms: C_2  and  C_3
REMARK    3  A    between atoms: C_9  and  S_10
REMARK    4  A    between atoms: S_10  and  N_13
REMARK    5  A    between atoms: N_13  and  C_14
REMARK                            x       y       z     vdW  Elec       q    Type
REMARK                         _______ _______ _______ _____ _____    ______ ____
ROOT
ATOM      1  S   UNL     1       2.648   6.904  18.553  0.00  0.00    +0.000 S 
ATOM      2  O   UNL     1       2.634   7.395  19.912  0.00  0.00    +0.000 OA
ATOM      3  O   UNL     1       2.409   7.787  17.430  0.00  0.00    +0.000 OA
ENDROOT
BRANCH   1  10
ATOM      4  C   UNL     1       6.794   4.975  15.757  0.00  0.00    +0.000 A 
ATOM      5  N   UNL     1       7.921   4.419  16.219  0.00  0.00    +0.000 NA
ATOM      6  O   UNL     1       7.809   4.433  17.603  0.00  0.00    +0.000 OA
ATOM      7  C   UNL     1       6.621   4.994  17.964  0.00  0.00    +0.000 A 
ATOM      8  N   UNL     1       6.208   5.147  19.240  0.00  0.00    +0.000 NA
ATOM      9  C   UNL     1       4.987   5.729  19.340  0.00  0.00    +0.000 A 
ATOM     10  C   UNL     1       4.206   6.130  18.264  0.00  0.00    +0.000 A 
ATOM     11  C   UNL     1       4.682   5.976  16.958  0.00  0.00    +0.000 A 
ATOM     12  C   UNL     1       5.937   5.368  16.815  0.00  0.00    +0.000 A 
BRANCH   4  14
ATOM     13  C   UNL     1       6.013   3.793  13.703  0.00  0.00    +0.000 C 
ATOM     14  C   UNL     1       6.553   5.087  14.291  0.00  0.00    +0.000 C 
ENDBRANCH   4  14
ENDBRANCH   1  10
BRANCH   1  15
ATOM     15  N   UNL     1       1.548   5.650  18.397  0.00  0.00    +0.000 N 
ATOM     16  H   UNL     1       1.047   5.606  17.512  0.00  0.00    +0.000 HD
BRANCH  15  17
ATOM     17  C   UNL     1       1.680   4.469  19.174  0.00  0.00    +0.000 A 
ATOM     18  C   UNL     1       1.174   4.449  20.479  0.00  0.00    +0.000 A 
ATOM     19  C   UNL     1       1.241   3.291  21.255  0.00  0.00    +0.000 A 
ATOM     20  C   UNL     1       1.829   2.122  20.761  0.00  0.00    +0.000 A 
ATOM     21  C   UNL     1       2.347   2.170  19.461  0.00  0.00    +0.000 A 
ATOM     22  N   UNL     1       2.984   1.223  18.702  0.00  0.00    +0.000 N 
ATOM     23  N   UNL     1       3.324   1.647  17.472  0.00  0.00    +0.000 NA
ATOM     24  C   UNL     1       2.902   2.913  17.454  0.00  0.00    +0.000 A 
ATOM     25  C   UNL     1       2.283   3.306  18.660  0.00  0.00    +0.000 A 
ATOM     26  H   UNL     1       3.212   0.270  18.962  0.00  0.00    +0.000 HD
ENDBRANCH  15  17
ENDBRANCH   1  15
TORSDOF 4
ENDMDL
MODEL 9
REMARK VINA RESULT:      -8.1      3.379      7.064
REMARK  Name = 
REMARK  5 active torsions:
REMARK  status: ('A' for Active; 'I' for Inactive)
REMARK    1  A    between atoms: C_1  and  C_2
REMARK    2  A    between atoms: C_2  and  C_3
REMARK    3  A    between atoms: C_9  and  S_10
REMARK    4  A    between atoms: S_10  and  N_13
REMARK    5  A    between atoms: N_13  and  C_14
REMARK                            x       y       z     vdW  Elec       q    Type
REMARK                         _______ _______ _______ _____ _____    ______ ____
ROOT
ATOM      1  S   UNL     1       3.108   3.025  17.890  0.00  0.00    +0.000 S 
ATOM      2  O   UNL     1       2.461   1.856  18.440  0.00  0.00    +0.000 OA
ATOM      3  O   UNL     1       2.929   3.405  16.504  0.00  0.00    +0.000 OA
ENDROOT
BRANCH   1  10
ATOM      4  C   UNL     1       1.902   8.129  18.995  0.00  0.00    +0.000 A 
ATOM      5  N   UNL     1       1.513   8.658  20.163  0.00  0.00    +0.000 NA
ATOM      6  O   UNL     1       1.483   7.601  21.064  0.00  0.00    +0.000 OA
ATOM      7  C   UNL     1       1.853   6.449  20.436  0.00  0.00    +0.000 A 
ATOM      8  N   UNL     1       1.933   5.245  21.040  0.00  0.00    +0.000 NA
ATOM      9  C   UNL     1       2.329   4.253  20.205  0.00  0.00    +0.000 A 
ATOM     10  C   UNL     1       2.639   4.420  18.861  0.00  0.00    +0.000 A 
ATOM     11  C   UNL     1       2.518   5.681  18.267  0.00  0.00    +0.000 A 
ATOM     12  C   UNL     1       2.122   6.734  19.104  0.00  0.00    +0.000 A 
BRANCH   4  14
ATOM     13  C   UNL     1       1.873  10.468  18.124  0.00  0.00    +0.000 C 
ATOM     14  C   UNL     1       2.084   8.997  17.798  0.00  0.00    +0.000 C 
ENDBRANCH   4  14
ENDBRANCH   1  10
BRANCH   1  15
ATOM     15  N   UNL     1       4.763   2.916  18.129  0.00  0.00    +0.000 N 
ATOM     16  H   UNL     1       5.164   1.984  18.043  0.00  0.00    +0.000 HD
BRANCH  15  17
ATOM     17  C   UNL     1       5.600   4.046  17.933  0.00  0.00    +0.000 A 
ATOM     18  C   UNL     1       5.931   4.850  19.032  0.00  0.00    +0.000 A 
ATOM     19  C   UNL     1       6.791   5.939  18.887  0.00  0.00    +0.000 A 
ATOM     20  C   UNL     1       7.333   6.273  17.642  0.00  0.00    +0.000 A 
ATOM     21  C   UNL     1       6.974   5.469  16.554  0.00  0.00    +0.000 A 
ATOM     22  N   UNL     1       7.314   5.530  15.228  0.00  0.00    +0.000 N 
ATOM     23  N   UNL     1       6.771   4.554  14.479  0.00  0.00    +0.000 NA
ATOM     24  C   UNL     1       6.049   3.855  15.357  0.00  0.00    +0.000 A 
ATOM     25  C   UNL     1       6.129   4.369  16.670  0.00  0.00    +0.000 A 
ATOM     26  H   UNL     1       7.913   6.209  14.771  0.00  0.00    +0.000 HD
ENDBRANCH  15  17
ENDBRANCH   1  15
TORSDOF 4
ENDMDL
