MODEL 1
REMARK VINA RESULT:      -8.5      0.000      0.000
REMARK  Name = 
REMARK  5 active torsions:
REMARK  status: ('A' for Active; 'I' for Inactive)
REMARK    1  A    between atoms: C_2  and  C_3
REMARK    2  A    between atoms: C_3  and  C_4
REMARK    3  A    between atoms: N_7  and  C_8
REMARK    4  A    between atoms: N_15  and  C_16
REMARK    5  A    between atoms: C_20  and  N_21
REMARK                            x       y       z     vdW  Elec       q    Type
REMARK                         _______ _______ _______ _____ _____    ______ ____
ROOT
ATOM      1  O   UNL     1       1.533   4.842  18.249  0.00  0.00    +0.000 OA
ATOM      2  C   UNL     1       2.684   5.139  18.566  0.00  0.00    +0.000 C 
ATOM      3  N   UNL     1       3.138   6.416  18.863  0.00  0.00    +0.000 N 
ATOM      4  H   UNL     1       4.109   6.514  19.134  0.00  0.00    +0.000 HD
ENDROOT
BRANCH   3   5
ATOM      5  C   UNL     1       2.367   7.602  18.892  0.00  0.00    +0.000 A 
ATOM      6  C   UNL     1       2.032   8.326  17.748  0.00  0.00    +0.000 A 
ATOM      7  C   UNL     1       1.247   9.477  17.830  0.00  0.00    +0.000 A 
ATOM      8  C   UNL     1       0.759   9.905  19.061  0.00  0.00    +0.000 A 
ATOM      9  C   UNL     1       1.062   9.179  20.219  0.00  0.00    +0.000 A 
ATOM     10  C   UNL     1       1.895   8.047  20.136  0.00  0.00    +0.000 A 
BRANCH   9  11
ATOM     11  N   UNL     1       0.490   9.547  21.460  0.00  0.00    +0.000 N 
ATOM     12  C   UNL     1       0.892   9.219  22.731  0.00  0.00    +0.000 A 
ATOM     13  N   UNL     1       0.118   9.825  23.603  0.00  0.00    +0.000 NA
ATOM     14  N   UNL     1      -0.785  10.540  22.863  0.00  0.00    +0.000 NA
ATOM     15  N   UNL     1      -0.569  10.380  21.562  0.00  0.00    +0.000 NA
ENDBRANCH   9  11
ENDBRANCH   3   5
BRANCH   2  16
ATOM     16  C   UNL     1       3.745   4.062  18.721  0.00  0.00    +0.000 C 
BRANCH  16  17
ATOM     17  C   UNL     1       4.890   4.197  17.777  0.00  0.00    +0.000 A 
ATOM     18  C   UNL     1       6.216   4.619  18.008  0.00  0.00    +0.000 A 
ATOM     19  N   UNL     1       6.955   4.638  16.897  0.00  0.00    +0.000 NA
ATOM     20  N   UNL     1       6.100   4.290  15.905  0.00  0.00    +0.000 N 
ATOM     21  C   UNL     1       4.859   3.970  16.416  0.00  0.00    +0.000 A 
BRANCH  20  22
ATOM     22  C   UNL     1       6.495   4.309  14.540  0.00  0.00    +0.000 A 
ATOM     23  C   UNL     1       7.495   5.199  14.119  0.00  0.00    +0.000 A 
ATOM     24  C   UNL     1       7.867   5.247  12.773  0.00  0.00    +0.000 A 
ATOM     25  C   UNL     1       7.245   4.416  11.844  0.00  0.00    +0.000 A 
ATOM     26  C   UNL     1       6.252   3.530  12.257  0.00  0.00    +0.000 A 
ATOM     27  C   UNL     1       5.880   3.471  13.601  0.00  0.00    +0.000 A 
ENDBRANCH  20  22
ENDBRANCH  16  17
ENDBRANCH   2  16
TORSDOF 5
ENDMDL
MODEL 2
REMARK VINA RESULT:      -8.4      0.653      1.269
REMARK  Name = 
REMARK  5 active torsions:
REMARK  status: ('A' for Active; 'I' for Inactive)
REMARK    1  A    between atoms: C_2  and  C_3
REMARK    2  A    between atoms: C_3  and  C_4
REMARK    3  A    between atoms: N_7  and  C_8
REMARK    4  A    between atoms: N_15  and  C_16
REMARK    5  A    between atoms: C_20  and  N_21
REMARK                            x       y       z     vdW  Elec       q    Type
REMARK                         _______ _______ _______ _____ _____    ______ ____
ROOT
ATOM      1  O   UNL     1       1.419   4.631  19.485  0.00  0.00    +0.000 OA
ATOM      2  C   UNL     1       2.578   4.893  19.166  0.00  0.00    +0.000 C 
ATOM      3  N   UNL     1       3.075   6.160  18.892  0.00  0.00    +0.000 N 
ATOM      4  H   UNL     1       4.060   6.234  18.664  0.00  0.00    +0.000 HD
ENDROOT
BRANCH   3   5
ATOM      5  C   UNL     1       2.364   7.380  18.960  0.00  0.00    +0.000 A 
ATOM      6  C   UNL     1       2.014   8.127  17.835  0.00  0.00    +0.000 A 
ATOM      7  C   UNL     1       1.289   9.313  17.958  0.00  0.00    +0.000 A 
ATOM      8  C   UNL     1       0.877   9.756  19.211  0.00  0.00    +0.000 A 
ATOM      9  C   UNL     1       1.196   9.009  20.351  0.00  0.00    +0.000 A 
ATOM     10  C   UNL     1       1.970   7.839  20.226  0.00  0.00    +0.000 A 
BRANCH   9  11
ATOM     11  N   UNL     1       0.698   9.395  21.618  0.00  0.00    +0.000 N 
ATOM     12  C   UNL     1      -0.519   9.939  21.943  0.00  0.00    +0.000 A 
ATOM     13  N   UNL     1      -0.598  10.087  23.246  0.00  0.00    +0.000 NA
ATOM     14  N   UNL     1       0.594   9.631  23.742  0.00  0.00    +0.000 NA
ATOM     15  N   UNL     1       1.388   9.208  22.765  0.00  0.00    +0.000 NA
ENDBRANCH   9  11
ENDBRANCH   3   5
BRANCH   2  16
ATOM     16  C   UNL     1       3.627   3.797  19.097  0.00  0.00    +0.000 C 
BRANCH  16  17
ATOM     17  C   UNL     1       4.727   4.068  18.128  0.00  0.00    +0.000 A 
ATOM     18  C   UNL     1       5.977   4.694  18.320  0.00  0.00    +0.000 A 
ATOM     19  N   UNL     1       6.690   4.783  17.197  0.00  0.00    +0.000 NA
ATOM     20  N   UNL     1       5.886   4.273  16.233  0.00  0.00    +0.000 N 
ATOM     21  C   UNL     1       4.714   3.788  16.777  0.00  0.00    +0.000 A 
BRANCH  20  22
ATOM     22  C   UNL     1       6.256   4.300  14.862  0.00  0.00    +0.000 A 
ATOM     23  C   UNL     1       5.539   3.532  13.932  0.00  0.00    +0.000 A 
ATOM     24  C   UNL     1       5.916   3.528  12.587  0.00  0.00    +0.000 A 
ATOM     25  C   UNL     1       7.008   4.284  12.163  0.00  0.00    +0.000 A 
ATOM     26  C   UNL     1       7.723   5.049  13.082  0.00  0.00    +0.000 A 
ATOM     27  C   UNL     1       7.348   5.063  14.426  0.00  0.00    +0.000 A 
ENDBRANCH  20  22
ENDBRANCH  16  17
ENDBRANCH   2  16
TORSDOF 5
ENDMDL
MODEL 3
REMARK VINA RESULT:      -8.0      0.912      1.047
REMARK  Name = 
REMARK  5 active torsions:
REMARK  status: ('A' for Active; 'I' for Inactive)
REMARK    1  A    between atoms: C_2  and  C_3
REMARK    2  A    between atoms: C_3  and  C_4
REMARK    3  A    between atoms: N_7  and  C_8
REMARK    4  A    between atoms: N_15  and  C_16
REMARK    5  A    between atoms: C_20  and  N_21
REMARK                            x       y       z     vdW  Elec       q    Type
REMARK                         _______ _______ _______ _____ _____    ______ ____
ROOT
ATOM      1  O   UNL     1       1.850   5.245  19.830  0.00  0.00    +0.000 OA
ATOM      2  C   UNL     1       2.848   5.635  19.225  0.00  0.00    +0.000 C 
ATOM      3  N   UNL     1       3.047   6.916  18.729  0.00  0.00    +0.000 N 
ATOM      4  H   UNL     1       3.930   7.107  18.271  0.00  0.00    +0.000 HD
ENDROOT
BRANCH   3   5
ATOM      5  C   UNL     1       2.166   8.015  18.853  0.00  0.00    +0.000 A 
ATOM      6  C   UNL     1       1.625   8.691  17.758  0.00  0.00    +0.000 A 
ATOM      7  C   UNL     1       0.740   9.755  17.936  0.00  0.00    +0.000 A 
ATOM      8  C   UNL     1       0.359  10.142  19.217  0.00  0.00    +0.000 A 
ATOM      9  C   UNL     1       0.869   9.461  20.329  0.00  0.00    +0.000 A 
ATOM     10  C   UNL     1       1.800   8.420  20.145  0.00  0.00    +0.000 A 
BRANCH   9  11
ATOM     11  N   UNL     1       0.412   9.779  21.630  0.00  0.00    +0.000 N 
ATOM     12  C   UNL     1      -0.696  10.493  22.010  0.00  0.00    +0.000 A 
ATOM     13  N   UNL     1      -0.785  10.498  23.321  0.00  0.00    +0.000 NA
ATOM     14  N   UNL     1       0.291   9.777  23.766  0.00  0.00    +0.000 NA
ATOM     15  N   UNL     1       1.024   9.335  22.751  0.00  0.00    +0.000 NA
ENDBRANCH   9  11
ENDBRANCH   3   5
BRANCH   2  16
ATOM     16  C   UNL     1       4.033   4.707  19.011  0.00  0.00    +0.000 C 
BRANCH  16  17
ATOM     17  C   UNL     1       4.884   5.069  17.843  0.00  0.00    +0.000 A 
ATOM     18  C   UNL     1       5.603   6.253  17.571  0.00  0.00    +0.000 A 
ATOM     19  N   UNL     1       6.234   6.219  16.396  0.00  0.00    +0.000 NA
ATOM     20  N   UNL     1       5.881   5.031  15.847  0.00  0.00    +0.000 N 
ATOM     21  C   UNL     1       5.108   4.296  16.722  0.00  0.00    +0.000 A 
BRANCH  20  22
ATOM     22  C   UNL     1       6.268   4.676  14.527  0.00  0.00    +0.000 A 
ATOM     23  C   UNL     1       7.408   5.262  13.956  0.00  0.00    +0.000 A 
ATOM     24  C   UNL     1       7.778   4.944  12.647  0.00  0.00    +0.000 A 
ATOM     25  C   UNL     1       7.015   4.046  11.902  0.00  0.00    +0.000 A 
ATOM     26  C   UNL     1       5.883   3.460  12.464  0.00  0.00    +0.000 A 
ATOM     27  C   UNL     1       5.511   3.769  13.774  0.00  0.00    +0.000 A 
ENDBRANCH  20  22
ENDBRANCH  16  17
ENDBRANCH   2  16
TORSDOF 5
ENDMDL
MODEL 4
REMARK VINA RESULT:      -7.9      2.723      9.185
REMARK  Name = 
REMARK  5 active torsions:
REMARK  status: ('A' for Active; 'I' for Inactive)
REMARK    1  A    between atoms: C_2  and  C_3
REMARK    2  A    between atoms: C_3  and  C_4
REMARK    3  A    between atoms: N_7  and  C_8
REMARK    4  A    between atoms: N_15  and  C_16
REMARK    5  A    between atoms: C_20  and  N_21
REMARK                            x       y       z     vdW  Elec       q    Type
REMARK                         _______ _______ _______ _____ _____    ______ ____
ROOT
ATOM      1  O   UNL     1       2.457   8.375  17.953  0.00  0.00    +0.000 OA
ATOM      2  C   UNL     1       2.178   7.964  19.079  0.00  0.00    +0.000 C 
ATOM      3  N   UNL     1       2.251   6.644  19.501  0.00  0.00    +0.000 N 
ATOM      4  H   UNL     1       2.014   6.449  20.466  0.00  0.00    +0.000 HD
ENDROOT
BRANCH   3   5
ATOM      5  C   UNL     1       2.689   5.536  18.738  0.00  0.00    +0.000 A 
ATOM      6  C   UNL     1       1.828   4.551  18.254  0.00  0.00    +0.000 A 
ATOM      7  C   UNL     1       2.309   3.491  17.485  0.00  0.00    +0.000 A 
ATOM      8  C   UNL     1       3.661   3.417  17.161  0.00  0.00    +0.000 A 
ATOM      9  C   UNL     1       4.538   4.409  17.614  0.00  0.00    +0.000 A 
ATOM     10  C   UNL     1       4.055   5.449  18.432  0.00  0.00    +0.000 A 
BRANCH   9  11
ATOM     11  N   UNL     1       5.894   4.400  17.209  0.00  0.00    +0.000 N 
ATOM     12  C   UNL     1       6.428   4.597  15.961  0.00  0.00    +0.000 A 
ATOM     13  N   UNL     1       7.739   4.569  16.037  0.00  0.00    +0.000 NA
ATOM     14  N   UNL     1       8.028   4.348  17.357  0.00  0.00    +0.000 NA
ATOM     15  N   UNL     1       6.917   4.244  18.078  0.00  0.00    +0.000 NA
ENDBRANCH   9  11
ENDBRANCH   3   5
BRANCH   2  16
ATOM     16  C   UNL     1       1.762   8.933  20.173  0.00  0.00    +0.000 C 
BRANCH  16  17
ATOM     17  C   UNL     1       0.561   9.749  19.837  0.00  0.00    +0.000 A 
ATOM     18  C   UNL     1      -0.169  10.663  20.627  0.00  0.00    +0.000 A 
ATOM     19  N   UNL     1      -1.214  11.186  19.982  0.00  0.00    +0.000 NA
ATOM     20  N   UNL     1      -1.222  10.568  18.776  0.00  0.00    +0.000 N 
ATOM     21  C   UNL     1      -0.132   9.733  18.644  0.00  0.00    +0.000 A 
BRANCH  20  22
ATOM     22  C   UNL     1      -2.269  10.779  17.838  0.00  0.00    +0.000 A 
ATOM     23  C   UNL     1      -3.421  11.479  18.228  0.00  0.00    +0.000 A 
ATOM     24  C   UNL     1      -4.468  11.663  17.323  0.00  0.00    +0.000 A 
ATOM     25  C   UNL     1      -4.375  11.150  16.030  0.00  0.00    +0.000 A 
ATOM     26  C   UNL     1      -3.233  10.456  15.637  0.00  0.00    +0.000 A 
ATOM     27  C   UNL     1      -2.179  10.274  16.535  0.00  0.00    +0.000 A 
ENDBRANCH  20  22
ENDBRANCH  16  17
ENDBRANCH   2  16
TORSDOF 5
ENDMDL
MODEL 5
REMARK VINA RESULT:      -7.8      6.724      8.301
REMARK  Name = 
REMARK  5 active torsions:
REMARK  status: ('A' for Active; 'I' for Inactive)
REMARK    1  A    between atoms: C_2  and  C_3
REMARK    2  A    between atoms: C_3  and  C_4
REMARK    3  A    between atoms: N_7  and  C_8
REMARK    4  A    between atoms: N_15  and  C_16
REMARK    5  A    between atoms: C_20  and  N_21
REMARK                            x       y       z     vdW  Elec       q    Type
REMARK                         _______ _______ _______ _____ _____    ______ ____
ROOT
ATOM      1  O   UNL     1       8.810   7.919  19.077  0.00  0.00    +0.000 OA
ATOM      2  C   UNL     1       8.241   8.464  18.132  0.00  0.00    +0.000 C 
ATOM      3  N   UNL     1       8.270   9.821  17.842  0.00  0.00    +0.000 N 
ATOM      4  H   UNL     1       7.774  10.132  17.015  0.00  0.00    +0.000 HD
ENDROOT
BRANCH   3   5
ATOM      5  C   UNL     1       8.978  10.821  18.549  0.00  0.00    +0.000 A 
ATOM      6  C   UNL     1       9.570  10.606  19.793  0.00  0.00    +0.000 A 
ATOM      7  C   UNL     1      10.279  11.622  20.436  0.00  0.00    +0.000 A 
ATOM      8  C   UNL     1      10.432  12.863  19.827  0.00  0.00    +0.000 A 
ATOM      9  C   UNL     1       9.868  13.092  18.567  0.00  0.00    +0.000 A 
ATOM     10  C   UNL     1       9.111  12.080  17.945  0.00  0.00    +0.000 A 
BRANCH   9  11
ATOM     11  N   UNL     1      10.101  14.315  17.893  0.00  0.00    +0.000 N 
ATOM     12  C   UNL     1       9.362  15.471  17.914  0.00  0.00    +0.000 A 
ATOM     13  N   UNL     1       9.968  16.391  17.198  0.00  0.00    +0.000 NA
ATOM     14  N   UNL     1      11.104  15.796  16.719  0.00  0.00    +0.000 NA
ATOM     15  N   UNL     1      11.196  14.537  17.134  0.00  0.00    +0.000 NA
ENDBRANCH   9  11
ENDBRANCH   3   5
BRANCH   2  16
ATOM     16  C   UNL     1       7.465   7.640  17.118  0.00  0.00    +0.000 C 
BRANCH  16  17
ATOM     17  C   UNL     1       6.726   6.489  17.710  0.00  0.00    +0.000 A 
ATOM     18  C   UNL     1       7.181   5.443  18.540  0.00  0.00    +0.000 A 
ATOM     19  N   UNL     1       6.221   4.569  18.848  0.00  0.00    +0.000 NA
ATOM     20  N   UNL     1       5.131   4.997  18.166  0.00  0.00    +0.000 N 
ATOM     21  C   UNL     1       5.395   6.182  17.511  0.00  0.00    +0.000 A 
BRANCH  20  22
ATOM     22  C   UNL     1       3.923   4.250  18.149  0.00  0.00    +0.000 A 
ATOM     23  C   UNL     1       2.704   4.904  17.911  0.00  0.00    +0.000 A 
ATOM     24  C   UNL     1       1.508   4.183  17.924  0.00  0.00    +0.000 A 
ATOM     25  C   UNL     1       1.519   2.812  18.179  0.00  0.00    +0.000 A 
ATOM     26  C   UNL     1       2.726   2.157  18.416  0.00  0.00    +0.000 A 
ATOM     27  C   UNL     1       3.926   2.871  18.397  0.00  0.00    +0.000 A 
ENDBRANCH  20  22
ENDBRANCH  16  17
ENDBRANCH   2  16
TORSDOF 5
ENDMDL
MODEL 6
REMARK VINA RESULT:      -7.7      5.962      7.451
REMARK  Name = 
REMARK  5 active torsions:
REMARK  status: ('A' for Active; 'I' for Inactive)
REMARK    1  A    between atoms: C_2  and  C_3
REMARK    2  A    between atoms: C_3  and  C_4
REMARK    3  A    between atoms: N_7  and  C_8
REMARK    4  A    between atoms: N_15  and  C_16
REMARK    5  A    between atoms: C_20  and  N_21
REMARK                            x       y       z     vdW  Elec       q    Type
REMARK                         _______ _______ _______ _____ _____    ______ ____
ROOT
ATOM      1  O   UNL     1       7.354   8.777  17.240  0.00  0.00    +0.000 OA
ATOM      2  C   UNL     1       8.025   8.174  18.076  0.00  0.00    +0.000 C 
ATOM      3  N   UNL     1       8.925   8.751  18.962  0.00  0.00    +0.000 N 
ATOM      4  H   UNL     1       9.394   8.136  19.616  0.00  0.00    +0.000 HD
ENDROOT
BRANCH   3   5
ATOM      5  C   UNL     1       9.212  10.129  19.096  0.00  0.00    +0.000 A 
ATOM      6  C   UNL     1       9.612  10.936  18.030  0.00  0.00    +0.000 A 
ATOM      7  C   UNL     1       9.859  12.297  18.213  0.00  0.00    +0.000 A 
ATOM      8  C   UNL     1       9.681  12.879  19.465  0.00  0.00    +0.000 A 
ATOM      9  C   UNL     1       9.256  12.093  20.542  0.00  0.00    +0.000 A 
ATOM     10  C   UNL     1       9.056  10.711  20.363  0.00  0.00    +0.000 A 
BRANCH   9  11
ATOM     11  N   UNL     1       8.975  12.692  21.793  0.00  0.00    +0.000 N 
ATOM     12  C   UNL     1       8.521  12.111  22.951  0.00  0.00    +0.000 A 
ATOM     13  N   UNL     1       8.457  13.018  23.899  0.00  0.00    +0.000 NA
ATOM     14  N   UNL     1       8.875  14.187  23.321  0.00  0.00    +0.000 NA
ATOM     15  N   UNL     1       9.193  14.002  22.045  0.00  0.00    +0.000 NA
ENDBRANCH   9  11
ENDBRANCH   3   5
BRANCH   2  16
ATOM     16  C   UNL     1       7.873   6.672  18.252  0.00  0.00    +0.000 C 
BRANCH  16  17
ATOM     17  C   UNL     1       6.502   6.163  17.964  0.00  0.00    +0.000 A 
ATOM     18  C   UNL     1       5.747   6.202  16.773  0.00  0.00    +0.000 A 
ATOM     19  N   UNL     1       4.534   5.664  16.910  0.00  0.00    +0.000 NA
ATOM     20  N   UNL     1       4.451   5.322  18.219  0.00  0.00    +0.000 N 
ATOM     21  C   UNL     1       5.645   5.567  18.866  0.00  0.00    +0.000 A 
BRANCH  20  22
ATOM     22  C   UNL     1       3.249   4.816  18.782  0.00  0.00    +0.000 A 
ATOM     23  C   UNL     1       2.881   5.190  20.084  0.00  0.00    +0.000 A 
ATOM     24  C   UNL     1       1.717   4.673  20.658  0.00  0.00    +0.000 A 
ATOM     25  C   UNL     1       0.920   3.781  19.942  0.00  0.00    +0.000 A 
ATOM     26  C   UNL     1       1.280   3.407  18.649  0.00  0.00    +0.000 A 
ATOM     27  C   UNL     1       2.438   3.926  18.067  0.00  0.00    +0.000 A 
ENDBRANCH  20  22
ENDBRANCH  16  17
ENDBRANCH   2  16
TORSDOF 5
ENDMDL
MODEL 7
REMARK VINA RESULT:      -7.7      3.384     10.167
REMARK  Name = 
REMARK  5 active torsions:
REMARK  status: ('A' for Active; 'I' for Inactive)
REMARK    1  A    between atoms: C_2  and  C_3
REMARK    2  A    between atoms: C_3  and  C_4
REMARK    3  A    between atoms: N_7  and  C_8
REMARK    4  A    between atoms: N_15  and  C_16
REMARK    5  A    between atoms: C_20  and  N_21
REMARK                            x       y       z     vdW  Elec       q    Type
REMARK                         _______ _______ _______ _____ _____    ______ ____
ROOT
ATOM      1  O   UNL     1       1.536   8.426  20.036  0.00  0.00    +0.000 OA
ATOM      2  C   UNL     1       1.765   8.781  18.881  0.00  0.00    +0.000 C 
ATOM      3  N   UNL     1       2.362   8.004  17.898  0.00  0.00    +0.000 N 
ATOM      4  H   UNL     1       2.469   8.416  16.978  0.00  0.00    +0.000 HD
ENDROOT
BRANCH   3   5
ATOM      5  C   UNL     1       2.785   6.660  18.024  0.00  0.00    +0.000 A 
ATOM      6  C   UNL     1       1.912   5.603  18.282  0.00  0.00    +0.000 A 
ATOM      7  C   UNL     1       2.379   4.292  18.373  0.00  0.00    +0.000 A 
ATOM      8  C   UNL     1       3.728   4.013  18.176  0.00  0.00    +0.000 A 
ATOM      9  C   UNL     1       4.617   5.055  17.890  0.00  0.00    +0.000 A 
ATOM     10  C   UNL     1       4.149   6.383  17.850  0.00  0.00    +0.000 A 
BRANCH   9  11
ATOM     11  N   UNL     1       5.972   4.774  17.590  0.00  0.00    +0.000 N 
ATOM     12  C   UNL     1       6.604   4.754  16.372  0.00  0.00    +0.000 A 
ATOM     13  N   UNL     1       7.882   4.509  16.548  0.00  0.00    +0.000 NA
ATOM     14  N   UNL     1       8.050   4.370  17.899  0.00  0.00    +0.000 NA
ATOM     15  N   UNL     1       6.898   4.529  18.542  0.00  0.00    +0.000 NA
ENDBRANCH   9  11
ENDBRANCH   3   5
BRANCH   2  16
ATOM     16  C   UNL     1       1.337  10.156  18.396  0.00  0.00    +0.000 C 
BRANCH  16  17
ATOM     17  C   UNL     1      -0.137  10.374  18.412  0.00  0.00    +0.000 A 
ATOM     18  C   UNL     1      -1.153   9.793  17.623  0.00  0.00    +0.000 A 
ATOM     19  N   UNL     1      -2.367  10.265  17.911  0.00  0.00    +0.000 NA
ATOM     20  N   UNL     1      -2.155  11.217  18.853  0.00  0.00    +0.000 N 
ATOM     21  C   UNL     1      -0.823  11.267  19.209  0.00  0.00    +0.000 A 
BRANCH  20  22
ATOM     22  C   UNL     1      -3.211  12.036  19.335  0.00  0.00    +0.000 A 
ATOM     23  C   UNL     1      -2.978  12.913  20.405  0.00  0.00    +0.000 A 
ATOM     24  C   UNL     1      -4.018  13.698  20.906  0.00  0.00    +0.000 A 
ATOM     25  C   UNL     1      -5.293  13.612  20.349  0.00  0.00    +0.000 A 
ATOM     26  C   UNL     1      -5.531  12.743  19.285  0.00  0.00    +0.000 A 
ATOM     27  C   UNL     1      -4.494  11.960  18.775  0.00  0.00    +0.000 A 
ENDBRANCH  20  22
ENDBRANCH  16  17
ENDBRANCH   2  16
TORSDOF 5
ENDMDL
MODEL 8
REMARK VINA RESULT:      -7.6      4.444      6.631
REMARK  Name = 
REMARK  5 active torsions:
REMARK  status: ('A' for Active; 'I' for Inactive)
REMARK    1  A    between atoms: C_2  and  C_3
REMARK    2  A    between atoms: C_3  and  C_4
REMARK    3  A    between atoms: N_7  and  C_8
REMARK    4  A    between atoms: N_15  and  C_16
REMARK    5  A    between atoms: C_20  and  N_21
REMARK                            x       y       z     vdW  Elec       q    Type
REMARK                         _______ _______ _______ _____ _____    ______ ____
ROOT
ATOM      1  O   UNL     1       0.193  11.935  18.564  0.00  0.00    +0.000 OA
ATOM      2  C   UNL     1      -0.186  10.945  19.188  0.00  0.00    +0.000 C 
ATOM      3  N   UNL     1      -1.323  10.198  18.910  0.00  0.00    +0.000 N 
ATOM      4  H   UNL     1      -1.503   9.389  19.492  0.00  0.00    +0.000 HD
ENDROOT
BRANCH   3   5
ATOM      5  C   UNL     1      -2.233  10.409  17.848  0.00  0.00    +0.000 A 
ATOM      6  C   UNL     1      -2.017   9.945  16.550  0.00  0.00    +0.000 A 
ATOM      7  C   UNL     1      -2.960  10.160  15.544  0.00  0.00    +0.000 A 
ATOM      8  C   UNL     1      -4.152  10.818  15.830  0.00  0.00    +0.000 A 
ATOM      9  C   UNL     1      -4.401  11.268  17.132  0.00  0.00    +0.000 A 
ATOM     10  C   UNL     1      -3.424  11.093  18.131  0.00  0.00    +0.000 A 
BRANCH   9  11
ATOM     11  N   UNL     1      -5.650  11.849  17.458  0.00  0.00    +0.000 N 
ATOM     12  C   UNL     1      -6.565  11.463  18.406  0.00  0.00    +0.000 A 
ATOM     13  N   UNL     1      -7.562  12.318  18.423  0.00  0.00    +0.000 NA
ATOM     14  N   UNL     1      -7.265  13.252  17.467  0.00  0.00    +0.000 NA
ATOM     15  N   UNL     1      -6.108  12.979  16.875  0.00  0.00    +0.000 NA
ENDBRANCH   9  11
ENDBRANCH   3   5
BRANCH   2  16
ATOM     16  C   UNL     1       0.637  10.397  20.342  0.00  0.00    +0.000 C 
BRANCH  16  17
ATOM     17  C   UNL     1       1.204   9.041  20.093  0.00  0.00    +0.000 A 
ATOM     18  C   UNL     1       1.273   7.913  20.938  0.00  0.00    +0.000 A 
ATOM     19  N   UNL     1       1.888   6.875  20.369  0.00  0.00    +0.000 NA
ATOM     20  N   UNL     1       2.291   7.332  19.158  0.00  0.00    +0.000 N 
ATOM     21  C   UNL     1       1.847   8.621  18.947  0.00  0.00    +0.000 A 
BRANCH  20  22
ATOM     22  C   UNL     1       3.091   6.539  18.292  0.00  0.00    +0.000 A 
ATOM     23  C   UNL     1       2.970   5.141  18.319  0.00  0.00    +0.000 A 
ATOM     24  C   UNL     1       3.775   4.353  17.494  0.00  0.00    +0.000 A 
ATOM     25  C   UNL     1       4.705   4.950  16.644  0.00  0.00    +0.000 A 
ATOM     26  C   UNL     1       4.829   6.338  16.612  0.00  0.00    +0.000 A 
ATOM     27  C   UNL     1       4.022   7.132  17.429  0.00  0.00    +0.000 A 
ENDBRANCH  20  22
ENDBRANCH  16  17
ENDBRANCH   2  16
TORSDOF 5
ENDMDL
MODEL 9
REMARK VINA RESULT:      -7.6      3.059      9.419
REMARK  Name = 
REMARK  5 active torsions:
REMARK  status: ('A' for Active; 'I' for Inactive)
REMARK    1  A    between atoms: C_2  and  C_3
REMARK    2  A    between atoms: C_3  and  C_4
REMARK    3  A    between atoms: N_7  and  C_8
REMARK    4  A    between atoms: N_15  and  C_16
REMARK    5  A    between atoms: C_20  and  N_21
REMARK                            x       y       z     vdW  Elec       q    Type
REMARK                         _______ _______ _______ _____ _____    ______ ____
ROOT
ATOM      1  O   UNL     1       2.087   8.240  18.906  0.00  0.00    +0.000 OA
ATOM      2  C   UNL     1       1.671   8.010  20.041  0.00  0.00    +0.000 C 
ATOM      3  N   UNL     1       1.738   6.788  20.696  0.00  0.00    +0.000 N 
ATOM      4  H   UNL     1       1.377   6.746  21.641  0.00  0.00    +0.000 HD
ENDROOT
BRANCH   3   5
ATOM      5  C   UNL     1       2.321   5.597  20.204  0.00  0.00    +0.000 A 
ATOM      6  C   UNL     1       1.631   4.389  20.107  0.00  0.00    +0.000 A 
ATOM      7  C   UNL     1       2.248   3.249  19.591  0.00  0.00    +0.000 A 
ATOM      8  C   UNL     1       3.562   3.308  19.136  0.00  0.00    +0.000 A 
ATOM      9  C   UNL     1       4.265   4.516  19.201  0.00  0.00    +0.000 A 
ATOM     10  C   UNL     1       3.654   5.651  19.768  0.00  0.00    +0.000 A 
BRANCH   9  11
ATOM     11  N   UNL     1       5.565   4.614  18.651  0.00  0.00    +0.000 N 
ATOM     12  C   UNL     1       5.951   4.624  17.334  0.00  0.00    +0.000 A 
ATOM     13  N   UNL     1       7.251   4.797  17.261  0.00  0.00    +0.000 NA
ATOM     14  N   UNL     1       7.684   4.893  18.557  0.00  0.00    +0.000 NA
ATOM     15  N   UNL     1       6.671   4.784  19.408  0.00  0.00    +0.000 NA
ENDBRANCH   9  11
ENDBRANCH   3   5
BRANCH   2  16
ATOM     16  C   UNL     1       1.068   9.122  20.883  0.00  0.00    +0.000 C 
BRANCH  16  17
ATOM     17  C   UNL     1       0.256  10.100  20.106  0.00  0.00    +0.000 A 
ATOM     18  C   UNL     1       0.510  11.453  19.795  0.00  0.00    +0.000 A 
ATOM     19  N   UNL     1      -0.475  12.019  19.096  0.00  0.00    +0.000 NA
ATOM     20  N   UNL     1      -1.425  11.058  18.993  0.00  0.00    +0.000 N 
ATOM     21  C   UNL     1      -0.987   9.874  19.551  0.00  0.00    +0.000 A 
BRANCH  20  22
ATOM     22  C   UNL     1      -2.691  11.322  18.405  0.00  0.00    +0.000 A 
ATOM     23  C   UNL     1      -2.905  11.022  17.051  0.00  0.00    +0.000 A 
ATOM     24  C   UNL     1      -4.136  11.308  16.457  0.00  0.00    +0.000 A 
ATOM     25  C   UNL     1      -5.155  11.896  17.204  0.00  0.00    +0.000 A 
ATOM     26  C   UNL     1      -4.949  12.195  18.550  0.00  0.00    +0.000 A 
ATOM     27  C   UNL     1      -3.723  11.905  19.152  0.00  0.00    +0.000 A 
ENDBRANCH  20  22
ENDBRANCH  16  17
ENDBRANCH   2  16
TORSDOF 5
ENDMDL
