MODEL 1
REMARK VINA RESULT:     -10.2      0.000      0.000
REMARK  Name = 
REMARK  4 active torsions:
REMARK  status: ('A' for Active; 'I' for Inactive)
REMARK    1  A    between atoms: C_2  and  C_17
REMARK    2  A    between atoms: N_3  and  C_4
REMARK    3  A    between atoms: C_4  and  C_5
REMARK    4  A    between atoms: C_4  and  C_11
REMARK                            x       y       z     vdW  Elec       q    Type
REMARK                         _______ _______ _______ _____ _____    ______ ____
ROOT
ATOM      1  O   UNL     1       5.755   4.511  19.068  0.00  0.00    +0.000 OA
ATOM      2  C   UNL     1       5.209   5.010  18.090  0.00  0.00    +0.000 C 
ATOM      3  N   UNL     1       4.144   5.856  18.166  0.00  0.00    +0.000 N 
ATOM      4  H   UNL     1       3.633   6.056  17.321  0.00  0.00    +0.000 HD
ENDROOT
BRANCH   2   5
ATOM      5  C   UNL     1       5.743   4.772  16.721  0.00  0.00    +0.000 C 
ATOM      6  C   UNL     1       5.026   4.397  15.642  0.00  0.00    +0.000 C 
ATOM      7  C   UNL     1       5.785   4.267  14.387  0.00  0.00    +0.000 A 
ATOM      8  C   UNL     1       5.352   3.494  13.311  0.00  0.00    +0.000 A 
ATOM      9  C   UNL     1       6.129   3.426  12.145  0.00  0.00    +0.000 A 
ATOM     10  C   UNL     1       7.302   4.178  12.028  0.00  0.00    +0.000 A 
ATOM     11  C   UNL     1       7.733   4.967  13.089  0.00  0.00    +0.000 A 
ATOM     12  C   UNL     1       7.004   4.961  14.273  0.00  0.00    +0.000 A 
ATOM     13  O   UNL     1       7.544   5.631  15.346  0.00  0.00    +0.000 OA
ATOM     14  C   UNL     1       7.226   4.942  16.571  0.00  0.00    +0.000 C 
ENDBRANCH   2   5
BRANCH   3  15
ATOM     15  C   UNL     1       3.326   5.961  19.376  0.00  0.00    +0.000 C 
BRANCH  15  16
ATOM     16  C   UNL     1       2.487   7.234  19.321  0.00  0.00    +0.000 A 
ATOM     17  C   UNL     1       2.380   7.975  18.129  0.00  0.00    +0.000 A 
ATOM     18  C   UNL     1       1.620   9.140  18.075  0.00  0.00    +0.000 A 
ATOM     19  C   UNL     1       0.945   9.586  19.207  0.00  0.00    +0.000 A 
ATOM     20  C   UNL     1       1.037   8.865  20.398  0.00  0.00    +0.000 A 
ATOM     21  C   UNL     1       1.806   7.698  20.457  0.00  0.00    +0.000 A 
ENDBRANCH  15  16
BRANCH  15  22
ATOM     22  C   UNL     1       2.456   4.704  19.496  0.00  0.00    +0.000 A 
ATOM     23  C   UNL     1       1.762   4.206  18.393  0.00  0.00    +0.000 A 
ATOM     24  C   UNL     1       0.984   3.060  18.555  0.00  0.00    +0.000 A 
ATOM     25  C   UNL     1       0.921   2.443  19.799  0.00  0.00    +0.000 A 
ATOM     26  C   UNL     1       1.650   2.988  20.839  0.00  0.00    +0.000 A 
ATOM     27  N   UNL     1       2.418   4.091  20.717  0.00  0.00    +0.000 NA
ENDBRANCH  15  22
ENDBRANCH   3  15
TORSDOF 4
ENDMDL
MODEL 2
REMARK VINA RESULT:     -10.2      0.551      1.336
REMARK  Name = 
REMARK  4 active torsions:
REMARK  status: ('A' for Active; 'I' for Inactive)
REMARK    1  A    between atoms: C_2  and  C_17
REMARK    2  A    between atoms: N_3  and  C_4
REMARK    3  A    between atoms: C_4  and  C_5
REMARK    4  A    between atoms: C_4  and  C_11
REMARK                            x       y       z     vdW  Elec       q    Type
REMARK                         _______ _______ _______ _____ _____    ______ ____
ROOT
ATOM      1  O   UNL     1       5.708   4.595  19.119  0.00  0.00    +0.000 OA
ATOM      2  C   UNL     1       5.160   5.073  18.131  0.00  0.00    +0.000 C 
ATOM      3  N   UNL     1       4.088   5.911  18.190  0.00  0.00    +0.000 N 
ATOM      4  H   UNL     1       3.577   6.093  17.341  0.00  0.00    +0.000 HD
ENDROOT
BRANCH   2   5
ATOM      5  C   UNL     1       5.699   4.816  16.768  0.00  0.00    +0.000 C 
ATOM      6  C   UNL     1       4.982   4.455  15.685  0.00  0.00    +0.000 C 
ATOM      7  C   UNL     1       5.747   4.301  14.436  0.00  0.00    +0.000 A 
ATOM      8  C   UNL     1       5.304   3.533  13.360  0.00  0.00    +0.000 A 
ATOM      9  C   UNL     1       6.088   3.441  12.201  0.00  0.00    +0.000 A 
ATOM     10  C   UNL     1       7.281   4.162  12.090  0.00  0.00    +0.000 A 
ATOM     11  C   UNL     1       7.723   4.945  13.152  0.00  0.00    +0.000 A 
ATOM     12  C   UNL     1       6.985   4.962  14.329  0.00  0.00    +0.000 A 
ATOM     13  O   UNL     1       7.533   5.623  15.404  0.00  0.00    +0.000 OA
ATOM     14  C   UNL     1       7.187   4.947  16.630  0.00  0.00    +0.000 C 
ENDBRANCH   2   5
BRANCH   3  15
ATOM     15  C   UNL     1       3.267   6.030  19.396  0.00  0.00    +0.000 C 
BRANCH  15  16
ATOM     16  C   UNL     1       2.433   7.306  19.327  0.00  0.00    +0.000 A 
ATOM     17  C   UNL     1       1.768   7.794  20.467  0.00  0.00    +0.000 A 
ATOM     18  C   UNL     1       1.002   8.956  20.407  0.00  0.00    +0.000 A 
ATOM     19  C   UNL     1       0.890   9.657  19.211  0.00  0.00    +0.000 A 
ATOM     20  C   UNL     1       1.542   9.190  18.070  0.00  0.00    +0.000 A 
ATOM     21  C   UNL     1       2.307   8.021  18.125  0.00  0.00    +0.000 A 
ENDBRANCH  15  16
BRANCH  15  22
ATOM     22  C   UNL     1       2.392   4.778  19.525  0.00  0.00    +0.000 A 
ATOM     23  C   UNL     1       2.138   4.207  20.772  0.00  0.00    +0.000 A 
ATOM     24  C   UNL     1       1.336   3.068  20.835  0.00  0.00    +0.000 A 
ATOM     25  C   UNL     1       0.809   2.534  19.665  0.00  0.00    +0.000 A 
ATOM     26  C   UNL     1       1.093   3.166  18.469  0.00  0.00    +0.000 A 
ATOM     27  N   UNL     1       1.859   4.272  18.371  0.00  0.00    +0.000 NA
ENDBRANCH  15  22
ENDBRANCH   3  15
TORSDOF 4
ENDMDL
MODEL 3
REMARK VINA RESULT:      -9.5      3.035      7.833
REMARK  Name = 
REMARK  4 active torsions:
REMARK  status: ('A' for Active; 'I' for Inactive)
REMARK    1  A    between atoms: C_2  and  C_17
REMARK    2  A    between atoms: N_3  and  C_4
REMARK    3  A    between atoms: C_4  and  C_5
REMARK    4  A    between atoms: C_4  and  C_11
REMARK                            x       y       z     vdW  Elec       q    Type
REMARK                         _______ _______ _______ _____ _____    ______ ____
ROOT
ATOM      1  O   UNL     1       2.481   8.673  17.278  0.00  0.00    +0.000 OA
ATOM      2  C   UNL     1       2.201   8.222  18.384  0.00  0.00    +0.000 C 
ATOM      3  N   UNL     1       2.640   7.018  18.845  0.00  0.00    +0.000 N 
ATOM      4  H   UNL     1       2.205   6.635  19.669  0.00  0.00    +0.000 HD
ENDROOT
BRANCH   2   5
ATOM      5  C   UNL     1       1.402   9.026  19.349  0.00  0.00    +0.000 C 
ATOM      6  C   UNL     1       1.177   8.721  20.643  0.00  0.00    +0.000 C 
ATOM      7  C   UNL     1       0.385   9.703  21.400  0.00  0.00    +0.000 A 
ATOM      8  C   UNL     1      -0.312   9.385  22.566  0.00  0.00    +0.000 A 
ATOM      9  C   UNL     1      -1.040  10.381  23.235  0.00  0.00    +0.000 A 
ATOM     10  C   UNL     1      -1.023  11.702  22.780  0.00  0.00    +0.000 A 
ATOM     11  C   UNL     1      -0.316  12.033  21.628  0.00  0.00    +0.000 A 
ATOM     12  C   UNL     1       0.331  11.026  20.922  0.00  0.00    +0.000 A 
ATOM     13  O   UNL     1       0.888  11.367  19.711  0.00  0.00    +0.000 OA
ATOM     14  C   UNL     1       0.773  10.266  18.786  0.00  0.00    +0.000 C 
ENDBRANCH   2   5
BRANCH   3  15
ATOM     15  C   UNL     1       3.173   5.995  17.944  0.00  0.00    +0.000 C 
BRANCH  15  16
ATOM     16  C   UNL     1       4.696   5.966  18.041  0.00  0.00    +0.000 A 
ATOM     17  C   UNL     1       5.335   5.414  19.167  0.00  0.00    +0.000 A 
ATOM     18  C   UNL     1       6.724   5.391  19.262  0.00  0.00    +0.000 A 
ATOM     19  C   UNL     1       7.503   5.911  18.233  0.00  0.00    +0.000 A 
ATOM     20  C   UNL     1       6.888   6.462  17.109  0.00  0.00    +0.000 A 
ATOM     21  C   UNL     1       5.493   6.493  17.013  0.00  0.00    +0.000 A 
ENDBRANCH  15  16
BRANCH  15  22
ATOM     22  C   UNL     1       2.549   4.641  18.307  0.00  0.00    +0.000 A 
ATOM     23  C   UNL     1       1.697   4.518  19.404  0.00  0.00    +0.000 A 
ATOM     24  C   UNL     1       1.155   3.266  19.692  0.00  0.00    +0.000 A 
ATOM     25  C   UNL     1       1.472   2.179  18.885  0.00  0.00    +0.000 A 
ATOM     26  C   UNL     1       2.312   2.385  17.807  0.00  0.00    +0.000 A 
ATOM     27  N   UNL     1       2.849   3.583  17.495  0.00  0.00    +0.000 NA
ENDBRANCH  15  22
ENDBRANCH   3  15
TORSDOF 4
ENDMDL
MODEL 4
REMARK VINA RESULT:      -9.4      3.005      7.744
REMARK  Name = 
REMARK  4 active torsions:
REMARK  status: ('A' for Active; 'I' for Inactive)
REMARK    1  A    between atoms: C_2  and  C_17
REMARK    2  A    between atoms: N_3  and  C_4
REMARK    3  A    between atoms: C_4  and  C_5
REMARK    4  A    between atoms: C_4  and  C_11
REMARK                            x       y       z     vdW  Elec       q    Type
REMARK                         _______ _______ _______ _____ _____    ______ ____
ROOT
ATOM      1  O   UNL     1       2.498   8.698  17.260  0.00  0.00    +0.000 OA
ATOM      2  C   UNL     1       2.222   8.236  18.361  0.00  0.00    +0.000 C 
ATOM      3  N   UNL     1       2.675   7.034  18.814  0.00  0.00    +0.000 N 
ATOM      4  H   UNL     1       2.242   6.639  19.634  0.00  0.00    +0.000 HD
ENDROOT
BRANCH   2   5
ATOM      5  C   UNL     1       1.412   9.023  19.331  0.00  0.00    +0.000 C 
ATOM      6  C   UNL     1       1.211   8.719  20.629  0.00  0.00    +0.000 C 
ATOM      7  C   UNL     1       0.401   9.684  21.391  0.00  0.00    +0.000 A 
ATOM      8  C   UNL     1      -0.273   9.354  22.566  0.00  0.00    +0.000 A 
ATOM      9  C   UNL     1      -1.021  10.332  23.238  0.00  0.00    +0.000 A 
ATOM     10  C   UNL     1      -1.046  11.651  22.776  0.00  0.00    +0.000 A 
ATOM     11  C   UNL     1      -0.362  11.994  21.614  0.00  0.00    +0.000 A 
ATOM     12  C   UNL     1       0.305  11.001  20.906  0.00  0.00    +0.000 A 
ATOM     13  O   UNL     1       0.837  11.350  19.686  0.00  0.00    +0.000 OA
ATOM     14  C   UNL     1       0.742  10.242  18.769  0.00  0.00    +0.000 C 
ENDBRANCH   2   5
BRANCH   3  15
ATOM     15  C   UNL     1       3.221   6.023  17.906  0.00  0.00    +0.000 C 
BRANCH  15  16
ATOM     16  C   UNL     1       4.741   5.986  18.033  0.00  0.00    +0.000 A 
ATOM     17  C   UNL     1       5.561   6.527  17.025  0.00  0.00    +0.000 A 
ATOM     18  C   UNL     1       6.949   6.492  17.134  0.00  0.00    +0.000 A 
ATOM     19  C   UNL     1       7.546   5.922  18.253  0.00  0.00    +0.000 A 
ATOM     20  C   UNL     1       6.751   5.381  19.264  0.00  0.00    +0.000 A 
ATOM     21  C   UNL     1       5.357   5.410  19.155  0.00  0.00    +0.000 A 
ENDBRANCH  15  16
BRANCH  15  22
ATOM     22  C   UNL     1       2.584   4.667  18.233  0.00  0.00    +0.000 A 
ATOM     23  C   UNL     1       2.861   3.541  17.458  0.00  0.00    +0.000 A 
ATOM     24  C   UNL     1       2.255   2.332  17.797  0.00  0.00    +0.000 A 
ATOM     25  C   UNL     1       1.400   2.275  18.892  0.00  0.00    +0.000 A 
ATOM     26  C   UNL     1       1.188   3.430  19.619  0.00  0.00    +0.000 A 
ATOM     27  N   UNL     1       1.761   4.616  19.324  0.00  0.00    +0.000 NA
ENDBRANCH  15  22
ENDBRANCH   3  15
TORSDOF 4
ENDMDL
MODEL 5
REMARK VINA RESULT:      -9.1      2.928      7.848
REMARK  Name = 
REMARK  4 active torsions:
REMARK  status: ('A' for Active; 'I' for Inactive)
REMARK    1  A    between atoms: C_2  and  C_17
REMARK    2  A    between atoms: N_3  and  C_4
REMARK    3  A    between atoms: C_4  and  C_5
REMARK    4  A    between atoms: C_4  and  C_11
REMARK                            x       y       z     vdW  Elec       q    Type
REMARK                         _______ _______ _______ _____ _____    ______ ____
ROOT
ATOM      1  O   UNL     1       2.262   8.694  17.426  0.00  0.00    +0.000 OA
ATOM      2  C   UNL     1       2.142   8.214  18.548  0.00  0.00    +0.000 C 
ATOM      3  N   UNL     1       2.685   7.023  18.926  0.00  0.00    +0.000 N 
ATOM      4  H   UNL     1       2.372   6.609  19.789  0.00  0.00    +0.000 HD
ENDROOT
BRANCH   2   5
ATOM      5  C   UNL     1       1.435   8.966  19.621  0.00  0.00    +0.000 C 
ATOM      6  C   UNL     1       0.843  10.170  19.491  0.00  0.00    +0.000 C 
ATOM      7  C   UNL     1       0.173  10.684  20.696  0.00  0.00    +0.000 A 
ATOM      8  C   UNL     1      -0.095  12.037  20.901  0.00  0.00    +0.000 A 
ATOM      9  C   UNL     1      -0.744  12.448  22.075  0.00  0.00    +0.000 A 
ATOM     10  C   UNL     1      -1.181  11.509  23.013  0.00  0.00    +0.000 A 
ATOM     11  C   UNL     1      -0.934  10.155  22.809  0.00  0.00    +0.000 A 
ATOM     12  C   UNL     1      -0.214   9.762  21.687  0.00  0.00    +0.000 A 
ATOM     13  O   UNL     1       0.141   8.436  21.601  0.00  0.00    +0.000 OA
ATOM     14  C   UNL     1       1.431   8.308  20.970  0.00  0.00    +0.000 C 
ENDBRANCH   2   5
BRANCH   3  15
ATOM     15  C   UNL     1       3.145   6.039  17.945  0.00  0.00    +0.000 C 
BRANCH  15  16
ATOM     16  C   UNL     1       4.668   5.962  17.968  0.00  0.00    +0.000 A 
ATOM     17  C   UNL     1       5.428   6.389  16.863  0.00  0.00    +0.000 A 
ATOM     18  C   UNL     1       6.818   6.316  16.878  0.00  0.00    +0.000 A 
ATOM     19  C   UNL     1       7.479   5.822  17.998  0.00  0.00    +0.000 A 
ATOM     20  C   UNL     1       6.744   5.396  19.105  0.00  0.00    +0.000 A 
ATOM     21  C   UNL     1       5.347   5.462  19.090  0.00  0.00    +0.000 A 
ENDBRANCH  15  16
BRANCH  15  22
ATOM     22  C   UNL     1       2.496   4.685  18.260  0.00  0.00    +0.000 A 
ATOM     23  C   UNL     1       2.762   3.564  17.474  0.00  0.00    +0.000 A 
ATOM     24  C   UNL     1       2.146   2.357  17.803  0.00  0.00    +0.000 A 
ATOM     25  C   UNL     1       1.292   2.297  18.898  0.00  0.00    +0.000 A 
ATOM     26  C   UNL     1       1.091   3.448  19.636  0.00  0.00    +0.000 A 
ATOM     27  N   UNL     1       1.674   4.631  19.352  0.00  0.00    +0.000 NA
ENDBRANCH  15  22
ENDBRANCH   3  15
TORSDOF 4
ENDMDL
MODEL 6
REMARK VINA RESULT:      -9.0      3.105      8.004
REMARK  Name = 
REMARK  4 active torsions:
REMARK  status: ('A' for Active; 'I' for Inactive)
REMARK    1  A    between atoms: C_2  and  C_17
REMARK    2  A    between atoms: N_3  and  C_4
REMARK    3  A    between atoms: C_4  and  C_5
REMARK    4  A    between atoms: C_4  and  C_11
REMARK                            x       y       z     vdW  Elec       q    Type
REMARK                         _______ _______ _______ _____ _____    ______ ____
ROOT
ATOM      1  O   UNL     1       2.137   8.738  17.523  0.00  0.00    +0.000 OA
ATOM      2  C   UNL     1       2.013   8.303  18.662  0.00  0.00    +0.000 C 
ATOM      3  N   UNL     1       2.538   7.118  19.082  0.00  0.00    +0.000 N 
ATOM      4  H   UNL     1       2.221   6.742  19.962  0.00  0.00    +0.000 HD
ENDROOT
BRANCH   2   5
ATOM      5  C   UNL     1       1.325   9.107  19.709  0.00  0.00    +0.000 C 
ATOM      6  C   UNL     1       0.732  10.304  19.530  0.00  0.00    +0.000 C 
ATOM      7  C   UNL     1       0.082  10.878  20.720  0.00  0.00    +0.000 A 
ATOM      8  C   UNL     1      -0.182  12.239  20.864  0.00  0.00    +0.000 A 
ATOM      9  C   UNL     1      -0.811  12.707  22.027  0.00  0.00    +0.000 A 
ATOM     10  C   UNL     1      -1.234  11.815  23.016  0.00  0.00    +0.000 A 
ATOM     11  C   UNL     1      -0.992  10.452  22.873  0.00  0.00    +0.000 A 
ATOM     12  C   UNL     1      -0.291  10.005  21.760  0.00  0.00    +0.000 A 
ATOM     13  O   UNL     1       0.061   8.675  21.732  0.00  0.00    +0.000 OA
ATOM     14  C   UNL     1       1.341   8.515  21.088  0.00  0.00    +0.000 C 
ENDBRANCH   2   5
BRANCH   3  15
ATOM     15  C   UNL     1       2.976   6.090  18.137  0.00  0.00    +0.000 C 
BRANCH  15  16
ATOM     16  C   UNL     1       4.500   6.030  18.112  0.00  0.00    +0.000 A 
ATOM     17  C   UNL     1       5.212   5.383  19.140  0.00  0.00    +0.000 A 
ATOM     18  C   UNL     1       6.603   5.330  19.124  0.00  0.00    +0.000 A 
ATOM     19  C   UNL     1       7.312   5.914  18.079  0.00  0.00    +0.000 A 
ATOM     20  C   UNL     1       6.625   6.559  17.050  0.00  0.00    +0.000 A 
ATOM     21  C   UNL     1       5.227   6.619  17.066  0.00  0.00    +0.000 A 
ENDBRANCH  15  16
BRANCH  15  22
ATOM     22  C   UNL     1       2.354   4.747  18.543  0.00  0.00    +0.000 A 
ATOM     23  C   UNL     1       1.618   4.627  19.720  0.00  0.00    +0.000 A 
ATOM     24  C   UNL     1       1.074   3.384  20.044  0.00  0.00    +0.000 A 
ATOM     25  C   UNL     1       1.272   2.304  19.191  0.00  0.00    +0.000 A 
ATOM     26  C   UNL     1       2.001   2.508  18.035  0.00  0.00    +0.000 A 
ATOM     27  N   UNL     1       2.536   3.696  17.687  0.00  0.00    +0.000 NA
ENDBRANCH  15  22
ENDBRANCH   3  15
TORSDOF 4
ENDMDL
MODEL 7
REMARK VINA RESULT:      -8.4      0.873      1.714
REMARK  Name = 
REMARK  4 active torsions:
REMARK  status: ('A' for Active; 'I' for Inactive)
REMARK    1  A    between atoms: C_2  and  C_17
REMARK    2  A    between atoms: N_3  and  C_4
REMARK    3  A    between atoms: C_4  and  C_5
REMARK    4  A    between atoms: C_4  and  C_11
REMARK                            x       y       z     vdW  Elec       q    Type
REMARK                         _______ _______ _______ _____ _____    ______ ____
ROOT
ATOM      1  O   UNL     1       5.882   5.474  18.955  0.00  0.00    +0.000 OA
ATOM      2  C   UNL     1       5.100   5.624  18.022  0.00  0.00    +0.000 C 
ATOM      3  N   UNL     1       3.865   6.183  18.152  0.00  0.00    +0.000 N 
ATOM      4  H   UNL     1       3.214   6.083  17.389  0.00  0.00    +0.000 HD
ENDROOT
BRANCH   2   5
ATOM      5  C   UNL     1       5.498   5.262  16.634  0.00  0.00    +0.000 C 
ATOM      6  C   UNL     1       6.665   5.574  16.035  0.00  0.00    +0.000 C 
ATOM      7  C   UNL     1       6.834   5.062  14.665  0.00  0.00    +0.000 A 
ATOM      8  C   UNL     1       7.723   5.620  13.747  0.00  0.00    +0.000 A 
ATOM      9  C   UNL     1       7.831   5.070  12.461  0.00  0.00    +0.000 A 
ATOM     10  C   UNL     1       7.103   3.929  12.111  0.00  0.00    +0.000 A 
ATOM     11  C   UNL     1       6.227   3.355  13.026  0.00  0.00    +0.000 A 
ATOM     12  C   UNL     1       6.060   3.956  14.268  0.00  0.00    +0.000 A 
ATOM     13  O   UNL     1       5.075   3.448  15.084  0.00  0.00    +0.000 OA
ATOM     14  C   UNL     1       4.467   4.510  15.846  0.00  0.00    +0.000 C 
ENDBRANCH   2   5
BRANCH   3  15
ATOM     15  C   UNL     1       3.212   6.318  19.455  0.00  0.00    +0.000 C 
BRANCH  15  16
ATOM     16  C   UNL     1       2.298   7.540  19.448  0.00  0.00    +0.000 A 
ATOM     17  C   UNL     1       1.609   7.931  20.611  0.00  0.00    +0.000 A 
ATOM     18  C   UNL     1       0.771   9.043  20.608  0.00  0.00    +0.000 A 
ATOM     19  C   UNL     1       0.609   9.791  19.447  0.00  0.00    +0.000 A 
ATOM     20  C   UNL     1       1.284   9.422  18.284  0.00  0.00    +0.000 A 
ATOM     21  C   UNL     1       2.122   8.302  18.282  0.00  0.00    +0.000 A 
ENDBRANCH  15  16
BRANCH  15  22
ATOM     22  C   UNL     1       2.442   5.027  19.760  0.00  0.00    +0.000 A 
ATOM     23  C   UNL     1       1.736   4.361  18.758  0.00  0.00    +0.000 A 
ATOM     24  C   UNL     1       1.053   3.192  19.087  0.00  0.00    +0.000 A 
ATOM     25  C   UNL     1       1.092   2.717  20.394  0.00  0.00    +0.000 A 
ATOM     26  C   UNL     1       1.826   3.425  21.326  0.00  0.00    +0.000 A 
ATOM     27  N   UNL     1       2.505   4.556  21.042  0.00  0.00    +0.000 NA
ENDBRANCH  15  22
ENDBRANCH   3  15
TORSDOF 4
ENDMDL
MODEL 8
REMARK VINA RESULT:      -8.4      3.157      7.890
REMARK  Name = 
REMARK  4 active torsions:
REMARK  status: ('A' for Active; 'I' for Inactive)
REMARK    1  A    between atoms: C_2  and  C_17
REMARK    2  A    between atoms: N_3  and  C_4
REMARK    3  A    between atoms: C_4  and  C_5
REMARK    4  A    between atoms: C_4  and  C_11
REMARK                            x       y       z     vdW  Elec       q    Type
REMARK                         _______ _______ _______ _____ _____    ______ ____
ROOT
ATOM      1  O   UNL     1       2.329   8.859  17.173  0.00  0.00    +0.000 OA
ATOM      2  C   UNL     1       2.049   8.566  18.330  0.00  0.00    +0.000 C 
ATOM      3  N   UNL     1       2.408   7.393  18.923  0.00  0.00    +0.000 N 
ATOM      4  H   UNL     1       1.970   7.145  19.796  0.00  0.00    +0.000 HD
ENDROOT
BRANCH   2   5
ATOM      5  C   UNL     1       1.343   9.538  19.209  0.00  0.00    +0.000 C 
ATOM      6  C   UNL     1       0.940  10.776  18.861  0.00  0.00    +0.000 C 
ATOM      7  C   UNL     1       0.223  11.529  19.903  0.00  0.00    +0.000 A 
ATOM      8  C   UNL     1       0.124  12.920  19.908  0.00  0.00    +0.000 A 
ATOM      9  C   UNL     1      -0.583  13.564  20.934  0.00  0.00    +0.000 A 
ATOM     10  C   UNL     1      -1.243  12.822  21.918  0.00  0.00    +0.000 A 
ATOM     11  C   UNL     1      -1.164  11.433  21.912  0.00  0.00    +0.000 A 
ATOM     12  C   UNL     1      -0.391  10.806  20.943  0.00  0.00    +0.000 A 
ATOM     13  O   UNL     1      -0.215   9.447  21.063  0.00  0.00    +0.000 OA
ATOM     14  C   UNL     1       1.105   9.076  20.616  0.00  0.00    +0.000 C 
ENDBRANCH   2   5
BRANCH   3  15
ATOM     15  C   UNL     1       2.834   6.231  18.140  0.00  0.00    +0.000 C 
BRANCH  15  16
ATOM     16  C   UNL     1       4.357   6.137  18.145  0.00  0.00    +0.000 A 
ATOM     17  C   UNL     1       5.121   6.781  17.154  0.00  0.00    +0.000 A 
ATOM     18  C   UNL     1       6.511   6.694  17.153  0.00  0.00    +0.000 A 
ATOM     19  C   UNL     1       7.166   5.969  18.143  0.00  0.00    +0.000 A 
ATOM     20  C   UNL     1       6.427   5.325  19.135  0.00  0.00    +0.000 A 
ATOM     21  C   UNL     1       5.030   5.405  19.136  0.00  0.00    +0.000 A 
ENDBRANCH  15  16
BRANCH  15  22
ATOM     22  C   UNL     1       2.178   4.973  18.724  0.00  0.00    +0.000 A 
ATOM     23  C   UNL     1       1.700   4.958  20.033  0.00  0.00    +0.000 A 
ATOM     24  C   UNL     1       1.113   3.789  20.516  0.00  0.00    +0.000 A 
ATOM     25  C   UNL     1       1.014   2.677  19.688  0.00  0.00    +0.000 A 
ATOM     26  C   UNL     1       1.497   2.776  18.397  0.00  0.00    +0.000 A 
ATOM     27  N   UNL     1       2.066   3.892  17.894  0.00  0.00    +0.000 NA
ENDBRANCH  15  22
ENDBRANCH   3  15
TORSDOF 4
ENDMDL
MODEL 9
REMARK VINA RESULT:      -8.3      0.981      1.699
REMARK  Name = 
REMARK  4 active torsions:
REMARK  status: ('A' for Active; 'I' for Inactive)
REMARK    1  A    between atoms: C_2  and  C_17
REMARK    2  A    between atoms: N_3  and  C_4
REMARK    3  A    between atoms: C_4  and  C_5
REMARK    4  A    between atoms: C_4  and  C_11
REMARK                            x       y       z     vdW  Elec       q    Type
REMARK                         _______ _______ _______ _____ _____    ______ ____
ROOT
ATOM      1  O   UNL     1       5.868   5.356  18.980  0.00  0.00    +0.000 OA
ATOM      2  C   UNL     1       5.100   5.551  18.044  0.00  0.00    +0.000 C 
ATOM      3  N   UNL     1       3.877   6.137  18.176  0.00  0.00    +0.000 N 
ATOM      4  H   UNL     1       3.232   6.074  17.404  0.00  0.00    +0.000 HD
ENDROOT
BRANCH   2   5
ATOM      5  C   UNL     1       5.504   5.216  16.651  0.00  0.00    +0.000 C 
ATOM      6  C   UNL     1       6.684   5.515  16.072  0.00  0.00    +0.000 C 
ATOM      7  C   UNL     1       6.855   5.036  14.691  0.00  0.00    +0.000 A 
ATOM      8  C   UNL     1       7.767   5.597  13.797  0.00  0.00    +0.000 A 
ATOM      9  C   UNL     1       7.876   5.079  12.498  0.00  0.00    +0.000 A 
ATOM     10  C   UNL     1       7.124   3.965  12.110  0.00  0.00    +0.000 A 
ATOM     11  C   UNL     1       6.225   3.388  13.001  0.00  0.00    +0.000 A 
ATOM     12  C   UNL     1       6.059   3.960  14.257  0.00  0.00    +0.000 A 
ATOM     13  O   UNL     1       5.054   3.454  15.049  0.00  0.00    +0.000 OA
ATOM     14  C   UNL     1       4.463   4.511  15.833  0.00  0.00    +0.000 C 
ENDBRANCH   2   5
BRANCH   3  15
ATOM     15  C   UNL     1       3.213   6.254  19.476  0.00  0.00    +0.000 C 
BRANCH  15  16
ATOM     16  C   UNL     1       2.311   7.484  19.484  0.00  0.00    +0.000 A 
ATOM     17  C   UNL     1       2.140   8.258  18.321  0.00  0.00    +0.000 A 
ATOM     18  C   UNL     1       1.321   9.385  18.325  0.00  0.00    +0.000 A 
ATOM     19  C   UNL     1       0.651   9.757  19.486  0.00  0.00    +0.000 A 
ATOM     20  C   UNL     1       0.807   9.002  20.649  0.00  0.00    +0.000 A 
ATOM     21  C   UNL     1       1.634   7.874  20.650  0.00  0.00    +0.000 A 
ENDBRANCH  15  16
BRANCH  15  22
ATOM     22  C   UNL     1       2.429   4.964  19.750  0.00  0.00    +0.000 A 
ATOM     23  C   UNL     1       2.325   4.451  21.042  0.00  0.00    +0.000 A 
ATOM     24  C   UNL     1       1.601   3.276  21.237  0.00  0.00    +0.000 A 
ATOM     25  C   UNL     1       1.003   2.648  20.151  0.00  0.00    +0.000 A 
ATOM     26  C   UNL     1       1.139   3.227  18.903  0.00  0.00    +0.000 A 
ATOM     27  N   UNL     1       1.826   4.367  18.678  0.00  0.00    +0.000 NA
ENDBRANCH  15  22
ENDBRANCH   3  15
TORSDOF 4
ENDMDL
