MODEL 1
REMARK VINA RESULT:      -9.3      0.000      0.000
REMARK  Name = 
REMARK  4 active torsions:
REMARK  status: ('A' for Active; 'I' for Inactive)
REMARK    1  A    between atoms: C_1  and  N_2
REMARK    2  A    between atoms: C_8  and  N_9
REMARK    3  A    between atoms: C_10  and  C_12
REMARK    4  A    between atoms: C_12  and  C_13
REMARK                            x       y       z     vdW  Elec       q    Type
REMARK                         _______ _______ _______ _____ _____    ______ ____
ROOT
ATOM      1  N   UNL     1       3.092   6.055  18.767  0.00  0.00    +0.000 N 
ATOM      2  C   UNL     1       2.561   4.934  18.132  0.00  0.00    +0.000 C 
ATOM      3  O   UNL     1       1.432   4.899  17.632  0.00  0.00    +0.000 OA
ATOM      4  H   UNL     1       3.941   5.918  19.305  0.00  0.00    +0.000 HD
ENDROOT
BRANCH   1  12
ATOM      5  C   UNL     1      -0.956  11.464  21.594  0.00  0.00    +0.000 C 
ATOM      6  N   UNL     1      -0.087  10.618  20.816  0.00  0.00    +0.000 N 
ATOM      7  C   UNL     1       0.268  10.854  19.517  0.00  0.00    +0.000 C 
ATOM      8  O   UNL     1      -0.024  11.786  18.793  0.00  0.00    +0.000 OA
ATOM      9  C   UNL     1       1.099   9.722  19.108  0.00  0.00    +0.000 A 
ATOM     10  C   UNL     1       1.689   9.439  17.899  0.00  0.00    +0.000 A 
ATOM     11  C   UNL     1       2.376   8.223  17.794  0.00  0.00    +0.000 A 
ATOM     12  C   UNL     1       2.462   7.316  18.877  0.00  0.00    +0.000 A 
ATOM     13  C   UNL     1       1.897   7.663  20.112  0.00  0.00    +0.000 A 
ATOM     14  C   UNL     1       1.207   8.862  20.185  0.00  0.00    +0.000 A 
ATOM     15  C   UNL     1       0.443   9.447  21.287  0.00  0.00    +0.000 C 
ATOM     16  O   UNL     1       0.328   8.934  22.381  0.00  0.00    +0.000 OA
ENDBRANCH   1  12
BRANCH   2  17
ATOM     17  C   UNL     1       3.510   3.669  18.113  0.00  0.00    +0.000 C 
ATOM     18  C   UNL     1       2.856   2.281  17.761  0.00  0.00    +0.000 C 
ATOM     19  C   UNL     1       3.669   1.655  18.907  0.00  0.00    +0.000 C 
ATOM     20  C   UNL     1       3.709   3.041  19.556  0.00  0.00    +0.000 C 
BRANCH  17  21
ATOM     21  C   UNL     1       4.861   4.080  17.319  0.00  0.00    +0.000 A 
ATOM     22  C   UNL     1       6.059   4.399  17.999  0.00  0.00    +0.000 A 
ATOM     23  C   UNL     1       7.247   4.713  17.327  0.00  0.00    +0.000 A 
ATOM     24  C   UNL     1       7.269   4.743  15.939  0.00  0.00    +0.000 A 
ATOM     25  C   UNL     1       6.102   4.468  15.244  0.00  0.00    +0.000 A 
ATOM     26  F   UNL     1       6.106   4.509  13.905  0.00  0.00    +0.000 F 
ATOM     27  C   UNL     1       4.920   4.144  15.912  0.00  0.00    +0.000 A 
ENDBRANCH  17  21
ENDBRANCH   2  17
TORSDOF 3
ENDMDL
MODEL 2
REMARK VINA RESULT:      -9.2      0.979      1.355
REMARK  Name = 
REMARK  4 active torsions:
REMARK  status: ('A' for Active; 'I' for Inactive)
REMARK    1  A    between atoms: C_1  and  N_2
REMARK    2  A    between atoms: C_8  and  N_9
REMARK    3  A    between atoms: C_10  and  C_12
REMARK    4  A    between atoms: C_12  and  C_13
REMARK                            x       y       z     vdW  Elec       q    Type
REMARK                         _______ _______ _______ _____ _____    ______ ____
ROOT
ATOM      1  N   UNL     1       3.007   6.005  18.816  0.00  0.00    +0.000 N 
ATOM      2  C   UNL     1       2.463   4.911  18.145  0.00  0.00    +0.000 C 
ATOM      3  O   UNL     1       1.348   4.917  17.615  0.00  0.00    +0.000 OA
ATOM      4  H   UNL     1       3.838   5.835  19.372  0.00  0.00    +0.000 HD
ENDROOT
BRANCH   1  12
ATOM      5  C   UNL     1      -0.854  11.514  21.711  0.00  0.00    +0.000 C 
ATOM      6  N   UNL     1      -0.022  10.646  20.916  0.00  0.00    +0.000 N 
ATOM      7  C   UNL     1       0.309  10.869  19.609  0.00  0.00    +0.000 C 
ATOM      8  O   UNL     1       0.021  11.804  18.888  0.00  0.00    +0.000 OA
ATOM      9  C   UNL     1       1.105   9.717  19.186  0.00  0.00    +0.000 A 
ATOM     10  C   UNL     1       1.661   9.417  17.965  0.00  0.00    +0.000 A 
ATOM     11  C   UNL     1       2.318   8.185  17.850  0.00  0.00    +0.000 A 
ATOM     12  C   UNL     1       2.408   7.281  18.935  0.00  0.00    +0.000 A 
ATOM     13  C   UNL     1       1.879   7.645  20.180  0.00  0.00    +0.000 A 
ATOM     14  C   UNL     1       1.217   8.859  20.264  0.00  0.00    +0.000 A 
ATOM     15  C   UNL     1       0.492   9.464  21.381  0.00  0.00    +0.000 C 
ATOM     16  O   UNL     1       0.390   8.958  22.479  0.00  0.00    +0.000 OA
ENDBRANCH   1  12
BRANCH   2  17
ATOM     17  C   UNL     1       3.379   3.622  18.125  0.00  0.00    +0.000 C 
ATOM     18  C   UNL     1       2.713   2.271  17.667  0.00  0.00    +0.000 C 
ATOM     19  C   UNL     1       3.435   1.570  18.831  0.00  0.00    +0.000 C 
ATOM     20  C   UNL     1       3.470   2.924  19.546  0.00  0.00    +0.000 C 
BRANCH  17  21
ATOM     21  C   UNL     1       4.788   4.030  17.436  0.00  0.00    +0.000 A 
ATOM     22  C   UNL     1       4.949   4.062  16.032  0.00  0.00    +0.000 A 
ATOM     23  C   UNL     1       6.146   4.455  15.419  0.00  0.00    +0.000 A 
ATOM     24  C   UNL     1       7.238   4.810  16.200  0.00  0.00    +0.000 A 
ATOM     25  C   UNL     1       7.122   4.756  17.580  0.00  0.00    +0.000 A 
ATOM     26  F   UNL     1       8.173   5.080  18.344  0.00  0.00    +0.000 F 
ATOM     27  C   UNL     1       5.926   4.375  18.191  0.00  0.00    +0.000 A 
ENDBRANCH  17  21
ENDBRANCH   2  17
TORSDOF 3
ENDMDL
MODEL 3
REMARK VINA RESULT:      -8.8      1.446      2.357
REMARK  Name = 
REMARK  4 active torsions:
REMARK  status: ('A' for Active; 'I' for Inactive)
REMARK    1  A    between atoms: C_1  and  N_2
REMARK    2  A    between atoms: C_8  and  N_9
REMARK    3  A    between atoms: C_10  and  C_12
REMARK    4  A    between atoms: C_12  and  C_13
REMARK                            x       y       z     vdW  Elec       q    Type
REMARK                         _______ _______ _______ _____ _____    ______ ____
ROOT
ATOM      1  N   UNL     1       2.882   5.605  19.313  0.00  0.00    +0.000 N 
ATOM      2  C   UNL     1       2.472   4.675  18.358  0.00  0.00    +0.000 C 
ATOM      3  O   UNL     1       1.417   4.766  17.722  0.00  0.00    +0.000 OA
ATOM      4  H   UNL     1       3.660   5.339  19.906  0.00  0.00    +0.000 HD
ENDROOT
BRANCH   1  12
ATOM      5  C   UNL     1       0.784  12.613  18.956  0.00  0.00    +0.000 C 
ATOM      6  N   UNL     1       0.971  11.215  19.252  0.00  0.00    +0.000 N 
ATOM      7  C   UNL     1       0.551  10.601  20.398  0.00  0.00    +0.000 C 
ATOM      8  O   UNL     1      -0.063  11.061  21.341  0.00  0.00    +0.000 OA
ATOM      9  C   UNL     1       1.003   9.212  20.308  0.00  0.00    +0.000 A 
ATOM     10  C   UNL     1       0.877   8.173  21.200  0.00  0.00    +0.000 A 
ATOM     11  C   UNL     1       1.486   6.960  20.854  0.00  0.00    +0.000 A 
ATOM     12  C   UNL     1       2.203   6.801  19.645  0.00  0.00    +0.000 A 
ATOM     13  C   UNL     1       2.263   7.864  18.734  0.00  0.00    +0.000 A 
ATOM     14  C   UNL     1       1.670   9.059  19.107  0.00  0.00    +0.000 A 
ATOM     15  C   UNL     1       1.644  10.354  18.426  0.00  0.00    +0.000 C 
ATOM     16  O   UNL     1       2.152  10.563  17.344  0.00  0.00    +0.000 OA
ENDBRANCH   1  12
BRANCH   2  17
ATOM     17  C   UNL     1       3.455   3.454  18.155  0.00  0.00    +0.000 C 
ATOM     18  C   UNL     1       2.842   2.120  17.588  0.00  0.00    +0.000 C 
ATOM     19  C   UNL     1       3.666   1.347  18.632  0.00  0.00    +0.000 C 
ATOM     20  C   UNL     1       3.665   2.618  19.486  0.00  0.00    +0.000 C 
BRANCH  17  21
ATOM     21  C   UNL     1       4.799   4.018  17.445  0.00  0.00    +0.000 A 
ATOM     22  C   UNL     1       4.900   4.153  16.041  0.00  0.00    +0.000 A 
ATOM     23  C   UNL     1       6.035   4.680  15.414  0.00  0.00    +0.000 A 
ATOM     24  C   UNL     1       7.127   5.071  16.177  0.00  0.00    +0.000 A 
ATOM     25  C   UNL     1       7.072   4.920  17.553  0.00  0.00    +0.000 A 
ATOM     26  F   UNL     1       8.125   5.279  18.300  0.00  0.00    +0.000 F 
ATOM     27  C   UNL     1       5.937   4.405  18.180  0.00  0.00    +0.000 A 
ENDBRANCH  17  21
ENDBRANCH   2  17
TORSDOF 3
ENDMDL
MODEL 4
REMARK VINA RESULT:      -8.7      1.075      1.938
REMARK  Name = 
REMARK  4 active torsions:
REMARK  status: ('A' for Active; 'I' for Inactive)
REMARK    1  A    between atoms: C_1  and  N_2
REMARK    2  A    between atoms: C_8  and  N_9
REMARK    3  A    between atoms: C_10  and  C_12
REMARK    4  A    between atoms: C_12  and  C_13
REMARK                            x       y       z     vdW  Elec       q    Type
REMARK                         _______ _______ _______ _____ _____    ______ ____
ROOT
ATOM      1  N   UNL     1       2.936   5.571  19.302  0.00  0.00    +0.000 N 
ATOM      2  C   UNL     1       2.536   4.640  18.346  0.00  0.00    +0.000 C 
ATOM      3  O   UNL     1       1.485   4.724  17.703  0.00  0.00    +0.000 OA
ATOM      4  H   UNL     1       3.712   5.310  19.900  0.00  0.00    +0.000 HD
ENDROOT
BRANCH   1  12
ATOM      5  C   UNL     1       0.791  12.564  18.924  0.00  0.00    +0.000 C 
ATOM      6  N   UNL     1       0.988  11.168  19.225  0.00  0.00    +0.000 N 
ATOM      7  C   UNL     1       0.571  10.554  20.372  0.00  0.00    +0.000 C 
ATOM      8  O   UNL     1      -0.047  11.013  21.313  0.00  0.00    +0.000 OA
ATOM      9  C   UNL     1       1.032   9.169  20.286  0.00  0.00    +0.000 A 
ATOM     10  C   UNL     1       0.913   8.132  21.181  0.00  0.00    +0.000 A 
ATOM     11  C   UNL     1       1.530   6.921  20.839  0.00  0.00    +0.000 A 
ATOM     12  C   UNL     1       2.249   6.763  19.630  0.00  0.00    +0.000 A 
ATOM     13  C   UNL     1       2.302   7.825  18.717  0.00  0.00    +0.000 A 
ATOM     14  C   UNL     1       1.701   9.017  19.086  0.00  0.00    +0.000 A 
ATOM     15  C   UNL     1       1.667  10.309  18.402  0.00  0.00    +0.000 C 
ATOM     16  O   UNL     1       2.174  10.518  17.319  0.00  0.00    +0.000 OA
ENDBRANCH   1  12
BRANCH   2  17
ATOM     17  C   UNL     1       3.527   3.424  18.148  0.00  0.00    +0.000 C 
ATOM     18  C   UNL     1       2.912   2.065  17.642  0.00  0.00    +0.000 C 
ATOM     19  C   UNL     1       3.779   1.335  18.682  0.00  0.00    +0.000 C 
ATOM     20  C   UNL     1       3.789   2.632  19.496  0.00  0.00    +0.000 C 
BRANCH  17  21
ATOM     21  C   UNL     1       4.840   3.980  17.378  0.00  0.00    +0.000 A 
ATOM     22  C   UNL     1       6.009   4.360  18.076  0.00  0.00    +0.000 A 
ATOM     23  C   UNL     1       7.167   4.800  17.423  0.00  0.00    +0.000 A 
ATOM     24  C   UNL     1       7.185   4.900  16.039  0.00  0.00    +0.000 A 
ATOM     25  C   UNL     1       6.043   4.568  15.327  0.00  0.00    +0.000 A 
ATOM     26  F   UNL     1       6.042   4.675  13.992  0.00  0.00    +0.000 F 
ATOM     27  C   UNL     1       4.892   4.118  15.976  0.00  0.00    +0.000 A 
ENDBRANCH  17  21
ENDBRANCH   2  17
TORSDOF 3
ENDMDL
MODEL 5
REMARK VINA RESULT:      -8.7      2.254      3.724
REMARK  Name = 
REMARK  4 active torsions:
REMARK  status: ('A' for Active; 'I' for Inactive)
REMARK    1  A    between atoms: C_1  and  N_2
REMARK    2  A    between atoms: C_8  and  N_9
REMARK    3  A    between atoms: C_10  and  C_12
REMARK    4  A    between atoms: C_12  and  C_13
REMARK                            x       y       z     vdW  Elec       q    Type
REMARK                         _______ _______ _______ _____ _____    ______ ____
ROOT
ATOM      1  N   UNL     1       2.247   7.182  19.492  0.00  0.00    +0.000 N 
ATOM      2  C   UNL     1       3.156   6.953  18.462  0.00  0.00    +0.000 C 
ATOM      3  O   UNL     1       3.410   7.775  17.575  0.00  0.00    +0.000 OA
ATOM      4  H   UNL     1       1.974   6.380  20.050  0.00  0.00    +0.000 HD
ENDROOT
BRANCH   1  12
ATOM      5  C   UNL     1      -1.601  12.306  23.040  0.00  0.00    +0.000 C 
ATOM      6  N   UNL     1      -0.840  11.514  22.106  0.00  0.00    +0.000 N 
ATOM      7  C   UNL     1      -0.791  11.736  20.759  0.00  0.00    +0.000 C 
ATOM      8  O   UNL     1      -1.316  12.613  20.100  0.00  0.00    +0.000 OA
ATOM      9  C   UNL     1       0.037  10.668  20.198  0.00  0.00    +0.000 A 
ATOM     10  C   UNL     1       0.382  10.398  18.895  0.00  0.00    +0.000 A 
ATOM     11  C   UNL     1       1.142   9.244  18.663  0.00  0.00    +0.000 A 
ATOM     12  C   UNL     1       1.540   8.387  19.716  0.00  0.00    +0.000 A 
ATOM     13  C   UNL     1       1.218   8.724  21.038  0.00  0.00    +0.000 A 
ATOM     14  C   UNL     1       0.449   9.859  21.239  0.00  0.00    +0.000 A 
ATOM     15  C   UNL     1      -0.116  10.410  22.470  0.00  0.00    +0.000 C 
ATOM     16  O   UNL     1       0.051   9.927  23.571  0.00  0.00    +0.000 OA
ENDBRANCH   1  12
BRANCH   2  17
ATOM     17  C   UNL     1       3.842   5.529  18.486  0.00  0.00    +0.000 C 
ATOM     18  C   UNL     1       5.370   5.469  18.863  0.00  0.00    +0.000 C 
ATOM     19  C   UNL     1       5.570   4.464  17.716  0.00  0.00    +0.000 C 
ATOM     20  C   UNL     1       4.331   5.069  17.049  0.00  0.00    +0.000 C 
BRANCH  17  21
ATOM     21  C   UNL     1       2.843   4.515  19.261  0.00  0.00    +0.000 A 
ATOM     22  C   UNL     1       2.861   4.381  20.668  0.00  0.00    +0.000 A 
ATOM     23  C   UNL     1       1.975   3.544  21.357  0.00  0.00    +0.000 A 
ATOM     24  C   UNL     1       1.049   2.787  20.651  0.00  0.00    +0.000 A 
ATOM     25  C   UNL     1       1.029   2.871  19.268  0.00  0.00    +0.000 A 
ATOM     26  F   UNL     1       0.150   2.134  18.575  0.00  0.00    +0.000 F 
ATOM     27  C   UNL     1       1.904   3.713  18.581  0.00  0.00    +0.000 A 
ENDBRANCH  17  21
ENDBRANCH   2  17
TORSDOF 3
ENDMDL
MODEL 6
REMARK VINA RESULT:      -8.7      0.898      1.037
REMARK  Name = 
REMARK  4 active torsions:
REMARK  status: ('A' for Active; 'I' for Inactive)
REMARK    1  A    between atoms: C_1  and  N_2
REMARK    2  A    between atoms: C_8  and  N_9
REMARK    3  A    between atoms: C_10  and  C_12
REMARK    4  A    between atoms: C_12  and  C_13
REMARK                            x       y       z     vdW  Elec       q    Type
REMARK                         _______ _______ _______ _____ _____    ______ ____
ROOT
ATOM      1  N   UNL     1       2.951   6.309  18.560  0.00  0.00    +0.000 N 
ATOM      2  C   UNL     1       2.497   5.047  18.940  0.00  0.00    +0.000 C 
ATOM      3  O   UNL     1       1.467   4.857  19.594  0.00  0.00    +0.000 OA
ATOM      4  H   UNL     1       3.895   6.366  18.196  0.00  0.00    +0.000 HD
ENDROOT
BRANCH   1  12
ATOM      5  C   UNL     1      -0.790  11.475  22.160  0.00  0.00    +0.000 C 
ATOM      6  N   UNL     1      -0.036  10.681  21.223  0.00  0.00    +0.000 N 
ATOM      7  C   UNL     1       0.055  10.938  19.884  0.00  0.00    +0.000 C 
ATOM      8  O   UNL     1      -0.420  11.853  19.238  0.00  0.00    +0.000 OA
ATOM      9  C   UNL     1       0.856   9.856  19.312  0.00  0.00    +0.000 A 
ATOM     10  C   UNL     1       1.223   9.609  18.010  0.00  0.00    +0.000 A 
ATOM     11  C   UNL     1       1.945   8.434  17.764  0.00  0.00    +0.000 A 
ATOM     12  C   UNL     1       2.284   7.533  18.801  0.00  0.00    +0.000 A 
ATOM     13  C   UNL     1       1.942   7.845  20.124  0.00  0.00    +0.000 A 
ATOM     14  C   UNL     1       1.212   9.002  20.340  0.00  0.00    +0.000 A 
ATOM     15  C   UNL     1       0.637   9.541  21.572  0.00  0.00    +0.000 C 
ATOM     16  O   UNL     1       0.758   9.021  22.662  0.00  0.00    +0.000 OA
ENDBRANCH   1  12
BRANCH   2  17
ATOM     17  C   UNL     1       3.422   3.846  18.491  0.00  0.00    +0.000 C 
ATOM     18  C   UNL     1       2.839   2.847  17.423  0.00  0.00    +0.000 C 
ATOM     19  C   UNL     1       3.408   1.688  18.260  0.00  0.00    +0.000 C 
ATOM     20  C   UNL     1       3.331   2.610  19.480  0.00  0.00    +0.000 C 
BRANCH  17  21
ATOM     21  C   UNL     1       4.905   4.441  18.223  0.00  0.00    +0.000 A 
ATOM     22  C   UNL     1       5.659   5.054  19.250  0.00  0.00    +0.000 A 
ATOM     23  C   UNL     1       6.959   5.534  19.048  0.00  0.00    +0.000 A 
ATOM     24  C   UNL     1       7.544   5.436  17.792  0.00  0.00    +0.000 A 
ATOM     25  C   UNL     1       6.818   4.872  16.756  0.00  0.00    +0.000 A 
ATOM     26  F   UNL     1       7.365   4.786  15.536  0.00  0.00    +0.000 F 
ATOM     27  C   UNL     1       5.526   4.383  16.959  0.00  0.00    +0.000 A 
ENDBRANCH  17  21
ENDBRANCH   2  17
TORSDOF 3
ENDMDL
MODEL 7
REMARK VINA RESULT:      -8.7      2.482      3.937
REMARK  Name = 
REMARK  4 active torsions:
REMARK  status: ('A' for Active; 'I' for Inactive)
REMARK    1  A    between atoms: C_1  and  N_2
REMARK    2  A    between atoms: C_8  and  N_9
REMARK    3  A    between atoms: C_10  and  C_12
REMARK    4  A    between atoms: C_12  and  C_13
REMARK                            x       y       z     vdW  Elec       q    Type
REMARK                         _______ _______ _______ _____ _____    ______ ____
ROOT
ATOM      1  N   UNL     1       2.264   7.212  19.507  0.00  0.00    +0.000 N 
ATOM      2  C   UNL     1       3.138   6.965  18.450  0.00  0.00    +0.000 C 
ATOM      3  O   UNL     1       3.364   7.773  17.544  0.00  0.00    +0.000 OA
ATOM      4  H   UNL     1       2.008   6.419  20.085  0.00  0.00    +0.000 HD
ENDROOT
BRANCH   1  12
ATOM      5  C   UNL     1      -1.593  12.328  23.057  0.00  0.00    +0.000 C 
ATOM      6  N   UNL     1      -0.823  11.541  22.126  0.00  0.00    +0.000 N 
ATOM      7  C   UNL     1      -0.747  11.781  20.783  0.00  0.00    +0.000 C 
ATOM      8  O   UNL     1      -1.249  12.674  20.128  0.00  0.00    +0.000 OA
ATOM      9  C   UNL     1       0.080  10.713  20.222  0.00  0.00    +0.000 A 
ATOM     10  C   UNL     1       0.446  10.457  18.922  0.00  0.00    +0.000 A 
ATOM     11  C   UNL     1       1.197   9.298  18.687  0.00  0.00    +0.000 A 
ATOM     12  C   UNL     1       1.565   8.421  19.735  0.00  0.00    +0.000 A 
ATOM     13  C   UNL     1       1.223   8.743  21.055  0.00  0.00    +0.000 A 
ATOM     14  C   UNL     1       0.464   9.883  21.259  0.00  0.00    +0.000 A 
ATOM     15  C   UNL     1      -0.119  10.424  22.487  0.00  0.00    +0.000 C 
ATOM     16  O   UNL     1       0.023   9.923  23.584  0.00  0.00    +0.000 OA
ENDBRANCH   1  12
BRANCH   2  17
ATOM     17  C   UNL     1       3.823   5.540  18.474  0.00  0.00    +0.000 C 
ATOM     18  C   UNL     1       5.272   5.445  19.083  0.00  0.00    +0.000 C 
ATOM     19  C   UNL     1       5.659   4.530  17.908  0.00  0.00    +0.000 C 
ATOM     20  C   UNL     1       4.536   5.190  17.102  0.00  0.00    +0.000 C 
BRANCH  17  21
ATOM     21  C   UNL     1       2.721   4.475  19.001  0.00  0.00    +0.000 A 
ATOM     22  C   UNL     1       1.815   3.842  18.120  0.00  0.00    +0.000 A 
ATOM     23  C   UNL     1       0.887   2.886  18.552  0.00  0.00    +0.000 A 
ATOM     24  C   UNL     1       0.818   2.547  19.897  0.00  0.00    +0.000 A 
ATOM     25  C   UNL     1       1.670   3.176  20.791  0.00  0.00    +0.000 A 
ATOM     26  F   UNL     1       1.604   2.869  22.093  0.00  0.00    +0.000 F 
ATOM     27  C   UNL     1       2.603   4.120  20.360  0.00  0.00    +0.000 A 
ENDBRANCH  17  21
ENDBRANCH   2  17
TORSDOF 3
ENDMDL
MODEL 8
REMARK VINA RESULT:      -8.6      1.934      2.245
REMARK  Name = 
REMARK  4 active torsions:
REMARK  status: ('A' for Active; 'I' for Inactive)
REMARK    1  A    between atoms: C_1  and  N_2
REMARK    2  A    between atoms: C_8  and  N_9
REMARK    3  A    between atoms: C_10  and  C_12
REMARK    4  A    between atoms: C_12  and  C_13
REMARK                            x       y       z     vdW  Elec       q    Type
REMARK                         _______ _______ _______ _____ _____    ______ ____
ROOT
ATOM      1  N   UNL     1       2.726   6.843  19.687  0.00  0.00    +0.000 N 
ATOM      2  C   UNL     1       2.543   5.876  18.700  0.00  0.00    +0.000 C 
ATOM      3  O   UNL     1       1.599   5.879  17.903  0.00  0.00    +0.000 OA
ATOM      4  H   UNL     1       3.418   6.643  20.401  0.00  0.00    +0.000 HD
ENDROOT
BRANCH   1  12
ATOM      5  C   UNL     1      -1.676  11.618  23.072  0.00  0.00    +0.000 C 
ATOM      6  N   UNL     1      -0.812  10.897  22.172  0.00  0.00    +0.000 N 
ATOM      7  C   UNL     1      -0.717  11.133  20.829  0.00  0.00    +0.000 C 
ATOM      8  O   UNL     1      -1.277  11.973  20.151  0.00  0.00    +0.000 OA
ATOM      9  C   UNL     1       0.218  10.139  20.303  0.00  0.00    +0.000 A 
ATOM     10  C   UNL     1       0.644   9.908  19.017  0.00  0.00    +0.000 A 
ATOM     11  C   UNL     1       1.503   8.819  18.816  0.00  0.00    +0.000 A 
ATOM     12  C   UNL     1       1.916   7.986  19.882  0.00  0.00    +0.000 A 
ATOM     13  C   UNL     1       1.507   8.285  21.189  0.00  0.00    +0.000 A 
ATOM     14  C   UNL     1       0.643   9.355  21.359  0.00  0.00    +0.000 A 
ATOM     15  C   UNL     1      -0.021   9.850  22.565  0.00  0.00    +0.000 C 
ATOM     16  O   UNL     1       0.131   9.372  23.669  0.00  0.00    +0.000 OA
ENDBRANCH   1  12
BRANCH   2  17
ATOM     17  C   UNL     1       3.635   4.732  18.680  0.00  0.00    +0.000 C 
ATOM     18  C   UNL     1       3.304   3.433  17.855  0.00  0.00    +0.000 C 
ATOM     19  C   UNL     1       3.866   2.601  19.021  0.00  0.00    +0.000 C 
ATOM     20  C   UNL     1       3.534   3.778  19.942  0.00  0.00    +0.000 C 
BRANCH  17  21
ATOM     21  C   UNL     1       5.074   5.432  18.424  0.00  0.00    +0.000 A 
ATOM     22  C   UNL     1       5.277   6.358  17.375  0.00  0.00    +0.000 A 
ATOM     23  C   UNL     1       6.502   7.005  17.167  0.00  0.00    +0.000 A 
ATOM     24  C   UNL     1       7.581   6.725  17.995  0.00  0.00    +0.000 A 
ATOM     25  C   UNL     1       7.423   5.795  19.011  0.00  0.00    +0.000 A 
ATOM     26  F   UNL     1       8.461   5.505  19.807  0.00  0.00    +0.000 F 
ATOM     27  C   UNL     1       6.200   5.159  19.226  0.00  0.00    +0.000 A 
ENDBRANCH  17  21
ENDBRANCH   2  17
TORSDOF 3
ENDMDL
MODEL 9
REMARK VINA RESULT:      -8.4      2.086      3.478
REMARK  Name = 
REMARK  4 active torsions:
REMARK  status: ('A' for Active; 'I' for Inactive)
REMARK    1  A    between atoms: C_1  and  N_2
REMARK    2  A    between atoms: C_8  and  N_9
REMARK    3  A    between atoms: C_10  and  C_12
REMARK    4  A    between atoms: C_12  and  C_13
REMARK                            x       y       z     vdW  Elec       q    Type
REMARK                         _______ _______ _______ _____ _____    ______ ____
ROOT
ATOM      1  N   UNL     1       2.781   6.536  18.369  0.00  0.00    +0.000 N 
ATOM      2  C   UNL     1       4.019   6.430  17.737  0.00  0.00    +0.000 C 
ATOM      3  O   UNL     1       4.679   7.402  17.353  0.00  0.00    +0.000 OA
ATOM      4  H   UNL     1       2.244   5.682  18.469  0.00  0.00    +0.000 HD
ENDROOT
BRANCH   1  12
ATOM      5  C   UNL     1      -0.755  11.472  22.464  0.00  0.00    +0.000 C 
ATOM      6  N   UNL     1      -0.050  10.737  21.444  0.00  0.00    +0.000 N 
ATOM      7  C   UNL     1      -0.020  11.080  20.121  0.00  0.00    +0.000 C 
ATOM      8  O   UNL     1      -0.517  12.036  19.559  0.00  0.00    +0.000 OA
ATOM      9  C   UNL     1       0.747  10.034  19.444  0.00  0.00    +0.000 A 
ATOM     10  C   UNL     1       1.052   9.871  18.114  0.00  0.00    +0.000 A 
ATOM     11  C   UNL     1       1.754   8.711  17.759  0.00  0.00    +0.000 A 
ATOM     12  C   UNL     1       2.134   7.744  18.719  0.00  0.00    +0.000 A 
ATOM     13  C   UNL     1       1.856   7.971  20.074  0.00  0.00    +0.000 A 
ATOM     14  C   UNL     1       1.144   9.115  20.397  0.00  0.00    +0.000 A 
ATOM     15  C   UNL     1       0.630   9.574  21.687  0.00  0.00    +0.000 C 
ATOM     16  O   UNL     1       0.799   8.985  22.734  0.00  0.00    +0.000 OA
ENDBRANCH   1  12
BRANCH   2  17
ATOM     17  C   UNL     1       4.528   4.949  17.515  0.00  0.00    +0.000 C 
ATOM     18  C   UNL     1       6.072   4.685  17.673  0.00  0.00    +0.000 C 
ATOM     19  C   UNL     1       6.007   3.811  16.408  0.00  0.00    +0.000 C 
ATOM     20  C   UNL     1       4.777   4.619  15.985  0.00  0.00    +0.000 C 
BRANCH  17  21
ATOM     21  C   UNL     1       3.517   3.960  18.307  0.00  0.00    +0.000 A 
ATOM     22  C   UNL     1       2.434   3.325  17.657  0.00  0.00    +0.000 A 
ATOM     23  C   UNL     1       1.579   2.432  18.315  0.00  0.00    +0.000 A 
ATOM     24  C   UNL     1       1.766   2.162  19.663  0.00  0.00    +0.000 A 
ATOM     25  C   UNL     1       2.798   2.795  20.337  0.00  0.00    +0.000 A 
ATOM     26  F   UNL     1       2.981   2.554  21.642  0.00  0.00    +0.000 F 
ATOM     27  C   UNL     1       3.659   3.676  19.680  0.00  0.00    +0.000 A 
ENDBRANCH  17  21
ENDBRANCH   2  17
TORSDOF 3
ENDMDL
