MODEL 1
REMARK VINA RESULT:      -8.3      0.000      0.000
REMARK  Name = 
REMARK  4 active torsions:
REMARK  status: ('A' for Active; 'I' for Inactive)
REMARK    1  A    between atoms: C_1  and  C_2
REMARK    2  A    between atoms: C_3  and  C_4
REMARK    3  A    between atoms: C_4  and  N_5
REMARK    4  A    between atoms: C_6  and  C_8
REMARK                            x       y       z     vdW  Elec       q    Type
REMARK                         _______ _______ _______ _____ _____    ______ ____
ROOT
ATOM      1  N   UNL     1       5.640   5.954  18.169  0.00  0.00    +0.000 N 
ATOM      2  C   UNL     1       4.691   5.372  18.979  0.00  0.00    +0.000 C 
ATOM      3  O   UNL     1       4.736   4.236  19.416  0.00  0.00    +0.000 OA
ATOM      4  H   UNL     1       5.361   6.787  17.659  0.00  0.00    +0.000 HD
ENDROOT
BRANCH   2   5
ATOM      5  C   UNL     1       3.504   6.283  19.272  0.00  0.00    +0.000 A 
ATOM      6  N   UNL     1       2.885   6.089  20.411  0.00  0.00    +0.000 NA
ATOM      7  N   UNL     1       1.799   6.854  20.719  0.00  0.00    +0.000 N 
ATOM      8  C   UNL     1       1.519   8.055  20.045  0.00  0.00    +0.000 A 
ATOM      9  C   UNL     1       0.562   8.949  20.539  0.00  0.00    +0.000 A 
ATOM     10  C   UNL     1       0.246  10.115  19.834  0.00  0.00    +0.000 A 
ATOM     11  C   UNL     1       0.857  10.385  18.608  0.00  0.00    +0.000 A 
ATOM     12  C   UNL     1       1.785   9.487  18.086  0.00  0.00    +0.000 A 
ATOM     13  C   UNL     1       2.103   8.335  18.812  0.00  0.00    +0.000 A 
ATOM     14  C   UNL     1       3.050   7.344  18.300  0.00  0.00    +0.000 A 
ATOM     15  O   UNL     1       3.433   7.348  17.144  0.00  0.00    +0.000 OA
ATOM     16  H   UNL     1       1.466   6.805  21.682  0.00  0.00    +0.000 HD
ENDBRANCH   2   5
BRANCH   1  17
ATOM     17  C   UNL     1       6.820   5.246  17.743  0.00  0.00    +0.000 C 
BRANCH  17  20
ATOM     18  C   UNL     1       4.611   3.240  16.211  0.00  0.00    +0.000 C 
ATOM     19  C   UNL     1       5.742   4.023  15.657  0.00  0.00    +0.000 A 
ATOM     20  C   UNL     1       6.631   4.858  16.321  0.00  0.00    +0.000 A 
ATOM     21  O   UNL     1       7.523   5.398  15.438  0.00  0.00    +0.000 OA
ATOM     22  C   UNL     1       7.216   4.915  14.204  0.00  0.00    +0.000 A 
ATOM     23  C   UNL     1       7.879   5.230  13.021  0.00  0.00    +0.000 A 
ATOM     24  C   UNL     1       7.408   4.611  11.858  0.00  0.00    +0.000 A 
ATOM     25  C   UNL     1       6.330   3.722  11.897  0.00  0.00    +0.000 A 
ATOM     26  C   UNL     1       5.682   3.430  13.104  0.00  0.00    +0.000 A 
ATOM     27  C   UNL     1       6.135   4.049  14.284  0.00  0.00    +0.000 A 
ENDBRANCH  17  20
ENDBRANCH   1  17
TORSDOF 3
ENDMDL
MODEL 2
REMARK VINA RESULT:      -8.2      1.617      8.091
REMARK  Name = 
REMARK  4 active torsions:
REMARK  status: ('A' for Active; 'I' for Inactive)
REMARK    1  A    between atoms: C_1  and  C_2
REMARK    2  A    between atoms: C_3  and  C_4
REMARK    3  A    between atoms: C_4  and  N_5
REMARK    4  A    between atoms: C_6  and  C_8
REMARK                            x       y       z     vdW  Elec       q    Type
REMARK                         _______ _______ _______ _____ _____    ______ ____
ROOT
ATOM      1  N   UNL     1       4.007   5.374  18.457  0.00  0.00    +0.000 N 
ATOM      2  C   UNL     1       5.280   4.871  18.320  0.00  0.00    +0.000 C 
ATOM      3  O   UNL     1       5.955   4.399  19.219  0.00  0.00    +0.000 OA
ATOM      4  H   UNL     1       3.668   5.975  17.711  0.00  0.00    +0.000 HD
ENDROOT
BRANCH   2   5
ATOM      5  C   UNL     1       5.829   4.986  16.902  0.00  0.00    +0.000 A 
ATOM      6  N   UNL     1       6.935   5.675  16.757  0.00  0.00    +0.000 NA
ATOM      7  N   UNL     1       7.462   5.836  15.509  0.00  0.00    +0.000 N 
ATOM      8  C   UNL     1       7.076   5.026  14.427  0.00  0.00    +0.000 A 
ATOM      9  C   UNL     1       7.803   5.032  13.232  0.00  0.00    +0.000 A 
ATOM     10  C   UNL     1       7.381   4.266  12.138  0.00  0.00    +0.000 A 
ATOM     11  C   UNL     1       6.208   3.515  12.216  0.00  0.00    +0.000 A 
ATOM     12  C   UNL     1       5.454   3.529  13.386  0.00  0.00    +0.000 A 
ATOM     13  C   UNL     1       5.898   4.283  14.476  0.00  0.00    +0.000 A 
ATOM     14  C   UNL     1       5.134   4.357  15.720  0.00  0.00    +0.000 A 
ATOM     15  O   UNL     1       3.984   3.961  15.801  0.00  0.00    +0.000 OA
ATOM     16  H   UNL     1       8.410   6.209  15.460  0.00  0.00    +0.000 HD
ENDBRANCH   2   5
BRANCH   1  17
ATOM     17  C   UNL     1       3.325   5.395  19.725  0.00  0.00    +0.000 C 
BRANCH  17  20
ATOM     18  C   UNL     1       2.923   7.953  17.594  0.00  0.00    +0.000 C 
ATOM     19  C   UNL     1       2.343   7.724  18.939  0.00  0.00    +0.000 A 
ATOM     20  C   UNL     1       2.521   6.643  19.791  0.00  0.00    +0.000 A 
ATOM     21  O   UNL     1       1.799   6.820  20.939  0.00  0.00    +0.000 OA
ATOM     22  C   UNL     1       1.156   8.013  20.833  0.00  0.00    +0.000 A 
ATOM     23  C   UNL     1       0.305   8.563  21.787  0.00  0.00    +0.000 A 
ATOM     24  C   UNL     1      -0.247   9.813  21.484  0.00  0.00    +0.000 A 
ATOM     25  C   UNL     1       0.053  10.466  20.285  0.00  0.00    +0.000 A 
ATOM     26  C   UNL     1       0.911   9.882  19.344  0.00  0.00    +0.000 A 
ATOM     27  C   UNL     1       1.469   8.621  19.626  0.00  0.00    +0.000 A 
ENDBRANCH  17  20
ENDBRANCH   1  17
TORSDOF 3
ENDMDL
MODEL 3
REMARK VINA RESULT:      -8.1      3.620      8.426
REMARK  Name = 
REMARK  4 active torsions:
REMARK  status: ('A' for Active; 'I' for Inactive)
REMARK    1  A    between atoms: C_1  and  C_2
REMARK    2  A    between atoms: C_3  and  C_4
REMARK    3  A    between atoms: C_4  and  N_5
REMARK    4  A    between atoms: C_6  and  C_8
REMARK                            x       y       z     vdW  Elec       q    Type
REMARK                         _______ _______ _______ _____ _____    ______ ____
ROOT
ATOM      1  N   UNL     1       1.181   9.020  19.570  0.00  0.00    +0.000 N 
ATOM      2  C   UNL     1       1.459   8.227  20.660  0.00  0.00    +0.000 C 
ATOM      3  O   UNL     1       1.458   8.596  21.821  0.00  0.00    +0.000 OA
ATOM      4  H   UNL     1       1.478   8.673  18.662  0.00  0.00    +0.000 HD
ENDROOT
BRANCH   2   5
ATOM      5  C   UNL     1       1.823   6.793  20.290  0.00  0.00    +0.000 A 
ATOM      6  N   UNL     1       1.453   5.859  21.132  0.00  0.00    +0.000 NA
ATOM      7  N   UNL     1       1.772   4.560  20.869  0.00  0.00    +0.000 N 
ATOM      8  C   UNL     1       2.172   4.134  19.591  0.00  0.00    +0.000 A 
ATOM      9  C   UNL     1       2.244   2.772  19.278  0.00  0.00    +0.000 A 
ATOM     10  C   UNL     1       2.698   2.354  18.022  0.00  0.00    +0.000 A 
ATOM     11  C   UNL     1       3.118   3.290  17.077  0.00  0.00    +0.000 A 
ATOM     12  C   UNL     1       3.086   4.648  17.387  0.00  0.00    +0.000 A 
ATOM     13  C   UNL     1       2.613   5.051  18.639  0.00  0.00    +0.000 A 
ATOM     14  C   UNL     1       2.583   6.460  19.030  0.00  0.00    +0.000 A 
ATOM     15  O   UNL     1       3.163   7.323  18.394  0.00  0.00    +0.000 OA
ATOM     16  H   UNL     1       1.308   3.853  21.440  0.00  0.00    +0.000 HD
ENDBRANCH   2   5
BRANCH   1  17
ATOM     17  C   UNL     1       0.854  10.416  19.704  0.00  0.00    +0.000 C 
BRANCH  17  20
ATOM     18  C   UNL     1      -1.854  12.237  20.477  0.00  0.00    +0.000 C 
ATOM     19  C   UNL     1      -1.576  11.384  19.296  0.00  0.00    +0.000 A 
ATOM     20  C   UNL     1      -0.434  10.652  19.001  0.00  0.00    +0.000 A 
ATOM     21  O   UNL     1      -0.581  10.005  17.805  0.00  0.00    +0.000 OA
ATOM     22  C   UNL     1      -1.816  10.315  17.327  0.00  0.00    +0.000 A 
ATOM     23  C   UNL     1      -2.355   9.868  16.124  0.00  0.00    +0.000 A 
ATOM     24  C   UNL     1      -3.653  10.297  15.824  0.00  0.00    +0.000 A 
ATOM     25  C   UNL     1      -4.361  11.127  16.698  0.00  0.00    +0.000 A 
ATOM     26  C   UNL     1      -3.787  11.562  17.899  0.00  0.00    +0.000 A 
ATOM     27  C   UNL     1      -2.479  11.149  18.215  0.00  0.00    +0.000 A 
ENDBRANCH  17  20
ENDBRANCH   1  17
TORSDOF 3
ENDMDL
MODEL 4
REMARK VINA RESULT:      -8.1      2.182      8.172
REMARK  Name = 
REMARK  4 active torsions:
REMARK  status: ('A' for Active; 'I' for Inactive)
REMARK    1  A    between atoms: C_1  and  C_2
REMARK    2  A    between atoms: C_3  and  C_4
REMARK    3  A    between atoms: C_4  and  N_5
REMARK    4  A    between atoms: C_6  and  C_8
REMARK                            x       y       z     vdW  Elec       q    Type
REMARK                         _______ _______ _______ _____ _____    ______ ____
ROOT
ATOM      1  N   UNL     1       2.187   7.000  20.400  0.00  0.00    +0.000 N 
ATOM      2  C   UNL     1       2.464   5.675  20.150  0.00  0.00    +0.000 C 
ATOM      3  O   UNL     1       1.829   4.727  20.578  0.00  0.00    +0.000 OA
ATOM      4  H   UNL     1       2.932   7.667  20.218  0.00  0.00    +0.000 HD
ENDROOT
BRANCH   2   5
ATOM      5  C   UNL     1       3.705   5.467  19.289  0.00  0.00    +0.000 A 
ATOM      6  N   UNL     1       4.602   4.629  19.748  0.00  0.00    +0.000 NA
ATOM      7  N   UNL     1       5.746   4.419  19.036  0.00  0.00    +0.000 N 
ATOM      8  C   UNL     1       5.860   4.787  17.684  0.00  0.00    +0.000 A 
ATOM      9  C   UNL     1       6.932   4.336  16.906  0.00  0.00    +0.000 A 
ATOM     10  C   UNL     1       7.071   4.752  15.577  0.00  0.00    +0.000 A 
ATOM     11  C   UNL     1       6.159   5.650  15.021  0.00  0.00    +0.000 A 
ATOM     12  C   UNL     1       5.108   6.136  15.794  0.00  0.00    +0.000 A 
ATOM     13  C   UNL     1       4.972   5.697  17.115  0.00  0.00    +0.000 A 
ATOM     14  C   UNL     1       3.904   6.193  17.981  0.00  0.00    +0.000 A 
ATOM     15  O   UNL     1       3.225   7.161  17.686  0.00  0.00    +0.000 OA
ATOM     16  H   UNL     1       6.324   3.630  19.325  0.00  0.00    +0.000 HD
ENDBRANCH   2   5
BRANCH   1  17
ATOM     17  C   UNL     1       1.080   7.408  21.225  0.00  0.00    +0.000 C 
BRANCH  17  20
ATOM     18  C   UNL     1      -0.305   9.809  23.113  0.00  0.00    +0.000 C 
ATOM     19  C   UNL     1       0.272   9.874  21.748  0.00  0.00    +0.000 A 
ATOM     20  C   UNL     1       0.852   8.858  20.999  0.00  0.00    +0.000 A 
ATOM     21  O   UNL     1       1.267   9.340  19.789  0.00  0.00    +0.000 OA
ATOM     22  C   UNL     1       0.956  10.663  19.751  0.00  0.00    +0.000 A 
ATOM     23  C   UNL     1       1.221  11.529  18.693  0.00  0.00    +0.000 A 
ATOM     24  C   UNL     1       0.805  12.856  18.853  0.00  0.00    +0.000 A 
ATOM     25  C   UNL     1       0.155  13.275  20.018  0.00  0.00    +0.000 A 
ATOM     26  C   UNL     1      -0.092  12.378  21.065  0.00  0.00    +0.000 A 
ATOM     27  C   UNL     1       0.326  11.042  20.928  0.00  0.00    +0.000 A 
ENDBRANCH  17  20
ENDBRANCH   1  17
TORSDOF 3
ENDMDL
MODEL 5
REMARK VINA RESULT:      -7.9      2.905      5.375
REMARK  Name = 
REMARK  4 active torsions:
REMARK  status: ('A' for Active; 'I' for Inactive)
REMARK    1  A    between atoms: C_1  and  C_2
REMARK    2  A    between atoms: C_3  and  C_4
REMARK    3  A    between atoms: C_4  and  N_5
REMARK    4  A    between atoms: C_6  and  C_8
REMARK                            x       y       z     vdW  Elec       q    Type
REMARK                         _______ _______ _______ _____ _____    ______ ____
ROOT
ATOM      1  N   UNL     1       2.313   8.132  18.688  0.00  0.00    +0.000 N 
ATOM      2  C   UNL     1       1.693   9.344  18.487  0.00  0.00    +0.000 C 
ATOM      3  O   UNL     1       1.847  10.064  17.515  0.00  0.00    +0.000 OA
ATOM      4  H   UNL     1       2.315   7.770  19.638  0.00  0.00    +0.000 HD
ENDROOT
BRANCH   2   5
ATOM      5  C   UNL     1       0.786   9.761  19.639  0.00  0.00    +0.000 A 
ATOM      6  N   UNL     1       1.058   9.246  20.813  0.00  0.00    +0.000 NA
ATOM      7  N   UNL     1       0.266   9.560  21.879  0.00  0.00    +0.000 N 
ATOM      8  C   UNL     1      -0.607  10.661  21.859  0.00  0.00    +0.000 A 
ATOM      9  C   UNL     1      -1.212  11.118  23.035  0.00  0.00    +0.000 A 
ATOM     10  C   UNL     1      -2.125  12.178  23.001  0.00  0.00    +0.000 A 
ATOM     11  C   UNL     1      -2.471  12.770  21.785  0.00  0.00    +0.000 A 
ATOM     12  C   UNL     1      -1.905  12.302  20.602  0.00  0.00    +0.000 A 
ATOM     13  C   UNL     1      -0.981  11.255  20.655  0.00  0.00    +0.000 A 
ATOM     14  C   UNL     1      -0.375  10.704  19.443  0.00  0.00    +0.000 A 
ATOM     15  O   UNL     1      -0.798  10.964  18.331  0.00  0.00    +0.000 OA
ATOM     16  H   UNL     1       0.617   9.297  22.800  0.00  0.00    +0.000 HD
ENDBRANCH   2   5
BRANCH   1  17
ATOM     17  C   UNL     1       3.241   7.580  17.736  0.00  0.00    +0.000 C 
BRANCH  17  20
ATOM     18  C   UNL     1       5.160   5.144  16.458  0.00  0.00    +0.000 C 
ATOM     19  C   UNL     1       3.989   5.068  17.365  0.00  0.00    +0.000 A 
ATOM     20  C   UNL     1       3.224   6.102  17.887  0.00  0.00    +0.000 A 
ATOM     21  O   UNL     1       2.236   5.601  18.689  0.00  0.00    +0.000 OA
ATOM     22  C   UNL     1       2.359   4.247  18.687  0.00  0.00    +0.000 A 
ATOM     23  C   UNL     1       1.552   3.358  19.391  0.00  0.00    +0.000 A 
ATOM     24  C   UNL     1       1.843   1.997  19.241  0.00  0.00    +0.000 A 
ATOM     25  C   UNL     1       2.889   1.567  18.419  0.00  0.00    +0.000 A 
ATOM     26  C   UNL     1       3.685   2.490  17.728  0.00  0.00    +0.000 A 
ATOM     27  C   UNL     1       3.415   3.863  17.873  0.00  0.00    +0.000 A 
ENDBRANCH  17  20
ENDBRANCH   1  17
TORSDOF 3
ENDMDL
MODEL 6
REMARK VINA RESULT:      -7.9      3.024      5.593
REMARK  Name = 
REMARK  4 active torsions:
REMARK  status: ('A' for Active; 'I' for Inactive)
REMARK    1  A    between atoms: C_1  and  C_2
REMARK    2  A    between atoms: C_3  and  C_4
REMARK    3  A    between atoms: C_4  and  N_5
REMARK    4  A    between atoms: C_6  and  C_8
REMARK                            x       y       z     vdW  Elec       q    Type
REMARK                         _______ _______ _______ _____ _____    ______ ____
ROOT
ATOM      1  N   UNL     1       2.959   8.239  18.530  0.00  0.00    +0.000 N 
ATOM      2  C   UNL     1       1.863   8.967  18.128  0.00  0.00    +0.000 C 
ATOM      3  O   UNL     1       1.360   8.933  17.018  0.00  0.00    +0.000 OA
ATOM      4  H   UNL     1       3.436   8.554  19.371  0.00  0.00    +0.000 HD
ENDROOT
BRANCH   2   5
ATOM      5  C   UNL     1       1.319   9.893  19.210  0.00  0.00    +0.000 A 
ATOM      6  N   UNL     1       1.274  11.170  18.920  0.00  0.00    +0.000 NA
ATOM      7  N   UNL     1       0.821  12.053  19.856  0.00  0.00    +0.000 N 
ATOM      8  C   UNL     1       0.087  11.635  20.979  0.00  0.00    +0.000 A 
ATOM      9  C   UNL     1      -0.585  12.564  21.783  0.00  0.00    +0.000 A 
ATOM     10  C   UNL     1      -1.267  12.148  22.932  0.00  0.00    +0.000 A 
ATOM     11  C   UNL     1      -1.257  10.805  23.310  0.00  0.00    +0.000 A 
ATOM     12  C   UNL     1      -0.562   9.875  22.540  0.00  0.00    +0.000 A 
ATOM     13  C   UNL     1       0.099  10.303  21.385  0.00  0.00    +0.000 A 
ATOM     14  C   UNL     1       0.866   9.376  20.553  0.00  0.00    +0.000 A 
ATOM     15  O   UNL     1       1.156   8.254  20.929  0.00  0.00    +0.000 OA
ATOM     16  H   UNL     1       0.624  13.000  19.532  0.00  0.00    +0.000 HD
ENDBRANCH   2   5
BRANCH   1  17
ATOM     17  C   UNL     1       3.645   7.336  17.644  0.00  0.00    +0.000 C 
BRANCH  17  20
ATOM     18  C   UNL     1       4.505   4.332  16.424  0.00  0.00    +0.000 C 
ATOM     19  C   UNL     1       3.535   4.696  17.484  0.00  0.00    +0.000 A 
ATOM     20  C   UNL     1       3.213   5.954  17.976  0.00  0.00    +0.000 A 
ATOM     21  O   UNL     1       2.271   5.850  18.961  0.00  0.00    +0.000 OA
ATOM     22  C   UNL     1       1.981   4.530  19.108  0.00  0.00    +0.000 A 
ATOM     23  C   UNL     1       1.075   3.995  20.020  0.00  0.00    +0.000 A 
ATOM     24  C   UNL     1       0.916   2.605  19.999  0.00  0.00    +0.000 A 
ATOM     25  C   UNL     1       1.632   1.808  19.101  0.00  0.00    +0.000 A 
ATOM     26  C   UNL     1       2.539   2.379  18.199  0.00  0.00    +0.000 A 
ATOM     27  C   UNL     1       2.720   3.774  18.210  0.00  0.00    +0.000 A 
ENDBRANCH  17  20
ENDBRANCH   1  17
TORSDOF 3
ENDMDL
MODEL 7
REMARK VINA RESULT:      -7.8      3.284      5.983
REMARK  Name = 
REMARK  4 active torsions:
REMARK  status: ('A' for Active; 'I' for Inactive)
REMARK    1  A    between atoms: C_1  and  C_2
REMARK    2  A    between atoms: C_3  and  C_4
REMARK    3  A    between atoms: C_4  and  N_5
REMARK    4  A    between atoms: C_6  and  C_8
REMARK                            x       y       z     vdW  Elec       q    Type
REMARK                         _______ _______ _______ _____ _____    ______ ____
ROOT
ATOM      1  N   UNL     1       1.938   8.562  18.447  0.00  0.00    +0.000 N 
ATOM      2  C   UNL     1       1.739   9.903  18.206  0.00  0.00    +0.000 C 
ATOM      3  O   UNL     1       2.452  10.610  17.516  0.00  0.00    +0.000 OA
ATOM      4  H   UNL     1       1.445   8.161  19.240  0.00  0.00    +0.000 HD
ENDROOT
BRANCH   2   5
ATOM      5  C   UNL     1       0.527  10.476  18.931  0.00  0.00    +0.000 A 
ATOM      6  N   UNL     1       0.749  11.019  20.104  0.00  0.00    +0.000 NA
ATOM      7  N   UNL     1      -0.300  11.526  20.813  0.00  0.00    +0.000 N 
ATOM      8  C   UNL     1      -1.540  11.805  20.214  0.00  0.00    +0.000 A 
ATOM      9  C   UNL     1      -2.509  12.557  20.887  0.00  0.00    +0.000 A 
ATOM     10  C   UNL     1      -3.763  12.783  20.308  0.00  0.00    +0.000 A 
ATOM     11  C   UNL     1      -4.075  12.230  19.065  0.00  0.00    +0.000 A 
ATOM     12  C   UNL     1      -3.134  11.448  18.400  0.00  0.00    +0.000 A 
ATOM     13  C   UNL     1      -1.879  11.247  18.983  0.00  0.00    +0.000 A 
ATOM     14  C   UNL     1      -0.861  10.414  18.343  0.00  0.00    +0.000 A 
ATOM     15  O   UNL     1      -1.117   9.682  17.404  0.00  0.00    +0.000 OA
ATOM     16  H   UNL     1      -0.066  12.102  21.623  0.00  0.00    +0.000 HD
ENDBRANCH   2   5
BRANCH   1  17
ATOM     17  C   UNL     1       3.051   7.841  17.887  0.00  0.00    +0.000 C 
BRANCH  17  20
ATOM     18  C   UNL     1       4.463   5.037  16.706  0.00  0.00    +0.000 C 
ATOM     19  C   UNL     1       3.447   5.227  17.770  0.00  0.00    +0.000 A 
ATOM     20  C   UNL     1       2.893   6.408  18.245  0.00  0.00    +0.000 A 
ATOM     21  O   UNL     1       1.994   6.143  19.240  0.00  0.00    +0.000 OA
ATOM     22  C   UNL     1       1.963   4.794  19.410  0.00  0.00    +0.000 A 
ATOM     23  C   UNL     1       1.182   4.112  20.338  0.00  0.00    +0.000 A 
ATOM     24  C   UNL     1       1.292   2.717  20.341  0.00  0.00    +0.000 A 
ATOM     25  C   UNL     1       2.142   2.056  19.449  0.00  0.00    +0.000 A 
ATOM     26  C   UNL     1       2.918   2.774  18.530  0.00  0.00    +0.000 A 
ATOM     27  C   UNL     1       2.829   4.179  18.518  0.00  0.00    +0.000 A 
ENDBRANCH  17  20
ENDBRANCH   1  17
TORSDOF 3
ENDMDL
MODEL 8
REMARK VINA RESULT:      -7.8      4.333      6.756
REMARK  Name = 
REMARK  4 active torsions:
REMARK  status: ('A' for Active; 'I' for Inactive)
REMARK    1  A    between atoms: C_1  and  C_2
REMARK    2  A    between atoms: C_3  and  C_4
REMARK    3  A    between atoms: C_4  and  N_5
REMARK    4  A    between atoms: C_6  and  C_8
REMARK                            x       y       z     vdW  Elec       q    Type
REMARK                         _______ _______ _______ _____ _____    ______ ____
ROOT
ATOM      1  N   UNL     1       0.665   8.947  19.952  0.00  0.00    +0.000 N 
ATOM      2  C   UNL     1       0.727   9.781  18.859  0.00  0.00    +0.000 C 
ATOM      3  O   UNL     1       1.744  10.087  18.260  0.00  0.00    +0.000 OA
ATOM      4  H   UNL     1      -0.181   8.990  20.514  0.00  0.00    +0.000 HD
ENDROOT
BRANCH   2   5
ATOM      5  C   UNL     1      -0.627  10.353  18.453  0.00  0.00    +0.000 A 
ATOM      6  N   UNL     1      -1.129   9.923  17.322  0.00  0.00    +0.000 NA
ATOM      7  N   UNL     1      -2.325  10.416  16.892  0.00  0.00    +0.000 N 
ATOM      8  C   UNL     1      -3.202  11.097  17.753  0.00  0.00    +0.000 A 
ATOM      9  C   UNL     1      -4.521  11.366  17.368  0.00  0.00    +0.000 A 
ATOM     10  C   UNL     1      -5.373  12.094  18.206  0.00  0.00    +0.000 A 
ATOM     11  C   UNL     1      -4.906  12.592  19.423  0.00  0.00    +0.000 A 
ATOM     12  C   UNL     1      -3.586  12.365  19.803  0.00  0.00    +0.000 A 
ATOM     13  C   UNL     1      -2.753  11.620  18.963  0.00  0.00    +0.000 A 
ATOM     14  C   UNL     1      -1.351  11.372  19.298  0.00  0.00    +0.000 A 
ATOM     15  O   UNL     1      -0.780  11.974  20.190  0.00  0.00    +0.000 OA
ATOM     16  H   UNL     1      -2.768   9.924  16.115  0.00  0.00    +0.000 HD
ENDBRANCH   2   5
BRANCH   1  17
ATOM     17  C   UNL     1       1.840   8.336  20.516  0.00  0.00    +0.000 C 
BRANCH  17  20
ATOM     18  C   UNL     1       3.346   7.154  17.763  0.00  0.00    +0.000 C 
ATOM     19  C   UNL     1       2.564   6.449  18.807  0.00  0.00    +0.000 A 
ATOM     20  C   UNL     1       1.964   6.970  19.945  0.00  0.00    +0.000 A 
ATOM     21  O   UNL     1       1.343   5.977  20.651  0.00  0.00    +0.000 OA
ATOM     22  C   UNL     1       1.538   4.815  19.971  0.00  0.00    +0.000 A 
ATOM     23  C   UNL     1       1.076   3.561  20.360  0.00  0.00    +0.000 A 
ATOM     24  C   UNL     1       1.378   2.493  19.508  0.00  0.00    +0.000 A 
ATOM     25  C   UNL     1       2.103   2.690  18.329  0.00  0.00    +0.000 A 
ATOM     26  C   UNL     1       2.557   3.966  17.969  0.00  0.00    +0.000 A 
ATOM     27  C   UNL     1       2.272   5.051  18.817  0.00  0.00    +0.000 A 
ENDBRANCH  17  20
ENDBRANCH   1  17
TORSDOF 3
ENDMDL
MODEL 9
REMARK VINA RESULT:      -7.8      2.967      5.030
REMARK  Name = 
REMARK  4 active torsions:
REMARK  status: ('A' for Active; 'I' for Inactive)
REMARK    1  A    between atoms: C_1  and  C_2
REMARK    2  A    between atoms: C_3  and  C_4
REMARK    3  A    between atoms: C_4  and  N_5
REMARK    4  A    between atoms: C_6  and  C_8
REMARK                            x       y       z     vdW  Elec       q    Type
REMARK                         _______ _______ _______ _____ _____    ______ ____
ROOT
ATOM      1  N   UNL     1       1.615   7.923  20.671  0.00  0.00    +0.000 N 
ATOM      2  C   UNL     1       0.560   8.698  21.096  0.00  0.00    +0.000 C 
ATOM      3  O   UNL     1      -0.442   8.284  21.652  0.00  0.00    +0.000 OA
ATOM      4  H   UNL     1       2.246   8.340  19.992  0.00  0.00    +0.000 HD
ENDROOT
BRANCH   2   5
ATOM      5  C   UNL     1       0.724  10.178  20.771  0.00  0.00    +0.000 A 
ATOM      6  N   UNL     1       0.435  11.024  21.729  0.00  0.00    +0.000 NA
ATOM      7  N   UNL     1       0.537  12.363  21.492  0.00  0.00    +0.000 N 
ATOM      8  C   UNL     1       1.257  12.872  20.397  0.00  0.00    +0.000 A 
ATOM      9  C   UNL     1       1.567  14.235  20.314  0.00  0.00    +0.000 A 
ATOM     10  C   UNL     1       2.234  14.746  19.195  0.00  0.00    +0.000 A 
ATOM     11  C   UNL     1       2.567  13.907  18.130  0.00  0.00    +0.000 A 
ATOM     12  C   UNL     1       2.232  12.557  18.182  0.00  0.00    +0.000 A 
ATOM     13  C   UNL     1       1.582  12.058  19.315  0.00  0.00    +0.000 A 
ATOM     14  C   UNL     1       1.183  10.654  19.414  0.00  0.00    +0.000 A 
ATOM     15  O   UNL     1       1.187   9.909  18.451  0.00  0.00    +0.000 OA
ATOM     16  H   UNL     1       0.488  12.975  22.307  0.00  0.00    +0.000 HD
ENDBRANCH   2   5
BRANCH   1  17
ATOM     17  C   UNL     1       1.635   6.494  20.847  0.00  0.00    +0.000 C 
BRANCH  17  20
ATOM     18  C   UNL     1       1.641   3.416  19.514  0.00  0.00    +0.000 C 
ATOM     19  C   UNL     1       2.388   4.635  19.119  0.00  0.00    +0.000 A 
ATOM     20  C   UNL     1       2.350   5.901  19.688  0.00  0.00    +0.000 A 
ATOM     21  O   UNL     1       3.189   6.747  19.016  0.00  0.00    +0.000 OA
ATOM     22  C   UNL     1       3.771   6.031  18.016  0.00  0.00    +0.000 A 
ATOM     23  C   UNL     1       4.685   6.526  17.091  0.00  0.00    +0.000 A 
ATOM     24  C   UNL     1       5.173   5.615  16.147  0.00  0.00    +0.000 A 
ATOM     25  C   UNL     1       4.760   4.280  16.149  0.00  0.00    +0.000 A 
ATOM     26  C   UNL     1       3.834   3.816  17.093  0.00  0.00    +0.000 A 
ATOM     27  C   UNL     1       3.324   4.718  18.044  0.00  0.00    +0.000 A 
ENDBRANCH  17  20
ENDBRANCH   1  17
TORSDOF 3
ENDMDL
