MODEL 1
REMARK VINA RESULT:      -9.3      0.000      0.000
REMARK  Name = 
REMARK  4 active torsions:
REMARK  status: ('A' for Active; 'I' for Inactive)
REMARK    1  A    between atoms: N_6  and  C_7
REMARK    2  A    between atoms: C_11  and  C_12
REMARK    3  A    between atoms: N_20  and  C_21
REMARK    4  A    between atoms: C_21  and  C_22
REMARK                            x       y       z     vdW  Elec       q    Type
REMARK                         _______ _______ _______ _____ _____    ______ ____
ROOT
ATOM      1  O   UNL     1       5.814   5.385  20.139  0.00  0.00    +0.000 OA
ATOM      2  C   UNL     1       5.432   5.432  18.977  0.00  0.00    +0.000 A 
ATOM      3  C   UNL     1       6.283   5.085  17.875  0.00  0.00    +0.000 A 
ATOM      4  C   UNL     1       7.580   4.589  17.769  0.00  0.00    +0.000 A 
ATOM      5  N   UNL     1       7.933   4.372  16.498  0.00  0.00    +0.000 NA
ATOM      6  N   UNL     1       6.843   4.753  15.759  0.00  0.00    +0.000 N 
ATOM      7  C   UNL     1       5.815   5.197  16.590  0.00  0.00    +0.000 A 
ATOM      8  N   UNL     1       4.572   5.611  16.231  0.00  0.00    +0.000 NA
ATOM      9  C   UNL     1       3.799   5.890  17.235  0.00  0.00    +0.000 A 
ATOM     10  N   UNL     1       4.148   5.815  18.576  0.00  0.00    +0.000 N 
ENDROOT
BRANCH   6  11
ATOM     11  C   UNL     1       6.865   4.646  14.335  0.00  0.00    +0.000 A 
ATOM     12  C   UNL     1       7.833   5.349  13.602  0.00  0.00    +0.000 A 
ATOM     13  C   UNL     1       7.893   5.223  12.212  0.00  0.00    +0.000 A 
ATOM     14  C   UNL     1       6.969   4.424  11.537  0.00  0.00    +0.000 A 
ATOM     15  C   UNL     1       5.968   3.751  12.245  0.00  0.00    +0.000 A 
ATOM     16  C   UNL     1       5.938   3.853  13.646  0.00  0.00    +0.000 A 
BRANCH  15  17
ATOM     17  C   UNL     1       4.902   2.945  11.545  0.00  0.00    +0.000 C 
ATOM     18  F   UNL     1       3.708   2.929  12.200  0.00  0.00    +0.000 F 
ATOM     19  F   UNL     1       4.634   3.403  10.291  0.00  0.00    +0.000 F 
ATOM     20  F   UNL     1       5.260   1.639  11.394  0.00  0.00    +0.000 F 
ENDBRANCH  15  17
ENDBRANCH   6  11
BRANCH  10  21
ATOM     21  C   UNL     1       3.147   6.090  19.593  0.00  0.00    +0.000 C 
BRANCH  21  22
ATOM     22  C   UNL     1       2.464   4.820  20.052  0.00  0.00    +0.000 A 
ATOM     23  C   UNL     1       2.573   4.377  21.381  0.00  0.00    +0.000 A 
ATOM     24  C   UNL     1       1.874   3.246  21.814  0.00  0.00    +0.000 A 
ATOM     25  C   UNL     1       1.060   2.546  20.926  0.00  0.00    +0.000 A 
ATOM     26  C   UNL     1       0.964   2.971  19.607  0.00  0.00    +0.000 A 
ATOM     27  F   UNL     1       0.184   2.297  18.752  0.00  0.00    +0.000 F 
ATOM     28  C   UNL     1       1.658   4.093  19.164  0.00  0.00    +0.000 A 
ENDBRANCH  21  22
ENDBRANCH  10  21
TORSDOF 4
ENDMDL
MODEL 2
REMARK VINA RESULT:      -9.2      0.788      1.382
REMARK  Name = 
REMARK  4 active torsions:
REMARK  status: ('A' for Active; 'I' for Inactive)
REMARK    1  A    between atoms: N_6  and  C_7
REMARK    2  A    between atoms: C_11  and  C_12
REMARK    3  A    between atoms: N_20  and  C_21
REMARK    4  A    between atoms: C_21  and  C_22
REMARK                            x       y       z     vdW  Elec       q    Type
REMARK                         _______ _______ _______ _____ _____    ______ ____
ROOT
ATOM      1  O   UNL     1       5.831   5.319  20.172  0.00  0.00    +0.000 OA
ATOM      2  C   UNL     1       5.446   5.376  19.011  0.00  0.00    +0.000 A 
ATOM      3  C   UNL     1       6.300   5.055  17.903  0.00  0.00    +0.000 A 
ATOM      4  C   UNL     1       7.603   4.578  17.788  0.00  0.00    +0.000 A 
ATOM      5  N   UNL     1       7.957   4.383  16.513  0.00  0.00    +0.000 NA
ATOM      6  N   UNL     1       6.860   4.758  15.782  0.00  0.00    +0.000 N 
ATOM      7  C   UNL     1       5.827   5.177  16.620  0.00  0.00    +0.000 A 
ATOM      8  N   UNL     1       4.579   5.579  16.268  0.00  0.00    +0.000 NA
ATOM      9  C   UNL     1       3.804   5.834  17.278  0.00  0.00    +0.000 A 
ATOM     10  N   UNL     1       4.156   5.747  18.617  0.00  0.00    +0.000 N 
ENDROOT
BRANCH   6  11
ATOM     11  C   UNL     1       6.881   4.670  14.357  0.00  0.00    +0.000 A 
ATOM     12  C   UNL     1       7.864   5.361  13.633  0.00  0.00    +0.000 A 
ATOM     13  C   UNL     1       7.922   5.253  12.241  0.00  0.00    +0.000 A 
ATOM     14  C   UNL     1       6.982   4.484  11.555  0.00  0.00    +0.000 A 
ATOM     15  C   UNL     1       5.967   3.822  12.254  0.00  0.00    +0.000 A 
ATOM     16  C   UNL     1       5.938   3.905  13.656  0.00  0.00    +0.000 A 
BRANCH  15  17
ATOM     17  C   UNL     1       4.885   3.048  11.543  0.00  0.00    +0.000 C 
ATOM     18  F   UNL     1       4.499   3.606  10.362  0.00  0.00    +0.000 F 
ATOM     19  F   UNL     1       5.255   1.771  11.250  0.00  0.00    +0.000 F 
ATOM     20  F   UNL     1       3.750   2.943  12.291  0.00  0.00    +0.000 F 
ENDBRANCH  15  17
ENDBRANCH   6  11
BRANCH  10  21
ATOM     21  C   UNL     1       3.154   5.995  19.640  0.00  0.00    +0.000 C 
BRANCH  21  22
ATOM     22  C   UNL     1       2.253   4.793  19.832  0.00  0.00    +0.000 A 
ATOM     23  C   UNL     1       1.558   4.228  18.750  0.00  0.00    +0.000 A 
ATOM     24  C   UNL     1       0.792   3.071  18.923  0.00  0.00    +0.000 A 
ATOM     25  C   UNL     1       0.711   2.468  20.176  0.00  0.00    +0.000 A 
ATOM     26  C   UNL     1       1.383   3.035  21.251  0.00  0.00    +0.000 A 
ATOM     27  F   UNL     1       1.303   2.458  22.457  0.00  0.00    +0.000 F 
ATOM     28  C   UNL     1       2.146   4.188  21.092  0.00  0.00    +0.000 A 
ENDBRANCH  21  22
ENDBRANCH  10  21
TORSDOF 4
ENDMDL
MODEL 3
REMARK VINA RESULT:      -8.9      5.419      7.057
REMARK  Name = 
REMARK  4 active torsions:
REMARK  status: ('A' for Active; 'I' for Inactive)
REMARK    1  A    between atoms: N_6  and  C_7
REMARK    2  A    between atoms: C_11  and  C_12
REMARK    3  A    between atoms: N_20  and  C_21
REMARK    4  A    between atoms: C_21  and  C_22
REMARK                            x       y       z     vdW  Elec       q    Type
REMARK                         _______ _______ _______ _____ _____    ______ ____
ROOT
ATOM      1  O   UNL     1       0.148   9.603  21.121  0.00  0.00    +0.000 OA
ATOM      2  C   UNL     1       0.827   9.262  20.161  0.00  0.00    +0.000 A 
ATOM      3  C   UNL     1       1.505   7.999  20.110  0.00  0.00    +0.000 A 
ATOM      4  C   UNL     1       1.554   6.889  20.950  0.00  0.00    +0.000 A 
ATOM      5  N   UNL     1       2.304   5.906  20.442  0.00  0.00    +0.000 NA
ATOM      6  N   UNL     1       2.767   6.396  19.249  0.00  0.00    +0.000 N 
ATOM      7  C   UNL     1       2.286   7.686  19.026  0.00  0.00    +0.000 A 
ATOM      8  N   UNL     1       2.491   8.477  17.940  0.00  0.00    +0.000 NA
ATOM      9  C   UNL     1       1.847   9.603  17.980  0.00  0.00    +0.000 A 
ATOM     10  N   UNL     1       1.025  10.035  19.011  0.00  0.00    +0.000 N 
ENDROOT
BRANCH   6  11
ATOM     11  C   UNL     1       3.608   5.595  18.419  0.00  0.00    +0.000 A 
ATOM     12  C   UNL     1       3.055   4.531  17.691  0.00  0.00    +0.000 A 
ATOM     13  C   UNL     1       3.857   3.763  16.844  0.00  0.00    +0.000 A 
ATOM     14  C   UNL     1       5.224   4.025  16.740  0.00  0.00    +0.000 A 
ATOM     15  C   UNL     1       5.804   5.052  17.492  0.00  0.00    +0.000 A 
ATOM     16  C   UNL     1       4.983   5.844  18.312  0.00  0.00    +0.000 A 
BRANCH  15  17
ATOM     17  C   UNL     1       7.289   5.313  17.469  0.00  0.00    +0.000 C 
ATOM     18  F   UNL     1       7.791   5.726  18.666  0.00  0.00    +0.000 F 
ATOM     19  F   UNL     1       8.012   4.213  17.120  0.00  0.00    +0.000 F 
ATOM     20  F   UNL     1       7.629   6.281  16.572  0.00  0.00    +0.000 F 
ENDBRANCH  15  17
ENDBRANCH   6  11
BRANCH  10  21
ATOM     21  C   UNL     1       0.310  11.293  18.879  0.00  0.00    +0.000 C 
BRANCH  21  22
ATOM     22  C   UNL     1      -1.109  11.074  18.400  0.00  0.00    +0.000 A 
ATOM     23  C   UNL     1      -1.416  10.048  17.490  0.00  0.00    +0.000 A 
ATOM     24  C   UNL     1      -2.741   9.803  17.116  0.00  0.00    +0.000 A 
ATOM     25  C   UNL     1      -3.771  10.579  17.644  0.00  0.00    +0.000 A 
ATOM     26  C   UNL     1      -3.468  11.604  18.530  0.00  0.00    +0.000 A 
ATOM     27  F   UNL     1      -4.456  12.353  19.036  0.00  0.00    +0.000 F 
ATOM     28  C   UNL     1      -2.153  11.860  18.907  0.00  0.00    +0.000 A 
ENDBRANCH  21  22
ENDBRANCH  10  21
TORSDOF 4
ENDMDL
MODEL 4
REMARK VINA RESULT:      -8.9      5.149      6.759
REMARK  Name = 
REMARK  4 active torsions:
REMARK  status: ('A' for Active; 'I' for Inactive)
REMARK    1  A    between atoms: N_6  and  C_7
REMARK    2  A    between atoms: C_11  and  C_12
REMARK    3  A    between atoms: N_20  and  C_21
REMARK    4  A    between atoms: C_21  and  C_22
REMARK                            x       y       z     vdW  Elec       q    Type
REMARK                         _______ _______ _______ _____ _____    ______ ____
ROOT
ATOM      1  O   UNL     1       0.317   9.626  21.105  0.00  0.00    +0.000 OA
ATOM      2  C   UNL     1       0.927   9.257  20.110  0.00  0.00    +0.000 A 
ATOM      3  C   UNL     1       1.574   7.978  20.037  0.00  0.00    +0.000 A 
ATOM      4  C   UNL     1       1.652   6.880  20.890  0.00  0.00    +0.000 A 
ATOM      5  N   UNL     1       2.349   5.873  20.352  0.00  0.00    +0.000 NA
ATOM      6  N   UNL     1       2.747   6.337  19.124  0.00  0.00    +0.000 N 
ATOM      7  C   UNL     1       2.280   7.634  18.912  0.00  0.00    +0.000 A 
ATOM      8  N   UNL     1       2.433   8.404  17.803  0.00  0.00    +0.000 NA
ATOM      9  C   UNL     1       1.816   9.544  17.865  0.00  0.00    +0.000 A 
ATOM     10  N   UNL     1       1.070  10.008  18.939  0.00  0.00    +0.000 N 
ENDROOT
BRANCH   6  11
ATOM     11  C   UNL     1       3.517   5.505  18.257  0.00  0.00    +0.000 A 
ATOM     12  C   UNL     1       2.941   4.349  17.710  0.00  0.00    +0.000 A 
ATOM     13  C   UNL     1       3.669   3.547  16.828  0.00  0.00    +0.000 A 
ATOM     14  C   UNL     1       4.989   3.870  16.509  0.00  0.00    +0.000 A 
ATOM     15  C   UNL     1       5.597   4.994  17.078  0.00  0.00    +0.000 A 
ATOM     16  C   UNL     1       4.846   5.816  17.935  0.00  0.00    +0.000 A 
BRANCH  15  17
ATOM     17  C   UNL     1       7.046   5.329  16.823  0.00  0.00    +0.000 C 
ATOM     18  F   UNL     1       7.919   4.555  17.525  0.00  0.00    +0.000 F 
ATOM     19  F   UNL     1       7.396   5.195  15.514  0.00  0.00    +0.000 F 
ATOM     20  F   UNL     1       7.343   6.617  17.156  0.00  0.00    +0.000 F 
ENDBRANCH  15  17
ENDBRANCH   6  11
BRANCH  10  21
ATOM     21  C   UNL     1       0.374  11.280  18.831  0.00  0.00    +0.000 C 
BRANCH  21  22
ATOM     22  C   UNL     1      -1.080  11.084  18.460  0.00  0.00    +0.000 A 
ATOM     23  C   UNL     1      -2.094  11.833  19.079  0.00  0.00    +0.000 A 
ATOM     24  C   UNL     1      -3.425  11.701  18.673  0.00  0.00    +0.000 A 
ATOM     25  C   UNL     1      -3.758  10.820  17.647  0.00  0.00    +0.000 A 
ATOM     26  C   UNL     1      -2.760  10.064  17.046  0.00  0.00    +0.000 A 
ATOM     27  F   UNL     1      -3.080   9.214  16.061  0.00  0.00    +0.000 F 
ATOM     28  C   UNL     1      -1.432  10.184  17.443  0.00  0.00    +0.000 A 
ENDBRANCH  21  22
ENDBRANCH  10  21
TORSDOF 4
ENDMDL
MODEL 5
REMARK VINA RESULT:      -8.6      3.555      8.614
REMARK  Name = 
REMARK  4 active torsions:
REMARK  status: ('A' for Active; 'I' for Inactive)
REMARK    1  A    between atoms: N_6  and  C_7
REMARK    2  A    between atoms: C_11  and  C_12
REMARK    3  A    between atoms: N_20  and  C_21
REMARK    4  A    between atoms: C_21  and  C_22
REMARK                            x       y       z     vdW  Elec       q    Type
REMARK                         _______ _______ _______ _____ _____    ______ ____
ROOT
ATOM      1  O   UNL     1       4.969   2.984  16.959  0.00  0.00    +0.000 OA
ATOM      2  C   UNL     1       4.873   4.197  17.088  0.00  0.00    +0.000 A 
ATOM      3  C   UNL     1       3.747   4.814  17.729  0.00  0.00    +0.000 A 
ATOM      4  C   UNL     1       2.614   4.330  18.379  0.00  0.00    +0.000 A 
ATOM      5  N   UNL     1       1.855   5.316  18.868  0.00  0.00    +0.000 NA
ATOM      6  N   UNL     1       2.503   6.470  18.513  0.00  0.00    +0.000 N 
ATOM      7  C   UNL     1       3.672   6.182  17.808  0.00  0.00    +0.000 A 
ATOM      8  N   UNL     1       4.595   7.057  17.331  0.00  0.00    +0.000 NA
ATOM      9  C   UNL     1       5.626   6.489  16.784  0.00  0.00    +0.000 A 
ATOM     10  N   UNL     1       5.824   5.123  16.645  0.00  0.00    +0.000 N 
ENDROOT
BRANCH   6  11
ATOM     11  C   UNL     1       1.969   7.740  18.886  0.00  0.00    +0.000 A 
ATOM     12  C   UNL     1       1.862   8.758  17.926  0.00  0.00    +0.000 A 
ATOM     13  C   UNL     1       1.304   9.993  18.267  0.00  0.00    +0.000 A 
ATOM     14  C   UNL     1       0.878  10.237  19.573  0.00  0.00    +0.000 A 
ATOM     15  C   UNL     1       1.017   9.251  20.556  0.00  0.00    +0.000 A 
ATOM     16  C   UNL     1       1.544   7.999  20.196  0.00  0.00    +0.000 A 
BRANCH  15  17
ATOM     17  C   UNL     1       0.645   9.505  21.995  0.00  0.00    +0.000 C 
ATOM     18  F   UNL     1      -0.409   8.760  22.429  0.00  0.00    +0.000 F 
ATOM     19  F   UNL     1       1.667   9.244  22.857  0.00  0.00    +0.000 F 
ATOM     20  F   UNL     1       0.296  10.804  22.216  0.00  0.00    +0.000 F 
ENDBRANCH  15  17
ENDBRANCH   6  11
BRANCH  10  21
ATOM     21  C   UNL     1       7.067   4.633  16.074  0.00  0.00    +0.000 C 
BRANCH  21  22
ATOM     22  C   UNL     1       6.996   4.577  14.563  0.00  0.00    +0.000 A 
ATOM     23  C   UNL     1       7.793   5.416  13.768  0.00  0.00    +0.000 A 
ATOM     24  C   UNL     1       7.778   5.301  12.374  0.00  0.00    +0.000 A 
ATOM     25  C   UNL     1       6.967   4.348  11.761  0.00  0.00    +0.000 A 
ATOM     26  C   UNL     1       6.164   3.529  12.544  0.00  0.00    +0.000 A 
ATOM     27  F   UNL     1       5.381   2.615  11.956  0.00  0.00    +0.000 F 
ATOM     28  C   UNL     1       6.168   3.637  13.932  0.00  0.00    +0.000 A 
ENDBRANCH  21  22
ENDBRANCH  10  21
TORSDOF 4
ENDMDL
MODEL 6
REMARK VINA RESULT:      -8.3      1.935      2.653
REMARK  Name = 
REMARK  4 active torsions:
REMARK  status: ('A' for Active; 'I' for Inactive)
REMARK    1  A    between atoms: N_6  and  C_7
REMARK    2  A    between atoms: C_11  and  C_12
REMARK    3  A    between atoms: N_20  and  C_21
REMARK    4  A    between atoms: C_21  and  C_22
REMARK                            x       y       z     vdW  Elec       q    Type
REMARK                         _______ _______ _______ _____ _____    ______ ____
ROOT
ATOM      1  O   UNL     1       5.789   5.038  20.230  0.00  0.00    +0.000 OA
ATOM      2  C   UNL     1       5.379   5.048  19.076  0.00  0.00    +0.000 A 
ATOM      3  C   UNL     1       6.248   4.851  17.952  0.00  0.00    +0.000 A 
ATOM      4  C   UNL     1       7.602   4.556  17.810  0.00  0.00    +0.000 A 
ATOM      5  N   UNL     1       7.956   4.417  16.529  0.00  0.00    +0.000 NA
ATOM      6  N   UNL     1       6.805   4.643  15.819  0.00  0.00    +0.000 N 
ATOM      7  C   UNL     1       5.741   4.914  16.678  0.00  0.00    +0.000 A 
ATOM      8  N   UNL     1       4.443   5.146  16.350  0.00  0.00    +0.000 NA
ATOM      9  C   UNL     1       3.659   5.288  17.375  0.00  0.00    +0.000 A 
ATOM     10  N   UNL     1       4.044   5.243  18.707  0.00  0.00    +0.000 N 
ENDROOT
BRANCH   6  11
ATOM     11  C   UNL     1       6.813   4.566  14.393  0.00  0.00    +0.000 A 
ATOM     12  C   UNL     1       7.835   5.197  13.669  0.00  0.00    +0.000 A 
ATOM     13  C   UNL     1       7.878   5.097  12.276  0.00  0.00    +0.000 A 
ATOM     14  C   UNL     1       6.885   4.397  11.589  0.00  0.00    +0.000 A 
ATOM     15  C   UNL     1       5.832   3.798  12.290  0.00  0.00    +0.000 A 
ATOM     16  C   UNL     1       5.817   3.871  13.692  0.00  0.00    +0.000 A 
BRANCH  15  17
ATOM     17  C   UNL     1       4.697   3.104  11.579  0.00  0.00    +0.000 C 
ATOM     18  F   UNL     1       3.588   2.937  12.350  0.00  0.00    +0.000 F 
ATOM     19  F   UNL     1       4.283   3.774  10.468  0.00  0.00    +0.000 F 
ATOM     20  F   UNL     1       5.043   1.856  11.152  0.00  0.00    +0.000 F 
ENDBRANCH  15  17
ENDBRANCH   6  11
BRANCH  10  21
ATOM     21  C   UNL     1       3.036   5.348  19.748  0.00  0.00    +0.000 C 
BRANCH  21  22
ATOM     22  C   UNL     1       2.358   6.701  19.725  0.00  0.00    +0.000 A 
ATOM     23  C   UNL     1       1.687   7.195  20.856  0.00  0.00    +0.000 A 
ATOM     24  C   UNL     1       1.132   8.479  20.851  0.00  0.00    +0.000 A 
ATOM     25  C   UNL     1       1.241   9.281  19.717  0.00  0.00    +0.000 A 
ATOM     26  C   UNL     1       1.888   8.789  18.592  0.00  0.00    +0.000 A 
ATOM     27  F   UNL     1       1.991   9.558  17.500  0.00  0.00    +0.000 F 
ATOM     28  C   UNL     1       2.441   7.512  18.584  0.00  0.00    +0.000 A 
ENDBRANCH  21  22
ENDBRANCH  10  21
TORSDOF 4
ENDMDL
MODEL 7
REMARK VINA RESULT:      -8.3      5.520      7.469
REMARK  Name = 
REMARK  4 active torsions:
REMARK  status: ('A' for Active; 'I' for Inactive)
REMARK    1  A    between atoms: N_6  and  C_7
REMARK    2  A    between atoms: C_11  and  C_12
REMARK    3  A    between atoms: N_20  and  C_21
REMARK    4  A    between atoms: C_21  and  C_22
REMARK                            x       y       z     vdW  Elec       q    Type
REMARK                         _______ _______ _______ _____ _____    ______ ____
ROOT
ATOM      1  O   UNL     1       0.335   9.784  21.092  0.00  0.00    +0.000 OA
ATOM      2  C   UNL     1       0.968   9.401  20.117  0.00  0.00    +0.000 A 
ATOM      3  C   UNL     1       1.555   8.093  20.049  0.00  0.00    +0.000 A 
ATOM      4  C   UNL     1       1.544   6.980  20.886  0.00  0.00    +0.000 A 
ATOM      5  N   UNL     1       2.214   5.949  20.360  0.00  0.00    +0.000 NA
ATOM      6  N   UNL     1       2.684   6.410  19.158  0.00  0.00    +0.000 N 
ATOM      7  C   UNL     1       2.290   7.731  18.948  0.00  0.00    +0.000 A 
ATOM      8  N   UNL     1       2.526   8.510  17.860  0.00  0.00    +0.000 NA
ATOM      9  C   UNL     1       1.962   9.677  17.916  0.00  0.00    +0.000 A 
ATOM     10  N   UNL     1       1.195  10.161  18.965  0.00  0.00    +0.000 N 
ENDROOT
BRANCH   6  11
ATOM     11  C   UNL     1       3.450   5.555  18.308  0.00  0.00    +0.000 A 
ATOM     12  C   UNL     1       2.845   4.430  17.729  0.00  0.00    +0.000 A 
ATOM     13  C   UNL     1       3.570   3.607  16.864  0.00  0.00    +0.000 A 
ATOM     14  C   UNL     1       4.913   3.876  16.596  0.00  0.00    +0.000 A 
ATOM     15  C   UNL     1       5.547   4.968  17.198  0.00  0.00    +0.000 A 
ATOM     16  C   UNL     1       4.801   5.812  18.037  0.00  0.00    +0.000 A 
BRANCH  15  17
ATOM     17  C   UNL     1       7.016   5.244  16.998  0.00  0.00    +0.000 C 
ATOM     18  F   UNL     1       7.348   6.559  17.118  0.00  0.00    +0.000 F 
ATOM     19  F   UNL     1       7.804   4.578  17.887  0.00  0.00    +0.000 F 
ATOM     20  F   UNL     1       7.448   4.864  15.763  0.00  0.00    +0.000 F 
ENDBRANCH  15  17
ENDBRANCH   6  11
BRANCH  10  21
ATOM     21  C   UNL     1       0.566  11.467  18.851  0.00  0.00    +0.000 C 
BRANCH  21  22
ATOM     22  C   UNL     1       1.547  12.580  19.153  0.00  0.00    +0.000 A 
ATOM     23  C   UNL     1       1.938  12.863  20.472  0.00  0.00    +0.000 A 
ATOM     24  C   UNL     1       2.904  13.839  20.734  0.00  0.00    +0.000 A 
ATOM     25  C   UNL     1       3.488  14.543  19.683  0.00  0.00    +0.000 A 
ATOM     26  C   UNL     1       3.090  14.278  18.379  0.00  0.00    +0.000 A 
ATOM     27  F   UNL     1       3.648  14.956  17.368  0.00  0.00    +0.000 F 
ATOM     28  C   UNL     1       2.127  13.311  18.106  0.00  0.00    +0.000 A 
ENDBRANCH  21  22
ENDBRANCH  10  21
TORSDOF 4
ENDMDL
MODEL 8
REMARK VINA RESULT:      -8.2      1.941      2.780
REMARK  Name = 
REMARK  4 active torsions:
REMARK  status: ('A' for Active; 'I' for Inactive)
REMARK    1  A    between atoms: N_6  and  C_7
REMARK    2  A    between atoms: C_11  and  C_12
REMARK    3  A    between atoms: N_20  and  C_21
REMARK    4  A    between atoms: C_21  and  C_22
REMARK                            x       y       z     vdW  Elec       q    Type
REMARK                         _______ _______ _______ _____ _____    ______ ____
ROOT
ATOM      1  O   UNL     1       5.672   5.151  20.220  0.00  0.00    +0.000 OA
ATOM      2  C   UNL     1       5.283   5.146  19.060  0.00  0.00    +0.000 A 
ATOM      3  C   UNL     1       6.171   4.932  17.953  0.00  0.00    +0.000 A 
ATOM      4  C   UNL     1       7.526   4.632  17.840  0.00  0.00    +0.000 A 
ATOM      5  N   UNL     1       7.902   4.475  16.566  0.00  0.00    +0.000 NA
ATOM      6  N   UNL     1       6.765   4.695  15.833  0.00  0.00    +0.000 N 
ATOM      7  C   UNL     1       5.686   4.980  16.670  0.00  0.00    +0.000 A 
ATOM      8  N   UNL     1       4.395   5.209  16.317  0.00  0.00    +0.000 NA
ATOM      9  C   UNL     1       3.593   5.367  17.325  0.00  0.00    +0.000 A 
ATOM     10  N   UNL     1       3.955   5.339  18.664  0.00  0.00    +0.000 N 
ENDROOT
BRANCH   6  11
ATOM     11  C   UNL     1       6.797   4.599  14.409  0.00  0.00    +0.000 A 
ATOM     12  C   UNL     1       7.833   5.218  13.695  0.00  0.00    +0.000 A 
ATOM     13  C   UNL     1       7.900   5.100  12.304  0.00  0.00    +0.000 A 
ATOM     14  C   UNL     1       6.918   4.392  11.610  0.00  0.00    +0.000 A 
ATOM     15  C   UNL     1       5.852   3.805  12.299  0.00  0.00    +0.000 A 
ATOM     16  C   UNL     1       5.812   3.897  13.701  0.00  0.00    +0.000 A 
BRANCH  15  17
ATOM     17  C   UNL     1       4.728   3.103  11.578  0.00  0.00    +0.000 C 
ATOM     18  F   UNL     1       3.622   2.905  12.347  0.00  0.00    +0.000 F 
ATOM     19  F   UNL     1       4.302   3.783  10.478  0.00  0.00    +0.000 F 
ATOM     20  F   UNL     1       5.094   1.868  11.131  0.00  0.00    +0.000 F 
ENDBRANCH  15  17
ENDBRANCH   6  11
BRANCH  10  21
ATOM     21  C   UNL     1       2.928   5.460  19.687  0.00  0.00    +0.000 C 
BRANCH  21  22
ATOM     22  C   UNL     1       2.331   6.851  19.707  0.00  0.00    +0.000 A 
ATOM     23  C   UNL     1       2.404   7.687  18.581  0.00  0.00    +0.000 A 
ATOM     24  C   UNL     1       1.780   8.939  18.583  0.00  0.00    +0.000 A 
ATOM     25  C   UNL     1       1.079   9.367  19.709  0.00  0.00    +0.000 A 
ATOM     26  C   UNL     1       1.021   8.550  20.829  0.00  0.00    +0.000 A 
ATOM     27  F   UNL     1       0.351   8.962  21.913  0.00  0.00    +0.000 F 
ATOM     28  C   UNL     1       1.640   7.304  20.840  0.00  0.00    +0.000 A 
ENDBRANCH  21  22
ENDBRANCH  10  21
TORSDOF 4
ENDMDL
MODEL 9
REMARK VINA RESULT:      -8.2      5.424      8.790
REMARK  Name = 
REMARK  4 active torsions:
REMARK  status: ('A' for Active; 'I' for Inactive)
REMARK    1  A    between atoms: N_6  and  C_7
REMARK    2  A    between atoms: C_11  and  C_12
REMARK    3  A    between atoms: N_20  and  C_21
REMARK    4  A    between atoms: C_21  and  C_22
REMARK                            x       y       z     vdW  Elec       q    Type
REMARK                         _______ _______ _______ _____ _____    ______ ____
ROOT
ATOM      1  O   UNL     1       3.326   5.411  20.247  0.00  0.00    +0.000 OA
ATOM      2  C   UNL     1       2.948   6.288  19.482  0.00  0.00    +0.000 A 
ATOM      3  C   UNL     1       2.044   7.325  19.889  0.00  0.00    +0.000 A 
ATOM      4  C   UNL     1       1.449   7.675  21.098  0.00  0.00    +0.000 A 
ATOM      5  N   UNL     1       0.699   8.777  20.991  0.00  0.00    +0.000 NA
ATOM      6  N   UNL     1       0.797   9.142  19.673  0.00  0.00    +0.000 N 
ATOM      7  C   UNL     1       1.621   8.259  18.976  0.00  0.00    +0.000 A 
ATOM      8  N   UNL     1       1.990   8.317  17.670  0.00  0.00    +0.000 NA
ATOM      9  C   UNL     1       2.835   7.396  17.320  0.00  0.00    +0.000 A 
ATOM     10  N   UNL     1       3.340   6.400  18.143  0.00  0.00    +0.000 N 
ENDROOT
BRANCH   6  11
ATOM     11  C   UNL     1       0.117  10.303  19.196  0.00  0.00    +0.000 A 
ATOM     12  C   UNL     1       0.531  11.574  19.621  0.00  0.00    +0.000 A 
ATOM     13  C   UNL     1      -0.099  12.721  19.132  0.00  0.00    +0.000 A 
ATOM     14  C   UNL     1      -1.169  12.612  18.243  0.00  0.00    +0.000 A 
ATOM     15  C   UNL     1      -1.626  11.353  17.841  0.00  0.00    +0.000 A 
ATOM     16  C   UNL     1      -0.963  10.206  18.308  0.00  0.00    +0.000 A 
BRANCH  15  17
ATOM     17  C   UNL     1      -2.831  11.192  16.948  0.00  0.00    +0.000 C 
ATOM     18  F   UNL     1      -3.363   9.938  16.966  0.00  0.00    +0.000 F 
ATOM     19  F   UNL     1      -3.848  12.035  17.277  0.00  0.00    +0.000 F 
ATOM     20  F   UNL     1      -2.542  11.452  15.641  0.00  0.00    +0.000 F 
ENDBRANCH  15  17
ENDBRANCH   6  11
BRANCH  10  21
ATOM     21  C   UNL     1       4.339   5.480  17.625  0.00  0.00    +0.000 C 
BRANCH  21  22
ATOM     22  C   UNL     1       5.742   5.973  17.908  0.00  0.00    +0.000 A 
ATOM     23  C   UNL     1       6.277   7.073  17.218  0.00  0.00    +0.000 A 
ATOM     24  C   UNL     1       7.544   7.570  17.543  0.00  0.00    +0.000 A 
ATOM     25  C   UNL     1       8.288   6.973  18.559  0.00  0.00    +0.000 A 
ATOM     26  C   UNL     1       7.769   5.874  19.230  0.00  0.00    +0.000 A 
ATOM     27  F   UNL     1       8.485   5.298  20.205  0.00  0.00    +0.000 F 
ATOM     28  C   UNL     1       6.511   5.369  18.914  0.00  0.00    +0.000 A 
ENDBRANCH  21  22
ENDBRANCH  10  21
TORSDOF 4
ENDMDL
