MODEL 1
REMARK VINA RESULT:      -8.5      0.000      0.000
REMARK  Name = 
REMARK  4 active torsions:
REMARK  status: ('A' for Active; 'I' for Inactive)
REMARK    1  A    between atoms: C_5  and  C_6
REMARK    2  A    between atoms: C_9  and  C_10
REMARK    3  A    between atoms: C_10  and  N_11
REMARK    4  A    between atoms: C_14  and  C_15
REMARK                            x       y       z     vdW  Elec       q    Type
REMARK                         _______ _______ _______ _____ _____    ______ ____
ROOT
ATOM      1  C   UNL     1       2.568   6.309  19.375  0.00  0.00    +0.000 A 
ATOM      2  N   UNL     1       1.856   5.199  19.624  0.00  0.00    +0.000 NA
ATOM      3  O   UNL     1       2.796   4.174  19.574  0.00  0.00    +0.000 OA
ATOM      4  C   UNL     1       3.993   4.759  19.292  0.00  0.00    +0.000 A 
ATOM      5  N   UNL     1       3.902   6.058  19.120  0.00  0.00    +0.000 NA
ENDROOT
BRANCH   1  10
ATOM      6  F   UNL     1       0.420  11.473  19.507  0.00  0.00    +0.000 F 
ATOM      7  C   UNL     1       0.955  10.246  19.474  0.00  0.00    +0.000 A 
ATOM      8  C   UNL     1       0.886   9.439  20.603  0.00  0.00    +0.000 A 
ATOM      9  C   UNL     1       1.433   8.155  20.564  0.00  0.00    +0.000 A 
ATOM     10  C   UNL     1       2.050   7.671  19.395  0.00  0.00    +0.000 A 
ATOM     11  C   UNL     1       2.111   8.515  18.279  0.00  0.00    +0.000 A 
ATOM     12  F   UNL     1       2.685   8.115  17.134  0.00  0.00    +0.000 F 
ATOM     13  C   UNL     1       1.568   9.797  18.312  0.00  0.00    +0.000 A 
ENDBRANCH   1  10
BRANCH   4  14
ATOM     14  C   UNL     1       5.171   3.879  19.224  0.00  0.00    +0.000 C 
BRANCH  14  15
ATOM     15  N   UNL     1       5.959   4.230  18.063  0.00  0.00    +0.000 N 
ATOM     16  N   UNL     1       7.204   4.716  18.186  0.00  0.00    +0.000 NA
ATOM     17  N   UNL     1       7.637   4.852  16.943  0.00  0.00    +0.000 NA
ATOM     18  C   UNL     1       6.627   4.414  16.112  0.00  0.00    +0.000 A 
ATOM     19  N   UNL     1       5.550   3.990  16.798  0.00  0.00    +0.000 NA
BRANCH  18  20
ATOM     20  C   UNL     1       6.765   4.397  14.661  0.00  0.00    +0.000 A 
ATOM     21  C   UNL     1       5.912   3.596  13.886  0.00  0.00    +0.000 A 
ATOM     22  C   UNL     1       6.015   3.580  12.494  0.00  0.00    +0.000 A 
ATOM     23  C   UNL     1       6.975   4.362  11.858  0.00  0.00    +0.000 A 
ATOM     24  C   UNL     1       7.837   5.156  12.614  0.00  0.00    +0.000 A 
ATOM     25  C   UNL     1       7.734   5.174  14.009  0.00  0.00    +0.000 A 
ENDBRANCH  18  20
ENDBRANCH  14  15
ENDBRANCH   4  14
TORSDOF 4
ENDMDL
MODEL 2
REMARK VINA RESULT:      -8.4      1.016      1.698
REMARK  Name = 
REMARK  4 active torsions:
REMARK  status: ('A' for Active; 'I' for Inactive)
REMARK    1  A    between atoms: C_5  and  C_6
REMARK    2  A    between atoms: C_9  and  C_10
REMARK    3  A    between atoms: C_10  and  N_11
REMARK    4  A    between atoms: C_14  and  C_15
REMARK                            x       y       z     vdW  Elec       q    Type
REMARK                         _______ _______ _______ _____ _____    ______ ____
ROOT
ATOM      1  C   UNL     1       2.570   6.659  18.857  0.00  0.00    +0.000 A 
ATOM      2  N   UNL     1       1.951   5.554  18.415  0.00  0.00    +0.000 NA
ATOM      3  O   UNL     1       2.936   4.571  18.463  0.00  0.00    +0.000 OA
ATOM      4  C   UNL     1       4.066   5.177  18.926  0.00  0.00    +0.000 A 
ATOM      5  N   UNL     1       3.907   6.463  19.143  0.00  0.00    +0.000 NA
ENDROOT
BRANCH   1  10
ATOM      6  F   UNL     1       0.301  11.716  19.621  0.00  0.00    +0.000 F 
ATOM      7  C   UNL     1       0.823  10.496  19.441  0.00  0.00    +0.000 A 
ATOM      8  C   UNL     1       1.343  10.151  18.199  0.00  0.00    +0.000 A 
ATOM      9  C   UNL     1       1.899   8.884  18.015  0.00  0.00    +0.000 A 
ATOM     10  C   UNL     1       1.939   7.956  19.072  0.00  0.00    +0.000 A 
ATOM     11  C   UNL     1       1.398   8.333  20.308  0.00  0.00    +0.000 A 
ATOM     12  F   UNL     1       1.405   7.496  21.356  0.00  0.00    +0.000 F 
ATOM     13  C   UNL     1       0.842   9.596  20.498  0.00  0.00    +0.000 A 
ENDBRANCH   1  10
BRANCH   4  14
ATOM     14  C   UNL     1       5.256   4.330  19.106  0.00  0.00    +0.000 C 
BRANCH  14  15
ATOM     15  N   UNL     1       6.092   4.430  17.930  0.00  0.00    +0.000 N 
ATOM     16  N   UNL     1       7.430   4.458  18.026  0.00  0.00    +0.000 NA
ATOM     17  N   UNL     1       7.857   4.479  16.774  0.00  0.00    +0.000 NA
ATOM     18  C   UNL     1       6.742   4.439  15.964  0.00  0.00    +0.000 A 
ATOM     19  N   UNL     1       5.598   4.385  16.673  0.00  0.00    +0.000 NA
BRANCH  18  20
ATOM     20  C   UNL     1       6.835   4.424  14.509  0.00  0.00    +0.000 A 
ATOM     21  C   UNL     1       7.701   5.312  13.854  0.00  0.00    +0.000 A 
ATOM     22  C   UNL     1       7.819   5.300  12.463  0.00  0.00    +0.000 A 
ATOM     23  C   UNL     1       7.070   4.402  11.708  0.00  0.00    +0.000 A 
ATOM     24  C   UNL     1       6.197   3.518  12.344  0.00  0.00    +0.000 A 
ATOM     25  C   UNL     1       6.079   3.528  13.738  0.00  0.00    +0.000 A 
ENDBRANCH  18  20
ENDBRANCH  14  15
ENDBRANCH   4  14
TORSDOF 4
ENDMDL
MODEL 3
REMARK VINA RESULT:      -8.4      5.017      6.716
REMARK  Name = 
REMARK  4 active torsions:
REMARK  status: ('A' for Active; 'I' for Inactive)
REMARK    1  A    between atoms: C_5  and  C_6
REMARK    2  A    between atoms: C_9  and  C_10
REMARK    3  A    between atoms: C_10  and  N_11
REMARK    4  A    between atoms: C_14  and  C_15
REMARK                            x       y       z     vdW  Elec       q    Type
REMARK                         _______ _______ _______ _____ _____    ______ ____
ROOT
ATOM      1  C   UNL     1       5.143   4.314  17.875  0.00  0.00    +0.000 A 
ATOM      2  N   UNL     1       5.878   4.147  16.765  0.00  0.00    +0.000 NA
ATOM      3  O   UNL     1       7.087   4.770  17.061  0.00  0.00    +0.000 OA
ATOM      4  C   UNL     1       6.969   5.264  18.326  0.00  0.00    +0.000 A 
ATOM      5  N   UNL     1       5.785   5.049  18.853  0.00  0.00    +0.000 NA
ENDROOT
BRANCH   1  10
ATOM      6  F   UNL     1       0.067   2.083  18.621  0.00  0.00    +0.000 F 
ATOM      7  C   UNL     1       1.278   2.630  18.461  0.00  0.00    +0.000 A 
ATOM      8  C   UNL     1       2.412   1.849  18.649  0.00  0.00    +0.000 A 
ATOM      9  C   UNL     1       3.675   2.416  18.470  0.00  0.00    +0.000 A 
ATOM     10  C   UNL     1       3.811   3.767  18.100  0.00  0.00    +0.000 A 
ATOM     11  C   UNL     1       2.647   4.528  17.928  0.00  0.00    +0.000 A 
ATOM     12  F   UNL     1       2.706   5.821  17.576  0.00  0.00    +0.000 F 
ATOM     13  C   UNL     1       1.384   3.968  18.106  0.00  0.00    +0.000 A 
ENDBRANCH   1  10
BRANCH   4  14
ATOM     14  C   UNL     1       8.145   5.943  18.893  0.00  0.00    +0.000 C 
BRANCH  14  15
ATOM     15  N   UNL     1       8.171   7.313  18.429  0.00  0.00    +0.000 N 
ATOM     16  N   UNL     1       7.379   7.724  17.426  0.00  0.00    +0.000 NA
ATOM     17  N   UNL     1       7.615   9.022  17.323  0.00  0.00    +0.000 NA
ATOM     18  C   UNL     1       8.535   9.346  18.298  0.00  0.00    +0.000 A 
ATOM     19  N   UNL     1       8.894   8.279  19.035  0.00  0.00    +0.000 NA
BRANCH  18  20
ATOM     20  C   UNL     1       9.013  10.710  18.496  0.00  0.00    +0.000 A 
ATOM     21  C   UNL     1       9.932  10.987  19.519  0.00  0.00    +0.000 A 
ATOM     22  C   UNL     1      10.417  12.282  19.713  0.00  0.00    +0.000 A 
ATOM     23  C   UNL     1       9.985  13.317  18.889  0.00  0.00    +0.000 A 
ATOM     24  C   UNL     1       9.065  13.060  17.873  0.00  0.00    +0.000 A 
ATOM     25  C   UNL     1       8.580  11.762  17.677  0.00  0.00    +0.000 A 
ENDBRANCH  18  20
ENDBRANCH  14  15
ENDBRANCH   4  14
TORSDOF 4
ENDMDL
MODEL 4
REMARK VINA RESULT:      -8.4      4.413      6.065
REMARK  Name = 
REMARK  4 active torsions:
REMARK  status: ('A' for Active; 'I' for Inactive)
REMARK    1  A    between atoms: C_5  and  C_6
REMARK    2  A    between atoms: C_9  and  C_10
REMARK    3  A    between atoms: C_10  and  N_11
REMARK    4  A    between atoms: C_14  and  C_15
REMARK                            x       y       z     vdW  Elec       q    Type
REMARK                         _______ _______ _______ _____ _____    ______ ____
ROOT
ATOM      1  C   UNL     1       4.014   4.023  17.872  0.00  0.00    +0.000 A 
ATOM      2  N   UNL     1       3.766   3.654  16.606  0.00  0.00    +0.000 NA
ATOM      3  O   UNL     1       4.858   4.138  15.891  0.00  0.00    +0.000 OA
ATOM      4  C   UNL     1       5.665   4.764  16.793  0.00  0.00    +0.000 A 
ATOM      5  N   UNL     1       5.175   4.759  18.012  0.00  0.00    +0.000 NA
ENDROOT
BRANCH   1  10
ATOM      6  F   UNL     1       0.932   2.534  22.297  0.00  0.00    +0.000 F 
ATOM      7  C   UNL     1       1.667   2.913  21.244  0.00  0.00    +0.000 A 
ATOM      8  C   UNL     1       3.015   2.578  21.196  0.00  0.00    +0.000 A 
ATOM      9  C   UNL     1       3.779   2.962  20.092  0.00  0.00    +0.000 A 
ATOM     10  C   UNL     1       3.198   3.680  19.030  0.00  0.00    +0.000 A 
ATOM     11  C   UNL     1       1.839   4.009  19.116  0.00  0.00    +0.000 A 
ATOM     12  F   UNL     1       1.225   4.692  18.139  0.00  0.00    +0.000 F 
ATOM     13  C   UNL     1       1.072   3.629  20.215  0.00  0.00    +0.000 A 
ENDBRANCH   1  10
BRANCH   4  14
ATOM     14  C   UNL     1       6.923   5.336  16.285  0.00  0.00    +0.000 C 
BRANCH  14  15
ATOM     15  N   UNL     1       7.410   6.321  17.225  0.00  0.00    +0.000 N 
ATOM     16  N   UNL     1       7.851   5.965  18.442  0.00  0.00    +0.000 NA
ATOM     17  N   UNL     1       8.277   7.092  18.988  0.00  0.00    +0.000 NA
ATOM     18  C   UNL     1       8.094   8.090  18.054  0.00  0.00    +0.000 A 
ATOM     19  N   UNL     1       7.562   7.625  16.909  0.00  0.00    +0.000 NA
BRANCH  18  20
ATOM     20  C   UNL     1       8.480   9.473  18.307  0.00  0.00    +0.000 A 
ATOM     21  C   UNL     1       9.328   9.779  19.382  0.00  0.00    +0.000 A 
ATOM     22  C   UNL     1       9.724  11.095  19.629  0.00  0.00    +0.000 A 
ATOM     23  C   UNL     1       9.274  12.123  18.805  0.00  0.00    +0.000 A 
ATOM     24  C   UNL     1       8.423  11.837  17.738  0.00  0.00    +0.000 A 
ATOM     25  C   UNL     1       8.027  10.519  17.489  0.00  0.00    +0.000 A 
ENDBRANCH  18  20
ENDBRANCH  14  15
ENDBRANCH   4  14
TORSDOF 4
ENDMDL
MODEL 5
REMARK VINA RESULT:      -8.2      0.706      1.193
REMARK  Name = 
REMARK  4 active torsions:
REMARK  status: ('A' for Active; 'I' for Inactive)
REMARK    1  A    between atoms: C_5  and  C_6
REMARK    2  A    between atoms: C_9  and  C_10
REMARK    3  A    between atoms: C_10  and  N_11
REMARK    4  A    between atoms: C_14  and  C_15
REMARK                            x       y       z     vdW  Elec       q    Type
REMARK                         _______ _______ _______ _____ _____    ______ ____
ROOT
ATOM      1  C   UNL     1       2.861   6.417  19.514  0.00  0.00    +0.000 A 
ATOM      2  N   UNL     1       2.448   5.167  19.771  0.00  0.00    +0.000 NA
ATOM      3  O   UNL     1       3.595   4.393  19.620  0.00  0.00    +0.000 OA
ATOM      4  C   UNL     1       4.598   5.249  19.276  0.00  0.00    +0.000 A 
ATOM      5  N   UNL     1       4.194   6.493  19.157  0.00  0.00    +0.000 NA
ENDROOT
BRANCH   1  10
ATOM      6  F   UNL     1      -0.417  10.927  19.976  0.00  0.00    +0.000 F 
ATOM      7  C   UNL     1       0.386   9.862  19.863  0.00  0.00    +0.000 A 
ATOM      8  C   UNL     1       0.572   9.027  20.958  0.00  0.00    +0.000 A 
ATOM      9  C   UNL     1       1.399   7.909  20.836  0.00  0.00    +0.000 A 
ATOM     10  C   UNL     1       2.043   7.619  19.619  0.00  0.00    +0.000 A 
ATOM     11  C   UNL     1       1.840   8.487  18.538  0.00  0.00    +0.000 A 
ATOM     12  F   UNL     1       2.423   8.269  17.350  0.00  0.00    +0.000 F 
ATOM     13  C   UNL     1       1.016   9.605  18.653  0.00  0.00    +0.000 A 
ENDBRANCH   1  10
BRANCH   4  14
ATOM     14  C   UNL     1       5.940   4.672  19.095  0.00  0.00    +0.000 C 
BRANCH  14  15
ATOM     15  N   UNL     1       6.422   5.001  17.771  0.00  0.00    +0.000 N 
ATOM     16  N   UNL     1       7.373   5.930  17.587  0.00  0.00    +0.000 NA
ATOM     17  N   UNL     1       7.611   5.914  16.285  0.00  0.00    +0.000 NA
ATOM     18  C   UNL     1       6.799   4.944  15.737  0.00  0.00    +0.000 A 
ATOM     19  N   UNL     1       6.042   4.327  16.664  0.00  0.00    +0.000 NA
BRANCH  18  20
ATOM     20  C   UNL     1       6.813   4.629  14.313  0.00  0.00    +0.000 A 
ATOM     21  C   UNL     1       7.696   5.303  13.456  0.00  0.00    +0.000 A 
ATOM     22  C   UNL     1       7.739   5.004  12.093  0.00  0.00    +0.000 A 
ATOM     23  C   UNL     1       6.896   4.027  11.569  0.00  0.00    +0.000 A 
ATOM     24  C   UNL     1       6.006   3.354  12.405  0.00  0.00    +0.000 A 
ATOM     25  C   UNL     1       5.964   3.653  13.772  0.00  0.00    +0.000 A 
ENDBRANCH  18  20
ENDBRANCH  14  15
ENDBRANCH   4  14
TORSDOF 4
ENDMDL
MODEL 6
REMARK VINA RESULT:      -8.2      4.559      6.155
REMARK  Name = 
REMARK  4 active torsions:
REMARK  status: ('A' for Active; 'I' for Inactive)
REMARK    1  A    between atoms: C_5  and  C_6
REMARK    2  A    between atoms: C_9  and  C_10
REMARK    3  A    between atoms: C_10  and  N_11
REMARK    4  A    between atoms: C_14  and  C_15
REMARK                            x       y       z     vdW  Elec       q    Type
REMARK                         _______ _______ _______ _____ _____    ______ ____
ROOT
ATOM      1  C   UNL     1       3.981   3.985  17.838  0.00  0.00    +0.000 A 
ATOM      2  N   UNL     1       4.422   3.119  16.913  0.00  0.00    +0.000 NA
ATOM      3  O   UNL     1       5.267   3.880  16.110  0.00  0.00    +0.000 OA
ATOM      4  C   UNL     1       5.253   5.143  16.621  0.00  0.00    +0.000 A 
ATOM      5  N   UNL     1       4.450   5.271  17.653  0.00  0.00    +0.000 NA
ENDROOT
BRANCH   1  10
ATOM      6  F   UNL     1       0.739   2.544  22.164  0.00  0.00    +0.000 F 
ATOM      7  C   UNL     1       1.511   2.911  21.134  0.00  0.00    +0.000 A 
ATOM      8  C   UNL     1       2.868   2.612  21.156  0.00  0.00    +0.000 A 
ATOM      9  C   UNL     1       3.671   2.983  20.077  0.00  0.00    +0.000 A 
ATOM     10  C   UNL     1       3.122   3.655  18.968  0.00  0.00    +0.000 A 
ATOM     11  C   UNL     1       1.753   3.949  18.983  0.00  0.00    +0.000 A 
ATOM     12  F   UNL     1       1.166   4.587  17.959  0.00  0.00    +0.000 F 
ATOM     13  C   UNL     1       0.946   3.582  20.058  0.00  0.00    +0.000 A 
ENDBRANCH   1  10
BRANCH   4  14
ATOM     14  C   UNL     1       6.109   6.143  15.963  0.00  0.00    +0.000 C 
BRANCH  14  15
ATOM     15  N   UNL     1       6.902   6.822  16.964  0.00  0.00    +0.000 N 
ATOM     16  N   UNL     1       7.515   6.142  17.945  0.00  0.00    +0.000 NA
ATOM     17  N   UNL     1       8.193   7.059  18.617  0.00  0.00    +0.000 NA
ATOM     18  C   UNL     1       7.975   8.267  17.987  0.00  0.00    +0.000 A 
ATOM     19  N   UNL     1       7.171   8.144  16.914  0.00  0.00    +0.000 NA
BRANCH  18  20
ATOM     20  C   UNL     1       8.592   9.507  18.443  0.00  0.00    +0.000 A 
ATOM     21  C   UNL     1       8.734  10.585  17.557  0.00  0.00    +0.000 A 
ATOM     22  C   UNL     1       9.305  11.788  17.979  0.00  0.00    +0.000 A 
ATOM     23  C   UNL     1       9.743  11.926  19.293  0.00  0.00    +0.000 A 
ATOM     24  C   UNL     1       9.616  10.860  20.185  0.00  0.00    +0.000 A 
ATOM     25  C   UNL     1       9.043   9.656  19.762  0.00  0.00    +0.000 A 
ENDBRANCH  18  20
ENDBRANCH  14  15
ENDBRANCH   4  14
TORSDOF 4
ENDMDL
MODEL 7
REMARK VINA RESULT:      -8.1      3.544      4.463
REMARK  Name = 
REMARK  4 active torsions:
REMARK  status: ('A' for Active; 'I' for Inactive)
REMARK    1  A    between atoms: C_5  and  C_6
REMARK    2  A    between atoms: C_9  and  C_10
REMARK    3  A    between atoms: C_10  and  N_11
REMARK    4  A    between atoms: C_14  and  C_15
REMARK                            x       y       z     vdW  Elec       q    Type
REMARK                         _______ _______ _______ _____ _____    ______ ____
ROOT
ATOM      1  C   UNL     1       4.013   4.818  18.546  0.00  0.00    +0.000 A 
ATOM      2  N   UNL     1       3.646   5.751  17.654  0.00  0.00    +0.000 NA
ATOM      3  O   UNL     1       4.814   6.027  16.949  0.00  0.00    +0.000 OA
ATOM      4  C   UNL     1       5.786   5.237  17.486  0.00  0.00    +0.000 A 
ATOM      5  N   UNL     1       5.359   4.509  18.493  0.00  0.00    +0.000 NA
ENDROOT
BRANCH   1  10
ATOM      6  F   UNL     1       0.712   2.236  22.251  0.00  0.00    +0.000 F 
ATOM      7  C   UNL     1       1.485   2.854  21.349  0.00  0.00    +0.000 A 
ATOM      8  C   UNL     1       1.892   4.162  21.579  0.00  0.00    +0.000 A 
ATOM      9  C   UNL     1       2.708   4.802  20.645  0.00  0.00    +0.000 A 
ATOM     10  C   UNL     1       3.123   4.136  19.476  0.00  0.00    +0.000 A 
ATOM     11  C   UNL     1       2.686   2.821  19.271  0.00  0.00    +0.000 A 
ATOM     12  F   UNL     1       3.044   2.130  18.179  0.00  0.00    +0.000 F 
ATOM     13  C   UNL     1       1.870   2.177  20.200  0.00  0.00    +0.000 A 
ENDBRANCH   1  10
BRANCH   4  14
ATOM     14  C   UNL     1       7.125   5.315  16.880  0.00  0.00    +0.000 C 
BRANCH  14  15
ATOM     15  N   UNL     1       7.023   5.032  15.465  0.00  0.00    +0.000 N 
ATOM     16  N   UNL     1       7.857   5.597  14.579  0.00  0.00    +0.000 NA
ATOM     17  N   UNL     1       7.524   5.063  13.415  0.00  0.00    +0.000 NA
ATOM     18  C   UNL     1       6.502   4.168  13.657  0.00  0.00    +0.000 A 
ATOM     19  N   UNL     1       6.174   4.110  14.962  0.00  0.00    +0.000 NA
BRANCH  18  20
ATOM     20  C   UNL     1       5.897   3.371  12.597  0.00  0.00    +0.000 A 
ATOM     21  C   UNL     1       4.614   3.690  12.128  0.00  0.00    +0.000 A 
ATOM     22  C   UNL     1       4.024   2.950  11.100  0.00  0.00    +0.000 A 
ATOM     23  C   UNL     1       4.710   1.880  10.531  0.00  0.00    +0.000 A 
ATOM     24  C   UNL     1       5.982   1.545  10.993  0.00  0.00    +0.000 A 
ATOM     25  C   UNL     1       6.574   2.286  12.022  0.00  0.00    +0.000 A 
ENDBRANCH  18  20
ENDBRANCH  14  15
ENDBRANCH   4  14
TORSDOF 4
ENDMDL
MODEL 8
REMARK VINA RESULT:      -8.1      3.445      4.476
REMARK  Name = 
REMARK  4 active torsions:
REMARK  status: ('A' for Active; 'I' for Inactive)
REMARK    1  A    between atoms: C_5  and  C_6
REMARK    2  A    between atoms: C_9  and  C_10
REMARK    3  A    between atoms: C_10  and  N_11
REMARK    4  A    between atoms: C_14  and  C_15
REMARK                            x       y       z     vdW  Elec       q    Type
REMARK                         _______ _______ _______ _____ _____    ______ ____
ROOT
ATOM      1  C   UNL     1       4.194   5.022  18.497  0.00  0.00    +0.000 A 
ATOM      2  N   UNL     1       3.879   6.073  17.725  0.00  0.00    +0.000 NA
ATOM      3  O   UNL     1       5.042   6.325  17.003  0.00  0.00    +0.000 OA
ATOM      4  C   UNL     1       5.959   5.403  17.411  0.00  0.00    +0.000 A 
ATOM      5  N   UNL     1       5.504   4.609  18.354  0.00  0.00    +0.000 NA
ENDROOT
BRANCH   1  10
ATOM      6  F   UNL     1       0.764   2.407  22.060  0.00  0.00    +0.000 F 
ATOM      7  C   UNL     1       1.571   3.027  21.190  0.00  0.00    +0.000 A 
ATOM      8  C   UNL     1       1.694   4.410  21.237  0.00  0.00    +0.000 A 
ATOM      9  C   UNL     1       2.545   5.055  20.338  0.00  0.00    +0.000 A 
ATOM     10  C   UNL     1       3.279   4.320  19.388  0.00  0.00    +0.000 A 
ATOM     11  C   UNL     1       3.123   2.928  19.362  0.00  0.00    +0.000 A 
ATOM     12  F   UNL     1       3.793   2.169  18.482  0.00  0.00    +0.000 F 
ATOM     13  C   UNL     1       2.275   2.279  20.257  0.00  0.00    +0.000 A 
ENDBRANCH   1  10
BRANCH   4  14
ATOM     14  C   UNL     1       7.278   5.434  16.759  0.00  0.00    +0.000 C 
BRANCH  14  15
ATOM     15  N   UNL     1       7.120   5.130  15.354  0.00  0.00    +0.000 N 
ATOM     16  N   UNL     1       7.929   5.669  14.429  0.00  0.00    +0.000 NA
ATOM     17  N   UNL     1       7.545   5.121  13.286  0.00  0.00    +0.000 NA
ATOM     18  C   UNL     1       6.522   4.245  13.581  0.00  0.00    +0.000 A 
ATOM     19  N   UNL     1       6.241   4.212  14.896  0.00  0.00    +0.000 NA
BRANCH  18  20
ATOM     20  C   UNL     1       5.868   3.439  12.556  0.00  0.00    +0.000 A 
ATOM     21  C   UNL     1       6.516   2.309  12.035  0.00  0.00    +0.000 A 
ATOM     22  C   UNL     1       5.898   1.513  11.068  0.00  0.00    +0.000 A 
ATOM     23  C   UNL     1       4.626   1.840  10.607  0.00  0.00    +0.000 A 
ATOM     24  C   UNL     1       3.972   2.965  11.108  0.00  0.00    +0.000 A 
ATOM     25  C   UNL     1       4.589   3.762  12.079  0.00  0.00    +0.000 A 
ENDBRANCH  18  20
ENDBRANCH  14  15
ENDBRANCH   4  14
TORSDOF 4
ENDMDL
MODEL 9
REMARK VINA RESULT:      -7.9      5.078      6.502
REMARK  Name = 
REMARK  4 active torsions:
REMARK  status: ('A' for Active; 'I' for Inactive)
REMARK    1  A    between atoms: C_5  and  C_6
REMARK    2  A    between atoms: C_9  and  C_10
REMARK    3  A    between atoms: C_10  and  N_11
REMARK    4  A    between atoms: C_14  and  C_15
REMARK                            x       y       z     vdW  Elec       q    Type
REMARK                         _______ _______ _______ _____ _____    ______ ____
ROOT
ATOM      1  C   UNL     1       3.660   5.570  18.571  0.00  0.00    +0.000 A 
ATOM      2  N   UNL     1       3.027   6.545  17.902  0.00  0.00    +0.000 NA
ATOM      3  O   UNL     1       4.022   7.122  17.118  0.00  0.00    +0.000 OA
ATOM      4  C   UNL     1       5.172   6.444  17.391  0.00  0.00    +0.000 A 
ATOM      5  N   UNL     1       5.015   5.513  18.304  0.00  0.00    +0.000 NA
ENDROOT
BRANCH   1  10
ATOM      6  F   UNL     1       1.209   2.036  22.148  0.00  0.00    +0.000 F 
ATOM      7  C   UNL     1       1.796   2.865  21.276  0.00  0.00    +0.000 A 
ATOM      8  C   UNL     1       1.097   3.971  20.808  0.00  0.00    +0.000 A 
ATOM      9  C   UNL     1       1.713   4.843  19.909  0.00  0.00    +0.000 A 
ATOM     10  C   UNL     1       3.032   4.614  19.473  0.00  0.00    +0.000 A 
ATOM     11  C   UNL     1       3.703   3.484  19.957  0.00  0.00    +0.000 A 
ATOM     12  F   UNL     1       4.961   3.207  19.582  0.00  0.00    +0.000 F 
ATOM     13  C   UNL     1       3.094   2.610  20.855  0.00  0.00    +0.000 A 
ENDBRANCH   1  10
BRANCH   4  14
ATOM     14  C   UNL     1       6.379   6.844  16.650  0.00  0.00    +0.000 C 
BRANCH  14  15
ATOM     15  N   UNL     1       7.281   7.532  17.547  0.00  0.00    +0.000 N 
ATOM     16  N   UNL     1       7.971   6.867  18.487  0.00  0.00    +0.000 NA
ATOM     17  N   UNL     1       8.732   7.786  19.059  0.00  0.00    +0.000 NA
ATOM     18  C   UNL     1       8.481   8.979  18.413  0.00  0.00    +0.000 A 
ATOM     19  N   UNL     1       7.574   8.845  17.428  0.00  0.00    +0.000 NA
BRANCH  18  20
ATOM     20  C   UNL     1       9.167  10.216  18.767  0.00  0.00    +0.000 A 
ATOM     21  C   UNL     1       9.552  11.115  17.761  0.00  0.00    +0.000 A 
ATOM     22  C   UNL     1      10.193  12.314  18.081  0.00  0.00    +0.000 A 
ATOM     23  C   UNL     1      10.460  12.627  19.411  0.00  0.00    +0.000 A 
ATOM     24  C   UNL     1      10.091  11.740  20.422  0.00  0.00    +0.000 A 
ATOM     25  C   UNL     1       9.448  10.540  20.103  0.00  0.00    +0.000 A 
ENDBRANCH  18  20
ENDBRANCH  14  15
ENDBRANCH   4  14
TORSDOF 4
ENDMDL
