MODEL 1
REMARK VINA RESULT:      -8.8      0.000      0.000
REMARK  Name = 
REMARK  5 active torsions:
REMARK  status: ('A' for Active; 'I' for Inactive)
REMARK    1  A    between atoms: C_1  and  C_2
REMARK    2  A    between atoms: C_7  and  C_8
REMARK    3  A    between atoms: C_12  and  C_13
REMARK    4  A    between atoms: N_15  and  C_16
REMARK    5  A    between atoms: C_25  and  C_26
REMARK                            x       y       z     vdW  Elec       q    Type
REMARK                         _______ _______ _______ _____ _____    ______ ____
ROOT
ATOM      1  C   UNL     1       2.521   6.682  19.227  0.00  0.00    +0.000 C 
ATOM      2  O   UNL     1       1.852   6.722  18.202  0.00  0.00    +0.000 OA
ATOM      3  N   UNL     1       2.348   7.488  20.343  0.00  0.00    +0.000 N 
ATOM      4  H   UNL     1       2.934   7.311  21.152  0.00  0.00    +0.000 HD
ENDROOT
BRANCH   3   5
ATOM      5  C   UNL     1       1.197   8.280  20.591  0.00  0.00    +0.000 A 
ATOM      6  C   UNL     1       0.309   8.067  21.659  0.00  0.00    +0.000 A 
ATOM      7  C   UNL     1      -0.422   9.140  22.208  0.00  0.00    +0.000 A 
ATOM      8  C   UNL     1      -0.344  10.383  21.597  0.00  0.00    +0.000 A 
ATOM      9  C   UNL     1       0.191  10.420  20.302  0.00  0.00    +0.000 A 
ATOM     10  C   UNL     1       1.032   9.427  19.827  0.00  0.00    +0.000 A 
ATOM     11  N   UNL     1       0.080  11.607  19.551  0.00  0.00    +0.000 N 
ATOM     12  C   UNL     1       0.541  12.610  20.379  0.00  0.00    +0.000 C 
ATOM     13  O   UNL     1       1.670  13.075  20.301  0.00  0.00    +0.000 OA
ATOM     14  C   UNL     1      -0.451  12.772  21.543  0.00  0.00    +0.000 C 
ATOM     15  C   UNL     1      -0.070  14.062  22.270  0.00  0.00    +0.000 C 
ATOM     16  O   UNL     1      -0.613  11.550  22.317  0.00  0.00    +0.000 OA
ATOM     17  H   UNL     1      -0.921  11.771  19.427  0.00  0.00    +0.000 HD
ENDBRANCH   3   5
BRANCH   1  26
ATOM     18  C   UNL     1       0.782   3.887  20.294  0.00  0.00    +0.000 C 
ATOM     19  C   UNL     1       2.147   3.502  19.855  0.00  0.00    +0.000 A 
ATOM     20  N   UNL     1       2.467   2.201  19.832  0.00  0.00    +0.000 NA
ATOM     21  O   UNL     1       3.799   2.147  19.470  0.00  0.00    +0.000 OA
ATOM     22  C   UNL     1       4.267   3.413  19.285  0.00  0.00    +0.000 A 
ATOM     23  N   UNL     1       5.536   3.667  18.935  0.00  0.00    +0.000 NA
ATOM     24  C   UNL     1       5.844   4.971  18.777  0.00  0.00    +0.000 A 
ATOM     25  C   UNL     1       4.916   5.992  18.942  0.00  0.00    +0.000 A 
ATOM     26  C   UNL     1       3.587   5.668  19.265  0.00  0.00    +0.000 A 
ATOM     27  C   UNL     1       3.265   4.314  19.471  0.00  0.00    +0.000 A 
BRANCH  24  28
ATOM     28  C   UNL     1       7.265   5.257  18.330  0.00  0.00    +0.000 C 
ATOM     29  C   UNL     1       8.212   5.855  19.349  0.00  0.00    +0.000 C 
ATOM     30  C   UNL     1       7.802   6.655  18.151  0.00  0.00    +0.000 C 
ENDBRANCH  24  28
ENDBRANCH   1  26
TORSDOF 3
ENDMDL
MODEL 2
REMARK VINA RESULT:      -8.6      1.393      1.544
REMARK  Name = 
REMARK  5 active torsions:
REMARK  status: ('A' for Active; 'I' for Inactive)
REMARK    1  A    between atoms: C_1  and  C_2
REMARK    2  A    between atoms: C_7  and  C_8
REMARK    3  A    between atoms: C_12  and  C_13
REMARK    4  A    between atoms: N_15  and  C_16
REMARK    5  A    between atoms: C_25  and  C_26
REMARK                            x       y       z     vdW  Elec       q    Type
REMARK                         _______ _______ _______ _____ _____    ______ ____
ROOT
ATOM      1  C   UNL     1       2.470   6.220  19.730  0.00  0.00    +0.000 C 
ATOM      2  O   UNL     1       1.920   5.866  20.765  0.00  0.00    +0.000 OA
ATOM      3  N   UNL     1       2.210   7.389  19.030  0.00  0.00    +0.000 N 
ATOM      4  H   UNL     1       2.780   7.594  18.216  0.00  0.00    +0.000 HD
ENDROOT
BRANCH   3   5
ATOM      5  C   UNL     1       1.480   8.491  19.548  0.00  0.00    +0.000 A 
ATOM      6  C   UNL     1       1.106   8.625  20.896  0.00  0.00    +0.000 A 
ATOM      7  C   UNL     1       0.935   9.901  21.469  0.00  0.00    +0.000 A 
ATOM      8  C   UNL     1       1.021  11.018  20.650  0.00  0.00    +0.000 A 
ATOM      9  C   UNL     1       0.950  10.797  19.268  0.00  0.00    +0.000 A 
ATOM     10  C   UNL     1       1.267   9.571  18.704  0.00  0.00    +0.000 A 
ATOM     11  N   UNL     1       0.798  11.901  18.406  0.00  0.00    +0.000 N 
ATOM     12  C   UNL     1       1.777  12.798  18.784  0.00  0.00    +0.000 C 
ATOM     13  O   UNL     1       2.838  12.919  18.187  0.00  0.00    +0.000 OA
ATOM     14  C   UNL     1       1.435  13.327  20.186  0.00  0.00    +0.000 C 
ATOM     15  C   UNL     1       2.365  14.513  20.448  0.00  0.00    +0.000 C 
ATOM     16  O   UNL     1       1.349  12.268  21.180  0.00  0.00    +0.000 OA
ATOM     17  H   UNL     1      -0.098  12.329  18.651  0.00  0.00    +0.000 HD
ENDBRANCH   3   5
BRANCH   1  26
ATOM     18  C   UNL     1       0.740   3.234  19.472  0.00  0.00    +0.000 C 
ATOM     19  C   UNL     1       2.063   3.117  18.808  0.00  0.00    +0.000 A 
ATOM     20  N   UNL     1       2.349   1.984  18.151  0.00  0.00    +0.000 NA
ATOM     21  O   UNL     1       3.652   2.123  17.712  0.00  0.00    +0.000 OA
ATOM     22  C   UNL     1       4.137   3.331  18.115  0.00  0.00    +0.000 A 
ATOM     23  N   UNL     1       5.384   3.734  17.836  0.00  0.00    +0.000 NA
ATOM     24  C   UNL     1       5.713   4.961  18.291  0.00  0.00    +0.000 A 
ATOM     25  C   UNL     1       4.823   5.772  18.984  0.00  0.00    +0.000 A 
ATOM     26  C   UNL     1       3.511   5.320  19.210  0.00  0.00    +0.000 A 
ATOM     27  C   UNL     1       3.171   4.026  18.775  0.00  0.00    +0.000 A 
BRANCH  24  28
ATOM     28  C   UNL     1       7.106   5.440  17.931  0.00  0.00    +0.000 C 
ATOM     29  C   UNL     1       7.974   5.971  19.054  0.00  0.00    +0.000 C 
ATOM     30  C   UNL     1       7.508   6.893  17.969  0.00  0.00    +0.000 C 
ENDBRANCH  24  28
ENDBRANCH   1  26
TORSDOF 3
ENDMDL
MODEL 3
REMARK VINA RESULT:      -8.4      3.107      4.051
REMARK  Name = 
REMARK  5 active torsions:
REMARK  status: ('A' for Active; 'I' for Inactive)
REMARK    1  A    between atoms: C_1  and  C_2
REMARK    2  A    between atoms: C_7  and  C_8
REMARK    3  A    between atoms: C_12  and  C_13
REMARK    4  A    between atoms: N_15  and  C_16
REMARK    5  A    between atoms: C_25  and  C_26
REMARK                            x       y       z     vdW  Elec       q    Type
REMARK                         _______ _______ _______ _____ _____    ______ ____
ROOT
ATOM      1  C   UNL     1       3.821   5.723  16.997  0.00  0.00    +0.000 C 
ATOM      2  O   UNL     1       3.130   4.769  17.328  0.00  0.00    +0.000 OA
ATOM      3  N   UNL     1       3.524   7.059  17.225  0.00  0.00    +0.000 N 
ATOM      4  H   UNL     1       4.213   7.753  16.953  0.00  0.00    +0.000 HD
ENDROOT
BRANCH   3   5
ATOM      5  C   UNL     1       2.526   7.519  18.124  0.00  0.00    +0.000 A 
ATOM      6  C   UNL     1       2.387   7.065  19.447  0.00  0.00    +0.000 A 
ATOM      7  C   UNL     1       1.832   7.900  20.437  0.00  0.00    +0.000 A 
ATOM      8  C   UNL     1       1.312   9.130  20.057  0.00  0.00    +0.000 A 
ATOM      9  C   UNL     1       1.080   9.326  18.689  0.00  0.00    +0.000 A 
ATOM     10  C   UNL     1       1.748   8.594  17.720  0.00  0.00    +0.000 A 
ATOM     11  N   UNL     1       0.344  10.453  18.276  0.00  0.00    +0.000 N 
ATOM     12  C   UNL     1       0.936  11.529  18.906  0.00  0.00    +0.000 C 
ATOM     13  O   UNL     1       1.731  12.275  18.349  0.00  0.00    +0.000 OA
ATOM     14  C   UNL     1       0.679  11.408  20.417  0.00  0.00    +0.000 C 
ATOM     15  C   UNL     1       1.090  12.742  21.042  0.00  0.00    +0.000 C 
ATOM     16  O   UNL     1       1.208  10.175  20.979  0.00  0.00    +0.000 OA
ATOM     17  H   UNL     1      -0.586  10.351  18.689  0.00  0.00    +0.000 HD
ENDBRANCH   3   5
BRANCH   1  26
ATOM     18  C   UNL     1       6.011   5.508  19.669  0.00  0.00    +0.000 C 
ATOM     19  C   UNL     1       6.665   5.015  18.431  0.00  0.00    +0.000 A 
ATOM     20  N   UNL     1       7.895   4.490  18.524  0.00  0.00    +0.000 NA
ATOM     21  O   UNL     1       8.278   4.197  17.230  0.00  0.00    +0.000 OA
ATOM     22  C   UNL     1       7.282   4.554  16.372  0.00  0.00    +0.000 A 
ATOM     23  N   UNL     1       7.382   4.392  15.046  0.00  0.00    +0.000 NA
ATOM     24  C   UNL     1       6.306   4.781  14.331  0.00  0.00    +0.000 A 
ATOM     25  C   UNL     1       5.156   5.297  14.917  0.00  0.00    +0.000 A 
ATOM     26  C   UNL     1       5.086   5.403  16.317  0.00  0.00    +0.000 A 
ATOM     27  C   UNL     1       6.218   5.038  17.068  0.00  0.00    +0.000 A 
BRANCH  24  28
ATOM     28  C   UNL     1       6.397   4.549  12.835  0.00  0.00    +0.000 C 
ATOM     29  C   UNL     1       5.640   3.367  12.263  0.00  0.00    +0.000 C 
ATOM     30  C   UNL     1       7.138   3.383  12.230  0.00  0.00    +0.000 C 
ENDBRANCH  24  28
ENDBRANCH   1  26
TORSDOF 3
ENDMDL
MODEL 4
REMARK VINA RESULT:      -8.4      1.708      1.877
REMARK  Name = 
REMARK  5 active torsions:
REMARK  status: ('A' for Active; 'I' for Inactive)
REMARK    1  A    between atoms: C_1  and  C_2
REMARK    2  A    between atoms: C_7  and  C_8
REMARK    3  A    between atoms: C_12  and  C_13
REMARK    4  A    between atoms: N_15  and  C_16
REMARK    5  A    between atoms: C_25  and  C_26
REMARK                            x       y       z     vdW  Elec       q    Type
REMARK                         _______ _______ _______ _____ _____    ______ ____
ROOT
ATOM      1  C   UNL     1       2.279   6.314  18.166  0.00  0.00    +0.000 C 
ATOM      2  O   UNL     1       1.337   6.431  17.393  0.00  0.00    +0.000 OA
ATOM      3  N   UNL     1       2.595   7.184  19.200  0.00  0.00    +0.000 N 
ATOM      4  H   UNL     1       3.370   6.939  19.807  0.00  0.00    +0.000 HD
ENDROOT
BRANCH   3   5
ATOM      5  C   UNL     1       1.721   8.180  19.708  0.00  0.00    +0.000 A 
ATOM      6  C   UNL     1       1.270   8.230  21.038  0.00  0.00    +0.000 A 
ATOM      7  C   UNL     1       0.927   9.460  21.634  0.00  0.00    +0.000 A 
ATOM      8  C   UNL     1       0.923  10.603  20.847  0.00  0.00    +0.000 A 
ATOM      9  C   UNL     1       0.944  10.418  19.458  0.00  0.00    +0.000 A 
ATOM     10  C   UNL     1       1.425   9.254  18.881  0.00  0.00    +0.000 A 
ATOM     11  N   UNL     1       0.708  11.524  18.618  0.00  0.00    +0.000 N 
ATOM     12  C   UNL     1       1.558  12.514  19.067  0.00  0.00    +0.000 C 
ATOM     13  O   UNL     1       2.626  12.772  18.529  0.00  0.00    +0.000 OA
ATOM     14  C   UNL     1       1.092  12.958  20.463  0.00  0.00    +0.000 C 
ATOM     15  C   UNL     1       1.866  14.233  20.802  0.00  0.00    +0.000 C 
ATOM     16  O   UNL     1       1.081  11.866  21.425  0.00  0.00    +0.000 OA
ATOM     17  H   UNL     1      -0.242  11.841  18.828  0.00  0.00    +0.000 HD
ENDBRANCH   3   5
BRANCH   1  26
ATOM     18  C   UNL     1       0.932   4.121  20.479  0.00  0.00    +0.000 C 
ATOM     19  C   UNL     1       1.896   3.410  19.602  0.00  0.00    +0.000 A 
ATOM     20  N   UNL     1       2.029   2.083  19.743  0.00  0.00    +0.000 NA
ATOM     21  O   UNL     1       3.033   1.711  18.870  0.00  0.00    +0.000 OA
ATOM     22  C   UNL     1       3.498   2.814  18.220  0.00  0.00    +0.000 A 
ATOM     23  N   UNL     1       4.484   2.754  17.315  0.00  0.00    +0.000 NA
ATOM     24  C   UNL     1       4.824   3.930  16.748  0.00  0.00    +0.000 A 
ATOM     25  C   UNL     1       4.189   5.127  17.055  0.00  0.00    +0.000 A 
ATOM     26  C   UNL     1       3.129   5.128  17.977  0.00  0.00    +0.000 A 
ATOM     27  C   UNL     1       2.794   3.914  18.604  0.00  0.00    +0.000 A 
BRANCH  24  28
ATOM     28  C   UNL     1       5.904   3.855  15.685  0.00  0.00    +0.000 C 
ATOM     29  C   UNL     1       7.167   4.659  15.915  0.00  0.00    +0.000 C 
ATOM     30  C   UNL     1       6.249   5.016  14.786  0.00  0.00    +0.000 C 
ENDBRANCH  24  28
ENDBRANCH   1  26
TORSDOF 3
ENDMDL
MODEL 5
REMARK VINA RESULT:      -8.2      1.288      1.492
REMARK  Name = 
REMARK  5 active torsions:
REMARK  status: ('A' for Active; 'I' for Inactive)
REMARK    1  A    between atoms: C_1  and  C_2
REMARK    2  A    between atoms: C_7  and  C_8
REMARK    3  A    between atoms: C_12  and  C_13
REMARK    4  A    between atoms: N_15  and  C_16
REMARK    5  A    between atoms: C_25  and  C_26
REMARK                            x       y       z     vdW  Elec       q    Type
REMARK                         _______ _______ _______ _____ _____    ______ ____
ROOT
ATOM      1  C   UNL     1       2.379   7.222  18.718  0.00  0.00    +0.000 C 
ATOM      2  O   UNL     1       1.665   7.588  17.792  0.00  0.00    +0.000 OA
ATOM      3  N   UNL     1       2.326   7.696  20.021  0.00  0.00    +0.000 N 
ATOM      4  H   UNL     1       2.934   7.265  20.709  0.00  0.00    +0.000 HD
ENDROOT
BRANCH   3   5
ATOM      5  C   UNL     1       1.256   8.461  20.555  0.00  0.00    +0.000 A 
ATOM      6  C   UNL     1       0.732   8.288  21.848  0.00  0.00    +0.000 A 
ATOM      7  C   UNL     1       0.136   9.367  22.530  0.00  0.00    +0.000 A 
ATOM      8  C   UNL     1      -0.036  10.569  21.857  0.00  0.00    +0.000 A 
ATOM      9  C   UNL     1       0.094  10.539  20.462  0.00  0.00    +0.000 A 
ATOM     10  C   UNL     1       0.813   9.547  19.814  0.00  0.00    +0.000 A 
ATOM     11  N   UNL     1      -0.296  11.667  19.715  0.00  0.00    +0.000 N 
ATOM     12  C   UNL     1       0.331  12.739  20.316  0.00  0.00    +0.000 C 
ATOM     13  O   UNL     1       1.360  13.240  19.883  0.00  0.00    +0.000 OA
ATOM     14  C   UNL     1      -0.285  12.943  21.710  0.00  0.00    +0.000 C 
ATOM     15  C   UNL     1       0.220  14.292  22.222  0.00  0.00    +0.000 C 
ATOM     16  O   UNL     1      -0.146  11.771  22.561  0.00  0.00    +0.000 OA
ATOM     17  H   UNL     1      -1.298  11.785  19.884  0.00  0.00    +0.000 HD
ENDBRANCH   3   5
BRANCH   1  26
ATOM     18  C   UNL     1       1.182   4.574  20.596  0.00  0.00    +0.000 C 
ATOM     19  C   UNL     1       2.253   4.108  19.680  0.00  0.00    +0.000 A 
ATOM     20  N   UNL     1       2.524   2.795  19.629  0.00  0.00    +0.000 NA
ATOM     21  O   UNL     1       3.598   2.666  18.771  0.00  0.00    +0.000 OA
ATOM     22  C   UNL     1       3.967   3.897  18.321  0.00  0.00    +0.000 A 
ATOM     23  N   UNL     1       4.992   4.077  17.476  0.00  0.00    +0.000 NA
ATOM     24  C   UNL     1       5.225   5.355  17.111  0.00  0.00    +0.000 A 
ATOM     25  C   UNL     1       4.452   6.421  17.555  0.00  0.00    +0.000 A 
ATOM     26  C   UNL     1       3.360   6.172  18.404  0.00  0.00    +0.000 A 
ATOM     27  C   UNL     1       3.133   4.848  18.823  0.00  0.00    +0.000 A 
BRANCH  24  28
ATOM     28  C   UNL     1       6.351   5.555  16.114  0.00  0.00    +0.000 C 
ATOM     29  C   UNL     1       6.109   5.106  14.687  0.00  0.00    +0.000 C 
ATOM     30  C   UNL     1       7.136   4.409  15.526  0.00  0.00    +0.000 C 
ENDBRANCH  24  28
ENDBRANCH   1  26
TORSDOF 3
ENDMDL
MODEL 6
REMARK VINA RESULT:      -8.1      1.976      2.330
REMARK  Name = 
REMARK  5 active torsions:
REMARK  status: ('A' for Active; 'I' for Inactive)
REMARK    1  A    between atoms: C_1  and  C_2
REMARK    2  A    between atoms: C_7  and  C_8
REMARK    3  A    between atoms: C_12  and  C_13
REMARK    4  A    between atoms: N_15  and  C_16
REMARK    5  A    between atoms: C_25  and  C_26
REMARK                            x       y       z     vdW  Elec       q    Type
REMARK                         _______ _______ _______ _____ _____    ______ ____
ROOT
ATOM      1  C   UNL     1       2.310   6.766  19.270  0.00  0.00    +0.000 C 
ATOM      2  O   UNL     1       2.169   6.576  20.471  0.00  0.00    +0.000 OA
ATOM      3  N   UNL     1       1.783   7.828  18.548  0.00  0.00    +0.000 N 
ATOM      4  H   UNL     1       2.026   7.903  17.566  0.00  0.00    +0.000 HD
ENDROOT
BRANCH   3   5
ATOM      5  C   UNL     1       1.246   9.007  19.129  0.00  0.00    +0.000 A 
ATOM      6  C   UNL     1       0.852   9.115  20.474  0.00  0.00    +0.000 A 
ATOM      7  C   UNL     1       0.894  10.358  21.135  0.00  0.00    +0.000 A 
ATOM      8  C   UNL     1       1.210  11.494  20.402  0.00  0.00    +0.000 A 
ATOM      9  C   UNL     1       1.152  11.384  19.006  0.00  0.00    +0.000 A 
ATOM     10  C   UNL     1       1.262  10.163  18.362  0.00  0.00    +0.000 A 
ATOM     11  N   UNL     1       1.233  12.553  18.225  0.00  0.00    +0.000 N 
ATOM     12  C   UNL     1       2.343  13.229  18.691  0.00  0.00    +0.000 C 
ATOM     13  O   UNL     1       3.430  13.194  18.131  0.00  0.00    +0.000 OA
ATOM     14  C   UNL     1       2.051  13.715  20.120  0.00  0.00    +0.000 C 
ATOM     15  C   UNL     1       3.169  14.690  20.491  0.00  0.00    +0.000 C 
ATOM     16  O   UNL     1       1.739  12.624  21.031  0.00  0.00    +0.000 OA
ATOM     17  H   UNL     1       0.421  13.120  18.479  0.00  0.00    +0.000 HD
ENDBRANCH   3   5
BRANCH   1  26
ATOM     18  C   UNL     1       0.782   3.796  20.173  0.00  0.00    +0.000 C 
ATOM     19  C   UNL     1       1.766   3.555  19.088  0.00  0.00    +0.000 A 
ATOM     20  N   UNL     1       1.852   2.323  18.565  0.00  0.00    +0.000 NA
ATOM     21  O   UNL     1       2.886   2.373  17.652  0.00  0.00    +0.000 OA
ATOM     22  C   UNL     1       3.417   3.628  17.639  0.00  0.00    +0.000 A 
ATOM     23  N   UNL     1       4.446   3.966  16.850  0.00  0.00    +0.000 NA
ATOM     24  C   UNL     1       4.849   5.250  16.941  0.00  0.00    +0.000 A 
ATOM     25  C   UNL     1       4.237   6.176  17.776  0.00  0.00    +0.000 A 
ATOM     26  C   UNL     1       3.132   5.782  18.550  0.00  0.00    +0.000 A 
ATOM     27  C   UNL     1       2.729   4.435  18.492  0.00  0.00    +0.000 A 
BRANCH  24  28
ATOM     28  C   UNL     1       5.979   5.648  16.010  0.00  0.00    +0.000 C 
ATOM     29  C   UNL     1       5.897   5.178  14.572  0.00  0.00    +0.000 C 
ATOM     30  C   UNL     1       6.980   4.658  15.468  0.00  0.00    +0.000 C 
ENDBRANCH  24  28
ENDBRANCH   1  26
TORSDOF 3
ENDMDL
MODEL 7
REMARK VINA RESULT:      -8.1      3.161      9.055
REMARK  Name = 
REMARK  5 active torsions:
REMARK  status: ('A' for Active; 'I' for Inactive)
REMARK    1  A    between atoms: C_1  and  C_2
REMARK    2  A    between atoms: C_7  and  C_8
REMARK    3  A    between atoms: C_12  and  C_13
REMARK    4  A    between atoms: N_15  and  C_16
REMARK    5  A    between atoms: C_25  and  C_26
REMARK                            x       y       z     vdW  Elec       q    Type
REMARK                         _______ _______ _______ _____ _____    ______ ____
ROOT
ATOM      1  C   UNL     1       0.973   9.310  19.054  0.00  0.00    +0.000 C 
ATOM      2  O   UNL     1       1.125   9.196  20.263  0.00  0.00    +0.000 OA
ATOM      3  N   UNL     1       1.724   8.672  18.077  0.00  0.00    +0.000 N 
ATOM      4  H   UNL     1       1.456   8.805  17.108  0.00  0.00    +0.000 HD
ENDROOT
BRANCH   3   5
ATOM      5  C   UNL     1       2.590   7.572  18.318  0.00  0.00    +0.000 A 
ATOM      6  C   UNL     1       2.175   6.350  18.876  0.00  0.00    +0.000 A 
ATOM      7  C   UNL     1       2.854   5.155  18.568  0.00  0.00    +0.000 A 
ATOM      8  C   UNL     1       4.013   5.223  17.807  0.00  0.00    +0.000 A 
ATOM      9  C   UNL     1       4.606   6.485  17.665  0.00  0.00    +0.000 A 
ATOM     10  C   UNL     1       3.884   7.656  17.826  0.00  0.00    +0.000 A 
ATOM     11  N   UNL     1       5.895   6.574  17.105  0.00  0.00    +0.000 N 
ATOM     12  C   UNL     1       5.838   5.845  15.935  0.00  0.00    +0.000 C 
ATOM     13  O   UNL     1       5.701   6.359  14.834  0.00  0.00    +0.000 OA
ATOM     14  C   UNL     1       5.655   4.361  16.297  0.00  0.00    +0.000 C 
ATOM     15  C   UNL     1       5.884   3.563  15.012  0.00  0.00    +0.000 C 
ATOM     16  O   UNL     1       4.447   4.118  17.070  0.00  0.00    +0.000 OA
ATOM     17  H   UNL     1       6.514   6.061  17.737  0.00  0.00    +0.000 HD
ENDBRANCH   3   5
BRANCH   1  26
ATOM     18  C   UNL     1       1.935  12.339  20.422  0.00  0.00    +0.000 C 
ATOM     19  C   UNL     1       0.796  12.538  19.491  0.00  0.00    +0.000 A 
ATOM     20  N   UNL     1       0.388  13.790  19.240  0.00  0.00    +0.000 NA
ATOM     21  O   UNL     1      -0.717  13.667  18.421  0.00  0.00    +0.000 OA
ATOM     22  C   UNL     1      -0.967  12.348  18.193  0.00  0.00    +0.000 A 
ATOM     23  N   UNL     1      -1.990  11.929  17.435  0.00  0.00    +0.000 NA
ATOM     24  C   UNL     1      -2.097  10.591  17.293  0.00  0.00    +0.000 A 
ATOM     25  C   UNL     1      -1.204   9.697  17.870  0.00  0.00    +0.000 A 
ATOM     26  C   UNL     1      -0.121  10.191  18.618  0.00  0.00    +0.000 A 
ATOM     27  C   UNL     1      -0.024  11.581  18.805  0.00  0.00    +0.000 A 
BRANCH  24  28
ATOM     28  C   UNL     1      -3.222  10.119  16.393  0.00  0.00    +0.000 C 
ATOM     29  C   UNL     1      -2.953  10.071  14.902  0.00  0.00    +0.000 C 
ATOM     30  C   UNL     1      -3.958  11.038  15.450  0.00  0.00    +0.000 C 
ENDBRANCH  24  28
ENDBRANCH   1  26
TORSDOF 3
ENDMDL
MODEL 8
REMARK VINA RESULT:      -7.9      2.091      2.495
REMARK  Name = 
REMARK  5 active torsions:
REMARK  status: ('A' for Active; 'I' for Inactive)
REMARK    1  A    between atoms: C_1  and  C_2
REMARK    2  A    between atoms: C_7  and  C_8
REMARK    3  A    between atoms: C_12  and  C_13
REMARK    4  A    between atoms: N_15  and  C_16
REMARK    5  A    between atoms: C_25  and  C_26
REMARK                            x       y       z     vdW  Elec       q    Type
REMARK                         _______ _______ _______ _____ _____    ______ ____
ROOT
ATOM      1  C   UNL     1       2.259   7.301  18.812  0.00  0.00    +0.000 C 
ATOM      2  O   UNL     1       2.219   7.455  20.026  0.00  0.00    +0.000 OA
ATOM      3  N   UNL     1       1.557   8.045  17.875  0.00  0.00    +0.000 N 
ATOM      4  H   UNL     1       1.726   7.855  16.893  0.00  0.00    +0.000 HD
ENDROOT
BRANCH   3   5
ATOM      5  C   UNL     1       0.912   9.280  18.148  0.00  0.00    +0.000 A 
ATOM      6  C   UNL     1      -0.263   9.715  17.510  0.00  0.00    +0.000 A 
ATOM      7  C   UNL     1      -1.157  10.582  18.168  0.00  0.00    +0.000 A 
ATOM      8  C   UNL     1      -0.797  11.098  19.405  0.00  0.00    +0.000 A 
ATOM      9  C   UNL     1       0.551  10.985  19.772  0.00  0.00    +0.000 A 
ATOM     10  C   UNL     1       1.383  10.025  19.220  0.00  0.00    +0.000 A 
ATOM     11  N   UNL     1       1.013  11.691  20.900  0.00  0.00    +0.000 N 
ATOM     12  C   UNL     1       0.127  11.385  21.913  0.00  0.00    +0.000 C 
ATOM     13  O   UNL     1       0.359  10.546  22.773  0.00  0.00    +0.000 OA
ATOM     14  C   UNL     1      -1.235  12.013  21.572  0.00  0.00    +0.000 C 
ATOM     15  C   UNL     1      -2.098  11.903  22.830  0.00  0.00    +0.000 C 
ATOM     16  O   UNL     1      -1.772  11.534  20.307  0.00  0.00    +0.000 OA
ATOM     17  H   UNL     1       0.880  12.682  20.688  0.00  0.00    +0.000 HD
ENDBRANCH   3   5
BRANCH   1  26
ATOM     18  C   UNL     1       1.020   4.532  20.476  0.00  0.00    +0.000 C 
ATOM     19  C   UNL     1       2.002   4.111  19.445  0.00  0.00    +0.000 A 
ATOM     20  N   UNL     1       2.187   2.800  19.237  0.00  0.00    +0.000 NA
ATOM     21  O   UNL     1       3.196   2.707  18.298  0.00  0.00    +0.000 OA
ATOM     22  C   UNL     1       3.612   3.958  17.957  0.00  0.00    +0.000 A 
ATOM     23  N   UNL     1       4.591   4.174  17.068  0.00  0.00    +0.000 NA
ATOM     24  C   UNL     1       4.880   5.470  16.826  0.00  0.00    +0.000 A 
ATOM     25  C   UNL     1       4.203   6.520  17.432  0.00  0.00    +0.000 A 
ATOM     26  C   UNL     1       3.152   6.240  18.323  0.00  0.00    +0.000 A 
ATOM     27  C   UNL     1       2.870   4.892  18.613  0.00  0.00    +0.000 A 
BRANCH  24  28
ATOM     28  C   UNL     1       5.952   5.716  15.781  0.00  0.00    +0.000 C 
ATOM     29  C   UNL     1       5.827   4.977  14.464  0.00  0.00    +0.000 C 
ATOM     30  C   UNL     1       6.966   4.671  15.387  0.00  0.00    +0.000 C 
ENDBRANCH  24  28
ENDBRANCH   1  26
TORSDOF 3
ENDMDL
MODEL 9
REMARK VINA RESULT:      -7.9      1.499      1.860
REMARK  Name = 
REMARK  5 active torsions:
REMARK  status: ('A' for Active; 'I' for Inactive)
REMARK    1  A    between atoms: C_1  and  C_2
REMARK    2  A    between atoms: C_7  and  C_8
REMARK    3  A    between atoms: C_12  and  C_13
REMARK    4  A    between atoms: N_15  and  C_16
REMARK    5  A    between atoms: C_25  and  C_26
REMARK                            x       y       z     vdW  Elec       q    Type
REMARK                         _______ _______ _______ _____ _____    ______ ____
ROOT
ATOM      1  C   UNL     1       2.459   6.867  19.383  0.00  0.00    +0.000 C 
ATOM      2  O   UNL     1       1.877   6.969  20.455  0.00  0.00    +0.000 OA
ATOM      3  N   UNL     1       2.221   7.636  18.253  0.00  0.00    +0.000 N 
ATOM      4  H   UNL     1       2.816   7.491  17.444  0.00  0.00    +0.000 HD
ENDROOT
BRANCH   3   5
ATOM      5  C   UNL     1       1.478   8.846  18.246  0.00  0.00    +0.000 A 
ATOM      6  C   UNL     1       0.340   9.068  17.451  0.00  0.00    +0.000 A 
ATOM      7  C   UNL     1      -0.662   9.966  17.870  0.00  0.00    +0.000 A 
ATOM      8  C   UNL     1      -0.447  10.720  19.015  0.00  0.00    +0.000 A 
ATOM      9  C   UNL     1       0.868  10.778  19.498  0.00  0.00    +0.000 A 
ATOM     10  C   UNL     1       1.804   9.803  19.196  0.00  0.00    +0.000 A 
ATOM     11  N   UNL     1       1.183  11.706  20.510  0.00  0.00    +0.000 N 
ATOM     12  C   UNL     1       0.231  11.517  21.491  0.00  0.00    +0.000 C 
ATOM     13  O   UNL     1       0.437  10.864  22.505  0.00  0.00    +0.000 OA
ATOM     14  C   UNL     1      -1.132  11.966  20.938  0.00  0.00    +0.000 C 
ATOM     15  C   UNL     1      -2.095  12.014  22.125  0.00  0.00    +0.000 C 
ATOM     16  O   UNL     1      -1.523  11.231  19.745  0.00  0.00    +0.000 OA
ATOM     17  H   UNL     1       1.007  12.631  20.110  0.00  0.00    +0.000 HD
ENDBRANCH   3   5
BRANCH   1  26
ATOM     18  C   UNL     1       0.728   4.021  20.321  0.00  0.00    +0.000 C 
ATOM     19  C   UNL     1       2.072   3.655  19.807  0.00  0.00    +0.000 A 
ATOM     20  N   UNL     1       2.376   2.356  19.684  0.00  0.00    +0.000 NA
ATOM     21  O   UNL     1       3.693   2.315  19.269  0.00  0.00    +0.000 OA
ATOM     22  C   UNL     1       4.169   3.587  19.154  0.00  0.00    +0.000 A 
ATOM     23  N   UNL     1       5.426   3.853  18.774  0.00  0.00    +0.000 NA
ATOM     24  C   UNL     1       5.743   5.162  18.694  0.00  0.00    +0.000 A 
ATOM     25  C   UNL     1       4.833   6.177  18.963  0.00  0.00    +0.000 A 
ATOM     26  C   UNL     1       3.513   5.844  19.312  0.00  0.00    +0.000 A 
ATOM     27  C   UNL     1       3.184   4.482  19.438  0.00  0.00    +0.000 A 
BRANCH  24  28
ATOM     28  C   UNL     1       7.150   5.465  18.214  0.00  0.00    +0.000 C 
ATOM     29  C   UNL     1       8.172   5.870  19.256  0.00  0.00    +0.000 C 
ATOM     30  C   UNL     1       7.734   6.856  18.216  0.00  0.00    +0.000 C 
ENDBRANCH  24  28
ENDBRANCH   1  26
TORSDOF 3
ENDMDL
