MODEL 1
REMARK VINA RESULT:      -8.9      0.000      0.000
REMARK  Name = 
REMARK  5 active torsions:
REMARK  status: ('A' for Active; 'I' for Inactive)
REMARK    1  A    between atoms: C_1  and  C_2
REMARK    2  A    between atoms: C_2  and  C_3
REMARK    3  A    between atoms: N_15  and  C_16
REMARK    4  A    between atoms: C_16  and  C_17
REMARK    5  A    between atoms: C_20  and  C_21
REMARK                            x       y       z     vdW  Elec       q    Type
REMARK                         _______ _______ _______ _____ _____    ______ ____
ROOT
ATOM      1  C   UNL     1       3.648   1.416  17.930  0.00  0.00    +0.000 C 
ATOM      2  C   UNL     1       3.472   2.690  18.745  0.00  0.00    +0.000 C 
ATOM      3  N   UNL     1       3.608   2.420  20.162  0.00  0.00    +0.000 N 
ATOM      4  C   UNL     1       2.676   3.120  20.899  0.00  0.00    +0.000 C 
ATOM      5  O   UNL     1       2.749   3.270  22.106  0.00  0.00    +0.000 OA
ATOM      6  N   UNL     1       1.741   3.612  20.049  0.00  0.00    +0.000 N 
ATOM      7  C   UNL     1       2.017   3.227  18.765  0.00  0.00    +0.000 C 
ATOM      8  O   UNL     1       1.304   3.407  17.786  0.00  0.00    +0.000 OA
ATOM      9  H   UNL     1       4.456   2.098  20.607  0.00  0.00    +0.000 HD
ENDROOT
BRANCH   2  10
ATOM     10  C   UNL     1       4.383   3.831  18.263  0.00  0.00    +0.000 A 
ATOM     11  C   UNL     1       3.896   4.745  17.293  0.00  0.00    +0.000 A 
ATOM     12  C   UNL     1       4.641   5.857  16.888  0.00  0.00    +0.000 A 
ATOM     13  C   UNL     1       5.876   6.062  17.468  0.00  0.00    +0.000 A 
ATOM     14  C   UNL     1       6.378   5.171  18.419  0.00  0.00    +0.000 A 
ATOM     15  C   UNL     1       5.656   4.058  18.818  0.00  0.00    +0.000 A 
ATOM     16  C   UNL     1       7.745   5.585  18.867  0.00  0.00    +0.000 C 
ATOM     17  C   UNL     1       7.770   7.054  18.424  0.00  0.00    +0.000 C 
ATOM     18  C   UNL     1       6.856   7.159  17.194  0.00  0.00    +0.000 C 
ENDBRANCH   2  10
BRANCH   6  19
ATOM     19  C   UNL     1       0.706   4.547  20.413  0.00  0.00    +0.000 C 
BRANCH  19  20
ATOM     20  C   UNL     1       1.199   5.944  20.439  0.00  0.00    +0.000 A 
ATOM     21  N   UNL     1       2.277   6.438  19.866  0.00  0.00    +0.000 NA
ATOM     22  C   UNL     1       2.207   7.777  20.142  0.00  0.00    +0.000 A 
ATOM     23  C   UNL     1       1.070   8.060  20.869  0.00  0.00    +0.000 A 
ATOM     24  O   UNL     1       0.409   6.875  21.061  0.00  0.00    +0.000 OA
BRANCH  23  25
ATOM     25  C   UNL     1       0.475   9.265  21.426  0.00  0.00    +0.000 A 
ATOM     26  C   UNL     1      -0.233   9.203  22.637  0.00  0.00    +0.000 A 
ATOM     27  C   UNL     1      -0.823  10.343  23.185  0.00  0.00    +0.000 A 
ATOM     28  C   UNL     1      -0.714  11.566  22.531  0.00  0.00    +0.000 A 
ATOM     29  C   UNL     1      -0.011  11.649  21.330  0.00  0.00    +0.000 A 
ATOM     30  C   UNL     1       0.581  10.507  20.781  0.00  0.00    +0.000 A 
ENDBRANCH  23  25
ENDBRANCH  19  20
ENDBRANCH   6  19
TORSDOF 4
ENDMDL
MODEL 2
REMARK VINA RESULT:      -8.9      3.495      6.882
REMARK  Name = 
REMARK  5 active torsions:
REMARK  status: ('A' for Active; 'I' for Inactive)
REMARK    1  A    between atoms: C_1  and  C_2
REMARK    2  A    between atoms: C_2  and  C_3
REMARK    3  A    between atoms: N_15  and  C_16
REMARK    4  A    between atoms: C_16  and  C_17
REMARK    5  A    between atoms: C_20  and  C_21
REMARK                            x       y       z     vdW  Elec       q    Type
REMARK                         _______ _______ _______ _____ _____    ______ ____
ROOT
ATOM      1  C   UNL     1       3.371   3.462  19.226  0.00  0.00    +0.000 C 
ATOM      2  C   UNL     1       4.146   4.588  18.555  0.00  0.00    +0.000 C 
ATOM      3  N   UNL     1       4.436   4.263  17.173  0.00  0.00    +0.000 N 
ATOM      4  C   UNL     1       5.713   4.648  16.824  0.00  0.00    +0.000 C 
ATOM      5  O   UNL     1       6.100   4.727  15.672  0.00  0.00    +0.000 OA
ATOM      6  N   UNL     1       6.396   4.943  17.959  0.00  0.00    +0.000 N 
ATOM      7  C   UNL     1       5.606   4.733  19.056  0.00  0.00    +0.000 C 
ATOM      8  O   UNL     1       5.962   4.792  20.226  0.00  0.00    +0.000 OA
ATOM      9  H   UNL     1       3.738   4.139  16.454  0.00  0.00    +0.000 HD
ENDROOT
BRANCH   2  10
ATOM     10  C   UNL     1       3.461   5.955  18.717  0.00  0.00    +0.000 A 
ATOM     11  C   UNL     1       3.481   6.874  17.636  0.00  0.00    +0.000 A 
ATOM     12  C   UNL     1       2.794   8.090  17.689  0.00  0.00    +0.000 A 
ATOM     13  C   UNL     1       2.072   8.383  18.827  0.00  0.00    +0.000 A 
ATOM     14  C   UNL     1       2.044   7.498  19.906  0.00  0.00    +0.000 A 
ATOM     15  C   UNL     1       2.732   6.296  19.872  0.00  0.00    +0.000 A 
ATOM     16  C   UNL     1       1.229   8.055  21.032  0.00  0.00    +0.000 C 
ATOM     17  C   UNL     1       0.414   9.131  20.303  0.00  0.00    +0.000 C 
ATOM     18  C   UNL     1       1.274   9.614  19.125  0.00  0.00    +0.000 C 
ENDBRANCH   2  10
BRANCH   6  19
ATOM     19  C   UNL     1       7.701   5.554  18.001  0.00  0.00    +0.000 C 
BRANCH  19  20
ATOM     20  C   UNL     1       7.635   7.024  17.832  0.00  0.00    +0.000 A 
ATOM     21  N   UNL     1       6.714   7.732  17.210  0.00  0.00    +0.000 NA
ATOM     22  C   UNL     1       7.100   9.027  17.426  0.00  0.00    +0.000 A 
ATOM     23  C   UNL     1       8.246   9.068  18.191  0.00  0.00    +0.000 A 
ATOM     24  O   UNL     1       8.596   7.771  18.461  0.00  0.00    +0.000 OA
BRANCH  23  25
ATOM     25  C   UNL     1       9.091  10.124  18.729  0.00  0.00    +0.000 A 
ATOM     26  C   UNL     1       9.080  10.398  20.106  0.00  0.00    +0.000 A 
ATOM     27  C   UNL     1       9.872  11.413  20.644  0.00  0.00    +0.000 A 
ATOM     28  C   UNL     1      10.690  12.172  19.812  0.00  0.00    +0.000 A 
ATOM     29  C   UNL     1      10.718  11.912  18.443  0.00  0.00    +0.000 A 
ATOM     30  C   UNL     1       9.925  10.894  17.905  0.00  0.00    +0.000 A 
ENDBRANCH  23  25
ENDBRANCH  19  20
ENDBRANCH   6  19
TORSDOF 4
ENDMDL
MODEL 3
REMARK VINA RESULT:      -8.4      0.824      1.644
REMARK  Name = 
REMARK  5 active torsions:
REMARK  status: ('A' for Active; 'I' for Inactive)
REMARK    1  A    between atoms: C_1  and  C_2
REMARK    2  A    between atoms: C_2  and  C_3
REMARK    3  A    between atoms: N_15  and  C_16
REMARK    4  A    between atoms: C_16  and  C_17
REMARK    5  A    between atoms: C_20  and  C_21
REMARK                            x       y       z     vdW  Elec       q    Type
REMARK                         _______ _______ _______ _____ _____    ______ ____
ROOT
ATOM      1  C   UNL     1       3.697   1.005  18.506  0.00  0.00    +0.000 C 
ATOM      2  C   UNL     1       3.480   2.380  19.125  0.00  0.00    +0.000 C 
ATOM      3  N   UNL     1       3.559   2.313  20.570  0.00  0.00    +0.000 N 
ATOM      4  C   UNL     1       2.594   3.099  21.164  0.00  0.00    +0.000 C 
ATOM      5  O   UNL     1       2.616   3.418  22.339  0.00  0.00    +0.000 OA
ATOM      6  N   UNL     1       1.691   3.455  20.215  0.00  0.00    +0.000 N 
ATOM      7  C   UNL     1       2.022   2.897  19.011  0.00  0.00    +0.000 C 
ATOM      8  O   UNL     1       1.349   2.930  17.989  0.00  0.00    +0.000 OA
ATOM      9  H   UNL     1       4.390   2.066  21.089  0.00  0.00    +0.000 HD
ENDROOT
BRANCH   2  10
ATOM     10  C   UNL     1       4.403   3.452  18.524  0.00  0.00    +0.000 A 
ATOM     11  C   UNL     1       5.210   4.236  19.388  0.00  0.00    +0.000 A 
ATOM     12  C   UNL     1       6.139   5.157  18.895  0.00  0.00    +0.000 A 
ATOM     13  C   UNL     1       6.270   5.285  17.528  0.00  0.00    +0.000 A 
ATOM     14  C   UNL     1       5.480   4.530  16.659  0.00  0.00    +0.000 A 
ATOM     15  C   UNL     1       4.547   3.624  17.134  0.00  0.00    +0.000 A 
ATOM     16  C   UNL     1       5.778   4.875  15.233  0.00  0.00    +0.000 C 
ATOM     17  C   UNL     1       7.144   5.559  15.372  0.00  0.00    +0.000 C 
ATOM     18  C   UNL     1       7.174   6.203  16.767  0.00  0.00    +0.000 C 
ENDBRANCH   2  10
BRANCH   6  19
ATOM     19  C   UNL     1       0.637   4.420  20.403  0.00  0.00    +0.000 C 
BRANCH  19  20
ATOM     20  C   UNL     1       1.147   5.811  20.414  0.00  0.00    +0.000 A 
ATOM     21  N   UNL     1       2.225   6.288  19.824  0.00  0.00    +0.000 NA
ATOM     22  C   UNL     1       2.175   7.629  20.093  0.00  0.00    +0.000 A 
ATOM     23  C   UNL     1       1.051   7.931  20.832  0.00  0.00    +0.000 A 
ATOM     24  O   UNL     1       0.378   6.756  21.040  0.00  0.00    +0.000 OA
BRANCH  23  25
ATOM     25  C   UNL     1       0.478   9.147  21.390  0.00  0.00    +0.000 A 
ATOM     26  C   UNL     1       0.692  10.380  20.751  0.00  0.00    +0.000 A 
ATOM     27  C   UNL     1       0.163  11.561  21.274  0.00  0.00    +0.000 A 
ATOM     28  C   UNL     1      -0.589  11.530  22.445  0.00  0.00    +0.000 A 
ATOM     29  C   UNL     1      -0.814  10.315  23.090  0.00  0.00    +0.000 A 
ATOM     30  C   UNL     1      -0.286   9.131  22.566  0.00  0.00    +0.000 A 
ENDBRANCH  23  25
ENDBRANCH  19  20
ENDBRANCH   6  19
TORSDOF 4
ENDMDL
MODEL 4
REMARK VINA RESULT:      -8.3      3.744      6.914
REMARK  Name = 
REMARK  5 active torsions:
REMARK  status: ('A' for Active; 'I' for Inactive)
REMARK    1  A    between atoms: C_1  and  C_2
REMARK    2  A    between atoms: C_2  and  C_3
REMARK    3  A    between atoms: N_15  and  C_16
REMARK    4  A    between atoms: C_16  and  C_17
REMARK    5  A    between atoms: C_20  and  C_21
REMARK                            x       y       z     vdW  Elec       q    Type
REMARK                         _______ _______ _______ _____ _____    ______ ____
ROOT
ATOM      1  C   UNL     1       3.723   3.057  18.128  0.00  0.00    +0.000 C 
ATOM      2  C   UNL     1       4.400   4.414  17.991  0.00  0.00    +0.000 C 
ATOM      3  N   UNL     1       4.921   4.597  16.651  0.00  0.00    +0.000 N 
ATOM      4  C   UNL     1       6.160   5.203  16.673  0.00  0.00    +0.000 C 
ATOM      5  O   UNL     1       6.684   5.698  15.692  0.00  0.00    +0.000 OA
ATOM      6  N   UNL     1       6.629   5.171  17.946  0.00  0.00    +0.000 N 
ATOM      7  C   UNL     1       5.739   4.530  18.764  0.00  0.00    +0.000 C 
ATOM      8  O   UNL     1       5.918   4.234  19.938  0.00  0.00    +0.000 OA
ATOM      9  H   UNL     1       4.356   4.649  15.816  0.00  0.00    +0.000 HD
ENDROOT
BRANCH   2  10
ATOM     10  C   UNL     1       3.497   5.573  18.445  0.00  0.00    +0.000 A 
ATOM     11  C   UNL     1       2.902   5.526  19.732  0.00  0.00    +0.000 A 
ATOM     12  C   UNL     1       2.152   6.592  20.237  0.00  0.00    +0.000 A 
ATOM     13  C   UNL     1       2.008   7.719  19.453  0.00  0.00    +0.000 A 
ATOM     14  C   UNL     1       2.578   7.784  18.181  0.00  0.00    +0.000 A 
ATOM     15  C   UNL     1       3.311   6.729  17.663  0.00  0.00    +0.000 A 
ATOM     16  C   UNL     1       2.250   9.085  17.516  0.00  0.00    +0.000 C 
ATOM     17  C   UNL     1       1.833   9.937  18.722  0.00  0.00    +0.000 C 
ATOM     18  C   UNL     1       1.249   8.971  19.764  0.00  0.00    +0.000 C 
ENDBRANCH   2  10
BRANCH   6  19
ATOM     19  C   UNL     1       7.806   5.862  18.408  0.00  0.00    +0.000 C 
BRANCH  19  20
ATOM     20  C   UNL     1       7.781   7.303  18.064  0.00  0.00    +0.000 A 
ATOM     21  N   UNL     1       6.946   7.934  17.263  0.00  0.00    +0.000 NA
ATOM     22  C   UNL     1       7.324   9.245  17.370  0.00  0.00    +0.000 A 
ATOM     23  C   UNL     1       8.375   9.374  18.252  0.00  0.00    +0.000 A 
ATOM     24  O   UNL     1       8.674   8.117  18.708  0.00  0.00    +0.000 OA
BRANCH  23  25
ATOM     25  C   UNL     1       9.168  10.485  18.757  0.00  0.00    +0.000 A 
ATOM     26  C   UNL     1       9.523  10.533  20.115  0.00  0.00    +0.000 A 
ATOM     27  C   UNL     1      10.272  11.594  20.626  0.00  0.00    +0.000 A 
ATOM     28  C   UNL     1      10.681  12.626  19.785  0.00  0.00    +0.000 A 
ATOM     29  C   UNL     1      10.342  12.593  18.434  0.00  0.00    +0.000 A 
ATOM     30  C   UNL     1       9.592  11.530  17.922  0.00  0.00    +0.000 A 
ENDBRANCH  23  25
ENDBRANCH  19  20
ENDBRANCH   6  19
TORSDOF 4
ENDMDL
MODEL 5
REMARK VINA RESULT:      -8.3      7.450     10.502
REMARK  Name = 
REMARK  5 active torsions:
REMARK  status: ('A' for Active; 'I' for Inactive)
REMARK    1  A    between atoms: C_1  and  C_2
REMARK    2  A    between atoms: C_2  and  C_3
REMARK    3  A    between atoms: N_15  and  C_16
REMARK    4  A    between atoms: C_16  and  C_17
REMARK    5  A    between atoms: C_20  and  C_21
REMARK                            x       y       z     vdW  Elec       q    Type
REMARK                         _______ _______ _______ _____ _____    ______ ____
ROOT
ATOM      1  C   UNL     1      -2.786  14.313  24.095  0.00  0.00    +0.000 C 
ATOM      2  C   UNL     1      -3.346  13.657  22.840  0.00  0.00    +0.000 C 
ATOM      3  N   UNL     1      -3.731  14.657  21.864  0.00  0.00    +0.000 N 
ATOM      4  C   UNL     1      -4.919  14.325  21.247  0.00  0.00    +0.000 C 
ATOM      5  O   UNL     1      -5.314  14.852  20.223  0.00  0.00    +0.000 OA
ATOM      6  N   UNL     1      -5.501  13.322  21.951  0.00  0.00    +0.000 N 
ATOM      7  C   UNL     1      -4.736  13.001  23.040  0.00  0.00    +0.000 C 
ATOM      8  O   UNL     1      -5.042  12.223  23.935  0.00  0.00    +0.000 OA
ATOM      9  H   UNL     1      -3.090  15.289  21.405  0.00  0.00    +0.000 HD
ENDROOT
BRANCH   2  10
ATOM     10  C   UNL     1      -2.405  12.588  22.261  0.00  0.00    +0.000 A 
ATOM     11  C   UNL     1      -2.035  12.655  20.893  0.00  0.00    +0.000 A 
ATOM     12  C   UNL     1      -1.109  11.770  20.335  0.00  0.00    +0.000 A 
ATOM     13  C   UNL     1      -0.539  10.818  21.155  0.00  0.00    +0.000 A 
ATOM     14  C   UNL     1      -0.894  10.727  22.502  0.00  0.00    +0.000 A 
ATOM     15  C   UNL     1      -1.821  11.590  23.064  0.00  0.00    +0.000 A 
ATOM     16  C   UNL     1      -0.174   9.596  23.168  0.00  0.00    +0.000 C 
ATOM     17  C   UNL     1       0.975   9.354  22.180  0.00  0.00    +0.000 C 
ATOM     18  C   UNL     1       0.456   9.760  20.793  0.00  0.00    +0.000 C 
ENDBRANCH   2  10
BRANCH   6  19
ATOM     19  C   UNL     1      -6.660  12.580  21.525  0.00  0.00    +0.000 C 
BRANCH  19  20
ATOM     20  C   UNL     1      -6.585  12.196  20.096  0.00  0.00    +0.000 A 
ATOM     21  N   UNL     1      -7.511  12.327  19.167  0.00  0.00    +0.000 NA
ATOM     22  C   UNL     1      -6.890  11.892  18.027  0.00  0.00    +0.000 A 
ATOM     23  C   UNL     1      -5.591  11.520  18.297  0.00  0.00    +0.000 A 
ATOM     24  O   UNL     1      -5.385  11.719  19.637  0.00  0.00    +0.000 OA
BRANCH  23  25
ATOM     25  C   UNL     1      -4.481  11.002  17.512  0.00  0.00    +0.000 A 
ATOM     26  C   UNL     1      -4.397  11.292  16.140  0.00  0.00    +0.000 A 
ATOM     27  C   UNL     1      -3.349  10.796  15.363  0.00  0.00    +0.000 A 
ATOM     28  C   UNL     1      -2.365  10.003  15.946  0.00  0.00    +0.000 A 
ATOM     29  C   UNL     1      -2.429   9.708  17.307  0.00  0.00    +0.000 A 
ATOM     30  C   UNL     1      -3.478  10.206  18.085  0.00  0.00    +0.000 A 
ENDBRANCH  23  25
ENDBRANCH  19  20
ENDBRANCH   6  19
TORSDOF 4
ENDMDL
MODEL 6
REMARK VINA RESULT:      -8.2      6.888     10.061
REMARK  Name = 
REMARK  5 active torsions:
REMARK  status: ('A' for Active; 'I' for Inactive)
REMARK    1  A    between atoms: C_1  and  C_2
REMARK    2  A    between atoms: C_2  and  C_3
REMARK    3  A    between atoms: N_15  and  C_16
REMARK    4  A    between atoms: C_16  and  C_17
REMARK    5  A    between atoms: C_20  and  C_21
REMARK                            x       y       z     vdW  Elec       q    Type
REMARK                         _______ _______ _______ _____ _____    ______ ____
ROOT
ATOM      1  C   UNL     1      -1.425  14.223  22.880  0.00  0.00    +0.000 C 
ATOM      2  C   UNL     1      -2.413  13.717  21.837  0.00  0.00    +0.000 C 
ATOM      3  N   UNL     1      -3.078  14.823  21.179  0.00  0.00    +0.000 N 
ATOM      4  C   UNL     1      -4.419  14.561  20.987  0.00  0.00    +0.000 C 
ATOM      5  O   UNL     1      -5.128  15.204  20.234  0.00  0.00    +0.000 OA
ATOM      6  N   UNL     1      -4.754  13.479  21.734  0.00  0.00    +0.000 N 
ATOM      7  C   UNL     1      -3.669  13.035  22.440  0.00  0.00    +0.000 C 
ATOM      8  O   UNL     1      -3.670  12.156  23.292  0.00  0.00    +0.000 OA
ATOM      9  H   UNL     1      -2.616  15.509  20.598  0.00  0.00    +0.000 HD
ENDROOT
BRANCH   2  10
ATOM     10  C   UNL     1      -1.775  12.728  20.848  0.00  0.00    +0.000 A 
ATOM     11  C   UNL     1      -1.703  13.072  19.473  0.00  0.00    +0.000 A 
ATOM     12  C   UNL     1      -1.049  12.258  18.544  0.00  0.00    +0.000 A 
ATOM     13  C   UNL     1      -0.453  11.098  18.996  0.00  0.00    +0.000 A 
ATOM     14  C   UNL     1      -0.519  10.736  20.342  0.00  0.00    +0.000 A 
ATOM     15  C   UNL     1      -1.175  11.527  21.271  0.00  0.00    +0.000 A 
ATOM     16  C   UNL     1       0.165   9.426  20.576  0.00  0.00    +0.000 C 
ATOM     17  C   UNL     1       1.030   9.313  19.314  0.00  0.00    +0.000 C 
ATOM     18  C   UNL     1       0.286  10.067  18.201  0.00  0.00    +0.000 C 
ENDBRANCH   2  10
BRANCH   6  19
ATOM     19  C   UNL     1      -6.016  12.787  21.663  0.00  0.00    +0.000 C 
BRANCH  19  20
ATOM     20  C   UNL     1      -6.127  11.948  20.447  0.00  0.00    +0.000 A 
ATOM     21  N   UNL     1      -7.199  11.354  19.963  0.00  0.00    +0.000 NA
ATOM     22  C   UNL     1      -6.757  10.788  18.798  0.00  0.00    +0.000 A 
ATOM     23  C   UNL     1      -5.423  11.070  18.600  0.00  0.00    +0.000 A 
ATOM     24  O   UNL     1      -5.009  11.826  19.665  0.00  0.00    +0.000 OA
BRANCH  23  25
ATOM     25  C   UNL     1      -4.442  10.756  17.572  0.00  0.00    +0.000 A 
ATOM     26  C   UNL     1      -4.391  11.519  16.394  0.00  0.00    +0.000 A 
ATOM     27  C   UNL     1      -3.468  11.229  15.388  0.00  0.00    +0.000 A 
ATOM     28  C   UNL     1      -2.579  10.169  15.544  0.00  0.00    +0.000 A 
ATOM     29  C   UNL     1      -2.613   9.402  16.707  0.00  0.00    +0.000 A 
ATOM     30  C   UNL     1      -3.537   9.694  17.715  0.00  0.00    +0.000 A 
ENDBRANCH  23  25
ENDBRANCH  19  20
ENDBRANCH   6  19
TORSDOF 4
ENDMDL
MODEL 7
REMARK VINA RESULT:      -7.9      3.299      8.627
REMARK  Name = 
REMARK  5 active torsions:
REMARK  status: ('A' for Active; 'I' for Inactive)
REMARK    1  A    between atoms: C_1  and  C_2
REMARK    2  A    between atoms: C_2  and  C_3
REMARK    3  A    between atoms: N_15  and  C_16
REMARK    4  A    between atoms: C_16  and  C_17
REMARK    5  A    between atoms: C_20  and  C_21
REMARK                            x       y       z     vdW  Elec       q    Type
REMARK                         _______ _______ _______ _____ _____    ______ ____
ROOT
ATOM      1  C   UNL     1       1.903  11.799  18.999  0.00  0.00    +0.000 C 
ATOM      2  C   UNL     1       1.079  10.533  19.193  0.00  0.00    +0.000 C 
ATOM      3  N   UNL     1       1.189  10.049  20.555  0.00  0.00    +0.000 N 
ATOM      4  C   UNL     1       1.299   8.675  20.593  0.00  0.00    +0.000 C 
ATOM      5  O   UNL     1       1.140   8.016  21.604  0.00  0.00    +0.000 OA
ATOM      6  N   UNL     1       1.563   8.232  19.338  0.00  0.00    +0.000 N 
ATOM      7  C   UNL     1       1.660   9.288  18.473  0.00  0.00    +0.000 C 
ATOM      8  O   UNL     1       2.005   9.233  17.299  0.00  0.00    +0.000 OA
ATOM      9  H   UNL     1       0.857  10.546  21.369  0.00  0.00    +0.000 HD
ENDROOT
BRANCH   2  10
ATOM     10  C   UNL     1      -0.378  10.699  18.733  0.00  0.00    +0.000 A 
ATOM     11  C   UNL     1      -1.232  11.587  19.439  0.00  0.00    +0.000 A 
ATOM     12  C   UNL     1      -2.536  11.853  19.010  0.00  0.00    +0.000 A 
ATOM     13  C   UNL     1      -2.984  11.235  17.861  0.00  0.00    +0.000 A 
ATOM     14  C   UNL     1      -2.165  10.352  17.155  0.00  0.00    +0.000 A 
ATOM     15  C   UNL     1      -0.876  10.069  17.577  0.00  0.00    +0.000 A 
ATOM     16  C   UNL     1      -2.887   9.784  15.974  0.00  0.00    +0.000 C 
ATOM     17  C   UNL     1      -4.034  10.791  15.814  0.00  0.00    +0.000 C 
ATOM     18  C   UNL     1      -4.330  11.347  17.216  0.00  0.00    +0.000 C 
ENDBRANCH   2  10
BRANCH   6  19
ATOM     19  C   UNL     1       1.567   6.849  18.936  0.00  0.00    +0.000 C 
BRANCH  19  20
ATOM     20  C   UNL     1       2.940   6.305  18.816  0.00  0.00    +0.000 A 
ATOM     21  N   UNL     1       3.746   5.909  19.780  0.00  0.00    +0.000 NA
ATOM     22  C   UNL     1       4.841   5.431  19.112  0.00  0.00    +0.000 A 
ATOM     23  C   UNL     1       4.659   5.538  17.750  0.00  0.00    +0.000 A 
ATOM     24  O   UNL     1       3.426   6.102  17.551  0.00  0.00    +0.000 OA
BRANCH  23  25
ATOM     25  C   UNL     1       5.447   5.201  16.573  0.00  0.00    +0.000 A 
ATOM     26  C   UNL     1       4.854   4.502  15.509  0.00  0.00    +0.000 A 
ATOM     27  C   UNL     1       5.593   4.156  14.376  0.00  0.00    +0.000 A 
ATOM     28  C   UNL     1       6.937   4.505  14.288  0.00  0.00    +0.000 A 
ATOM     29  C   UNL     1       7.541   5.202  15.333  0.00  0.00    +0.000 A 
ATOM     30  C   UNL     1       6.802   5.549  16.467  0.00  0.00    +0.000 A 
ENDBRANCH  23  25
ENDBRANCH  19  20
ENDBRANCH   6  19
TORSDOF 4
ENDMDL
MODEL 8
REMARK VINA RESULT:      -7.9      6.838     10.013
REMARK  Name = 
REMARK  5 active torsions:
REMARK  status: ('A' for Active; 'I' for Inactive)
REMARK    1  A    between atoms: C_1  and  C_2
REMARK    2  A    between atoms: C_2  and  C_3
REMARK    3  A    between atoms: N_15  and  C_16
REMARK    4  A    between atoms: C_16  and  C_17
REMARK    5  A    between atoms: C_20  and  C_21
REMARK                            x       y       z     vdW  Elec       q    Type
REMARK                         _______ _______ _______ _____ _____    ______ ____
ROOT
ATOM      1  C   UNL     1      -1.364  13.888  23.679  0.00  0.00    +0.000 C 
ATOM      2  C   UNL     1      -2.311  13.580  22.527  0.00  0.00    +0.000 C 
ATOM      3  N   UNL     1      -2.799  14.801  21.919  0.00  0.00    +0.000 N 
ATOM      4  C   UNL     1      -4.139  14.707  21.608  0.00  0.00    +0.000 C 
ATOM      5  O   UNL     1      -4.712  15.482  20.863  0.00  0.00    +0.000 OA
ATOM      6  N   UNL     1      -4.647  13.615  22.232  0.00  0.00    +0.000 N 
ATOM      7  C   UNL     1      -3.678  12.999  22.975  0.00  0.00    +0.000 C 
ATOM      8  O   UNL     1      -3.842  12.061  23.745  0.00  0.00    +0.000 OA
ATOM      9  H   UNL     1      -2.220  15.473  21.435  0.00  0.00    +0.000 HD
ENDROOT
BRANCH   2  10
ATOM     10  C   UNL     1      -1.703  12.605  21.506  0.00  0.00    +0.000 A 
ATOM     11  C   UNL     1      -1.524  13.028  20.164  0.00  0.00    +0.000 A 
ATOM     12  C   UNL     1      -0.888  12.222  19.215  0.00  0.00    +0.000 A 
ATOM     13  C   UNL     1      -0.417  10.989  19.616  0.00  0.00    +0.000 A 
ATOM     14  C   UNL     1      -0.589  10.548  20.929  0.00  0.00    +0.000 A 
ATOM     15  C   UNL     1      -1.229  11.331  21.875  0.00  0.00    +0.000 A 
ATOM     16  C   UNL     1      -0.031   9.171  21.107  0.00  0.00    +0.000 C 
ATOM     17  C   UNL     1       0.892   9.065  19.885  0.00  0.00    +0.000 C 
ATOM     18  C   UNL     1       0.278   9.951  18.791  0.00  0.00    +0.000 C 
ENDBRANCH   2  10
BRANCH   6  19
ATOM     19  C   UNL     1      -5.966  13.077  22.009  0.00  0.00    +0.000 C 
BRANCH  19  20
ATOM     20  C   UNL     1      -5.972  12.024  20.968  0.00  0.00    +0.000 A 
ATOM     21  N   UNL     1      -6.840  11.046  20.804  0.00  0.00    +0.000 NA
ATOM     22  C   UNL     1      -6.418  10.427  19.658  0.00  0.00    +0.000 A 
ATOM     23  C   UNL     1      -5.306  11.062  19.148  0.00  0.00    +0.000 A 
ATOM     24  O   UNL     1      -5.014  12.102  19.991  0.00  0.00    +0.000 OA
BRANCH  23  25
ATOM     25  C   UNL     1      -4.449  10.869  17.988  0.00  0.00    +0.000 A 
ATOM     26  C   UNL     1      -3.446   9.887  18.012  0.00  0.00    +0.000 A 
ATOM     27  C   UNL     1      -2.604   9.692  16.916  0.00  0.00    +0.000 A 
ATOM     28  C   UNL     1      -2.751  10.478  15.777  0.00  0.00    +0.000 A 
ATOM     29  C   UNL     1      -3.743  11.455  15.733  0.00  0.00    +0.000 A 
ATOM     30  C   UNL     1      -4.588  11.649  16.830  0.00  0.00    +0.000 A 
ENDBRANCH  23  25
ENDBRANCH  19  20
ENDBRANCH   6  19
TORSDOF 4
ENDMDL
MODEL 9
REMARK VINA RESULT:      -7.8      2.692      3.478
REMARK  Name = 
REMARK  5 active torsions:
REMARK  status: ('A' for Active; 'I' for Inactive)
REMARK    1  A    between atoms: C_1  and  C_2
REMARK    2  A    between atoms: C_2  and  C_3
REMARK    3  A    between atoms: N_15  and  C_16
REMARK    4  A    between atoms: C_16  and  C_17
REMARK    5  A    between atoms: C_20  and  C_21
REMARK                            x       y       z     vdW  Elec       q    Type
REMARK                         _______ _______ _______ _____ _____    ______ ____
ROOT
ATOM      1  C   UNL     1       4.192   2.137  17.439  0.00  0.00    +0.000 C 
ATOM      2  C   UNL     1       4.681   3.579  17.405  0.00  0.00    +0.000 C 
ATOM      3  N   UNL     1       5.481   3.880  18.575  0.00  0.00    +0.000 N 
ATOM      4  C   UNL     1       5.198   5.137  19.067  0.00  0.00    +0.000 C 
ATOM      5  O   UNL     1       5.908   5.720  19.867  0.00  0.00    +0.000 OA
ATOM      6  N   UNL     1       4.057   5.579  18.481  0.00  0.00    +0.000 N 
ATOM      7  C   UNL     1       3.561   4.628  17.631  0.00  0.00    +0.000 C 
ATOM      8  O   UNL     1       2.488   4.671  17.044  0.00  0.00    +0.000 OA
ATOM      9  H   UNL     1       6.368   3.447  18.791  0.00  0.00    +0.000 HD
ENDROOT
BRANCH   2  10
ATOM     10  C   UNL     1       5.391   3.932  16.088  0.00  0.00    +0.000 A 
ATOM     11  C   UNL     1       6.598   4.677  16.128  0.00  0.00    +0.000 A 
ATOM     12  C   UNL     1       7.338   4.944  14.972  0.00  0.00    +0.000 A 
ATOM     13  C   UNL     1       6.873   4.451  13.770  0.00  0.00    +0.000 A 
ATOM     14  C   UNL     1       5.684   3.723  13.706  0.00  0.00    +0.000 A 
ATOM     15  C   UNL     1       4.934   3.463  14.841  0.00  0.00    +0.000 A 
ATOM     16  C   UNL     1       5.373   3.334  12.294  0.00  0.00    +0.000 C 
ATOM     17  C   UNL     1       6.744   3.510  11.629  0.00  0.00    +0.000 C 
ATOM     18  C   UNL     1       7.474   4.615  12.409  0.00  0.00    +0.000 C 
ENDBRANCH   2  10
BRANCH   6  19
ATOM     19  C   UNL     1       3.536   6.917  18.597  0.00  0.00    +0.000 C 
BRANCH  19  20
ATOM     20  C   UNL     1       2.476   7.017  19.628  0.00  0.00    +0.000 A 
ATOM     21  N   UNL     1       1.979   6.055  20.380  0.00  0.00    +0.000 NA
ATOM     22  C   UNL     1       1.099   6.709  21.201  0.00  0.00    +0.000 A 
ATOM     23  C   UNL     1       1.100   8.060  20.930  0.00  0.00    +0.000 A 
ATOM     24  O   UNL     1       1.994   8.267  19.913  0.00  0.00    +0.000 OA
BRANCH  23  25
ATOM     25  C   UNL     1       0.401   9.220  21.463  0.00  0.00    +0.000 A 
ATOM     26  C   UNL     1       0.380  10.421  20.737  0.00  0.00    +0.000 A 
ATOM     27  C   UNL     1      -0.274  11.551  21.234  0.00  0.00    +0.000 A 
ATOM     28  C   UNL     1      -0.917  11.497  22.466  0.00  0.00    +0.000 A 
ATOM     29  C   UNL     1      -0.910  10.312  23.200  0.00  0.00    +0.000 A 
ATOM     30  C   UNL     1      -0.257   9.180  22.702  0.00  0.00    +0.000 A 
ENDBRANCH  23  25
ENDBRANCH  19  20
ENDBRANCH   6  19
TORSDOF 4
ENDMDL
