MODEL 1
REMARK VINA RESULT:      -8.3      0.000      0.000
REMARK  Name = 
REMARK  6 active torsions:
REMARK  status: ('A' for Active; 'I' for Inactive)
REMARK    1  A    between atoms: C_6  and  C_7
REMARK    2  A    between atoms: C_7  and  C_8
REMARK    3  A    between atoms: C_8  and  C_9
REMARK    4  A    between atoms: C_9  and  C_10
REMARK    5  A    between atoms: C_15  and  O_16
REMARK    6  A    between atoms: O_16  and  C_17
REMARK                            x       y       z     vdW  Elec       q    Type
REMARK                         _______ _______ _______ _____ _____    ______ ____
ROOT
ATOM      1  C   UNL     1       4.235   4.831  18.898  0.00  0.00    +0.000 C 
ATOM      2  O   UNL     1       4.344   4.824  20.124  0.00  0.00    +0.000 OA
ATOM      3  N   UNL     1       5.312   5.049  18.067  0.00  0.00    +0.000 N 
ATOM      4  C   UNL     1       6.640   5.309  18.586  0.00  0.00    +0.000 C 
ATOM      5  C   UNL     1       7.203   6.321  17.604  0.00  0.00    +0.000 C 
ATOM      6  C   UNL     1       6.642   5.860  16.255  0.00  0.00    +0.000 C 
ATOM      7  C   UNL     1       5.278   5.255  16.625  0.00  0.00    +0.000 C 
ENDROOT
BRANCH   1   8
ATOM      8  C   UNL     1       2.900   4.557  18.216  0.00  0.00    +0.000 C 
BRANCH   8   9
ATOM      9  C   UNL     1       1.940   5.745  18.258  0.00  0.00    +0.000 C 
BRANCH   9  10
ATOM     10  C   UNL     1       2.678   7.088  18.238  0.00  0.00    +0.000 C 
BRANCH  10  16
ATOM     11  O   UNL     1      -0.825  11.043  23.323  0.00  0.00    +0.000 OA
ATOM     12  C   UNL     1      -0.268  10.511  22.377  0.00  0.00    +0.000 C 
ATOM     13  C   UNL     1       0.482   9.174  22.389  0.00  0.00    +0.000 C 
ATOM     14  C   UNL     1       0.929   9.049  20.964  0.00  0.00    +0.000 A 
ATOM     15  C   UNL     1       1.641   8.040  20.342  0.00  0.00    +0.000 A 
ATOM     16  C   UNL     1       1.915   8.167  18.969  0.00  0.00    +0.000 A 
ATOM     17  C   UNL     1       1.481   9.316  18.266  0.00  0.00    +0.000 A 
ATOM     18  C   UNL     1       0.762  10.329  18.906  0.00  0.00    +0.000 A 
ATOM     19  C   UNL     1       0.501  10.164  20.247  0.00  0.00    +0.000 A 
ATOM     20  N   UNL     1      -0.200  11.018  21.084  0.00  0.00    +0.000 N 
ATOM     21  H   UNL     1      -0.622  11.893  20.815  0.00  0.00    +0.000 HD
ENDBRANCH  10  16
ENDBRANCH   9  10
ENDBRANCH   8   9
ENDBRANCH   1   8
BRANCH   6  22
ATOM     22  O   UNL     1       7.478   4.858  15.662  0.00  0.00    +0.000 OA
BRANCH  22  23
ATOM     23  C   UNL     1       7.294   4.668  14.315  0.00  0.00    +0.000 A 
ATOM     24  C   UNL     1       8.003   5.524  13.475  0.00  0.00    +0.000 A 
ATOM     25  C   UNL     1       7.890   5.408  12.087  0.00  0.00    +0.000 A 
ATOM     26  C   UNL     1       7.054   4.437  11.536  0.00  0.00    +0.000 A 
ATOM     27  C   UNL     1       6.330   3.594  12.374  0.00  0.00    +0.000 A 
ATOM     28 CL   UNL     1       5.290   2.398  11.708  0.00  0.00    +0.000 Cl
ATOM     29  C   UNL     1       6.442   3.710  13.759  0.00  0.00    +0.000 A 
ENDBRANCH  22  23
ENDBRANCH   6  22
TORSDOF 6
ENDMDL
MODEL 2
REMARK VINA RESULT:      -8.2      5.721      8.043
REMARK  Name = 
REMARK  6 active torsions:
REMARK  status: ('A' for Active; 'I' for Inactive)
REMARK    1  A    between atoms: C_6  and  C_7
REMARK    2  A    between atoms: C_7  and  C_8
REMARK    3  A    between atoms: C_8  and  C_9
REMARK    4  A    between atoms: C_9  and  C_10
REMARK    5  A    between atoms: C_15  and  O_16
REMARK    6  A    between atoms: O_16  and  C_17
REMARK                            x       y       z     vdW  Elec       q    Type
REMARK                         _______ _______ _______ _____ _____    ______ ____
ROOT
ATOM      1  C   UNL     1       7.646   6.744  18.269  0.00  0.00    +0.000 C 
ATOM      2  O   UNL     1       8.372   6.269  19.142  0.00  0.00    +0.000 OA
ATOM      3  N   UNL     1       6.341   6.336  18.099  0.00  0.00    +0.000 N 
ATOM      4  C   UNL     1       5.748   5.301  18.921  0.00  0.00    +0.000 C 
ATOM      5  C   UNL     1       4.849   4.559  17.949  0.00  0.00    +0.000 C 
ATOM      6  C   UNL     1       4.299   5.671  17.051  0.00  0.00    +0.000 C 
ATOM      7  C   UNL     1       5.449   6.690  17.002  0.00  0.00    +0.000 C 
ENDROOT
BRANCH   1   8
ATOM      8  C   UNL     1       8.134   7.851  17.343  0.00  0.00    +0.000 C 
BRANCH   8   9
ATOM      9  C   UNL     1       7.980   9.251  17.935  0.00  0.00    +0.000 C 
BRANCH   9  10
ATOM     10  C   UNL     1       9.041   9.549  19.000  0.00  0.00    +0.000 C 
BRANCH  10  16
ATOM     11  O   UNL     1      10.795  16.330  21.171  0.00  0.00    +0.000 OA
ATOM     12  C   UNL     1      10.523  15.257  20.658  0.00  0.00    +0.000 C 
ATOM     13  C   UNL     1      10.262  13.934  21.387  0.00  0.00    +0.000 C 
ATOM     14  C   UNL     1       9.977  12.999  20.250  0.00  0.00    +0.000 A 
ATOM     15  C   UNL     1       9.652  11.654  20.266  0.00  0.00    +0.000 A 
ATOM     16  C   UNL     1       9.413  11.013  19.039  0.00  0.00    +0.000 A 
ATOM     17  C   UNL     1       9.529  11.737  17.829  0.00  0.00    +0.000 A 
ATOM     18  C   UNL     1       9.860  13.095  17.826  0.00  0.00    +0.000 A 
ATOM     19  C   UNL     1      10.073  13.694  19.047  0.00  0.00    +0.000 A 
ATOM     20  N   UNL     1      10.395  15.019  19.295  0.00  0.00    +0.000 N 
ATOM     21  H   UNL     1      10.516  15.737  18.598  0.00  0.00    +0.000 HD
ENDBRANCH  10  16
ENDBRANCH   9  10
ENDBRANCH   8   9
ENDBRANCH   1   8
BRANCH   6  22
ATOM     22  O   UNL     1       3.134   6.275  17.628  0.00  0.00    +0.000 OA
BRANCH  22  23
ATOM     23  C   UNL     1       2.427   5.472  18.489  0.00  0.00    +0.000 A 
ATOM     24  C   UNL     1       2.296   5.943  19.794  0.00  0.00    +0.000 A 
ATOM     25  C   UNL     1       1.588   5.203  20.745  0.00  0.00    +0.000 A 
ATOM     26  C   UNL     1       1.019   3.980  20.392  0.00  0.00    +0.000 A 
ATOM     27  C   UNL     1       1.166   3.499  19.095  0.00  0.00    +0.000 A 
ATOM     28 CL   UNL     1       0.475   1.990  18.649  0.00  0.00    +0.000 Cl
ATOM     29  C   UNL     1       1.872   4.236  18.145  0.00  0.00    +0.000 A 
ENDBRANCH  22  23
ENDBRANCH   6  22
TORSDOF 6
ENDMDL
MODEL 3
REMARK VINA RESULT:      -8.2      2.729      3.516
REMARK  Name = 
REMARK  6 active torsions:
REMARK  status: ('A' for Active; 'I' for Inactive)
REMARK    1  A    between atoms: C_6  and  C_7
REMARK    2  A    between atoms: C_7  and  C_8
REMARK    3  A    between atoms: C_8  and  C_9
REMARK    4  A    between atoms: C_9  and  C_10
REMARK    5  A    between atoms: C_15  and  O_16
REMARK    6  A    between atoms: O_16  and  C_17
REMARK                            x       y       z     vdW  Elec       q    Type
REMARK                         _______ _______ _______ _____ _____    ______ ____
ROOT
ATOM      1  C   UNL     1       2.901   6.358  18.773  0.00  0.00    +0.000 C 
ATOM      2  O   UNL     1       2.475   6.060  19.888  0.00  0.00    +0.000 OA
ATOM      3  N   UNL     1       3.833   5.585  18.115  0.00  0.00    +0.000 N 
ATOM      4  C   UNL     1       4.391   4.386  18.706  0.00  0.00    +0.000 C 
ATOM      5  C   UNL     1       5.832   4.404  18.233  0.00  0.00    +0.000 C 
ATOM      6  C   UNL     1       5.734   4.959  16.809  0.00  0.00    +0.000 C 
ATOM      7  C   UNL     1       4.538   5.922  16.884  0.00  0.00    +0.000 C 
ENDROOT
BRANCH   1   8
ATOM      8  C   UNL     1       2.391   7.584  18.026  0.00  0.00    +0.000 C 
BRANCH   8   9
ATOM      9  C   UNL     1       1.754   8.631  18.939  0.00  0.00    +0.000 C 
BRANCH   9  10
ATOM     10  C   UNL     1       1.663  10.006  18.267  0.00  0.00    +0.000 C 
BRANCH  10  16
ATOM     11  O   UNL     1      -5.544  11.134  17.518  0.00  0.00    +0.000 OA
ATOM     12  C   UNL     1      -4.344  11.082  17.733  0.00  0.00    +0.000 C 
ATOM     13  C   UNL     1      -3.389   9.954  17.326  0.00  0.00    +0.000 C 
ATOM     14  C   UNL     1      -2.073  10.452  17.845  0.00  0.00    +0.000 A 
ATOM     15  C   UNL     1      -0.815   9.881  17.770  0.00  0.00    +0.000 A 
ATOM     16  C   UNL     1       0.267  10.579  18.333  0.00  0.00    +0.000 A 
ATOM     17  C   UNL     1       0.050  11.823  18.971  0.00  0.00    +0.000 A 
ATOM     18  C   UNL     1      -1.226  12.389  19.040  0.00  0.00    +0.000 A 
ATOM     19  C   UNL     1      -2.260  11.684  18.467  0.00  0.00    +0.000 A 
ATOM     20  N   UNL     1      -3.596  12.046  18.398  0.00  0.00    +0.000 N 
ATOM     21  H   UNL     1      -3.997  12.895  18.766  0.00  0.00    +0.000 HD
ENDBRANCH  10  16
ENDBRANCH   9  10
ENDBRANCH   8   9
ENDBRANCH   1   8
BRANCH   6  22
ATOM     22  O   UNL     1       5.463   3.915  15.863  0.00  0.00    +0.000 OA
BRANCH  22  23
ATOM     23  C   UNL     1       6.030   4.088  14.626  0.00  0.00    +0.000 A 
ATOM     24  C   UNL     1       5.452   3.368  13.582  0.00  0.00    +0.000 A 
ATOM     25  C   UNL     1       5.952   3.481  12.282  0.00  0.00    +0.000 A 
ATOM     26  C   UNL     1       7.045   4.309  12.026  0.00  0.00    +0.000 A 
ATOM     27  C   UNL     1       7.636   5.013  13.071  0.00  0.00    +0.000 A 
ATOM     28 CL   UNL     1       8.987   6.032  12.770  0.00  0.00    +0.000 Cl
ATOM     29  C   UNL     1       7.138   4.901  14.368  0.00  0.00    +0.000 A 
ENDBRANCH  22  23
ENDBRANCH   6  22
TORSDOF 6
ENDMDL
MODEL 4
REMARK VINA RESULT:      -8.2      2.254      3.263
REMARK  Name = 
REMARK  6 active torsions:
REMARK  status: ('A' for Active; 'I' for Inactive)
REMARK    1  A    between atoms: C_6  and  C_7
REMARK    2  A    between atoms: C_7  and  C_8
REMARK    3  A    between atoms: C_8  and  C_9
REMARK    4  A    between atoms: C_9  and  C_10
REMARK    5  A    between atoms: C_15  and  O_16
REMARK    6  A    between atoms: O_16  and  C_17
REMARK                            x       y       z     vdW  Elec       q    Type
REMARK                         _______ _______ _______ _____ _____    ______ ____
ROOT
ATOM      1  C   UNL     1       4.520   2.919  19.252  0.00  0.00    +0.000 C 
ATOM      2  O   UNL     1       4.591   3.083  20.470  0.00  0.00    +0.000 OA
ATOM      3  N   UNL     1       5.160   3.753  18.362  0.00  0.00    +0.000 N 
ATOM      4  C   UNL     1       5.937   4.894  18.802  0.00  0.00    +0.000 C 
ATOM      5  C   UNL     1       5.659   5.936  17.735  0.00  0.00    +0.000 C 
ATOM      6  C   UNL     1       5.585   5.114  16.444  0.00  0.00    +0.000 C 
ATOM      7  C   UNL     1       5.010   3.768  16.912  0.00  0.00    +0.000 C 
ENDROOT
BRANCH   1   8
ATOM      8  C   UNL     1       3.750   1.751  18.649  0.00  0.00    +0.000 C 
BRANCH   8   9
ATOM      9  C   UNL     1       2.340   1.592  19.219  0.00  0.00    +0.000 C 
BRANCH   9  10
ATOM     10  C   UNL     1       1.324   2.495  18.510  0.00  0.00    +0.000 C 
BRANCH  10  16
ATOM     11  O   UNL     1       2.551   9.720  18.269  0.00  0.00    +0.000 OA
ATOM     12  C   UNL     1       2.318   8.540  18.469  0.00  0.00    +0.000 C 
ATOM     13  C   UNL     1       2.232   7.432  17.411  0.00  0.00    +0.000 C 
ATOM     14  C   UNL     1       1.936   6.222  18.246  0.00  0.00    +0.000 A 
ATOM     15  C   UNL     1       1.762   4.903  17.866  0.00  0.00    +0.000 A 
ATOM     16  C   UNL     1       1.510   3.951  18.868  0.00  0.00    +0.000 A 
ATOM     17  C   UNL     1       1.420   4.355  20.221  0.00  0.00    +0.000 A 
ATOM     18  C   UNL     1       1.598   5.691  20.591  0.00  0.00    +0.000 A 
ATOM     19  C   UNL     1       1.857   6.594  19.585  0.00  0.00    +0.000 A 
ATOM     20  N   UNL     1       2.081   7.957  19.708  0.00  0.00    +0.000 N 
ATOM     21  H   UNL     1       2.085   8.478  20.570  0.00  0.00    +0.000 HD
ENDBRANCH  10  16
ENDBRANCH   9  10
ENDBRANCH   8   9
ENDBRANCH   1   8
BRANCH   6  22
ATOM     22  O   UNL     1       6.888   4.920  15.878  0.00  0.00    +0.000 OA
BRANCH  22  23
ATOM     23  C   UNL     1       6.908   4.696  14.524  0.00  0.00    +0.000 A 
ATOM     24  C   UNL     1       7.782   5.493  13.786  0.00  0.00    +0.000 A 
ATOM     25  C   UNL     1       7.882   5.338  12.401  0.00  0.00    +0.000 A 
ATOM     26  C   UNL     1       7.095   4.389  11.748  0.00  0.00    +0.000 A 
ATOM     27  C   UNL     1       6.208   3.607  12.481  0.00  0.00    +0.000 A 
ATOM     28 CL   UNL     1       5.228   2.438  11.688  0.00  0.00    +0.000 Cl
ATOM     29  C   UNL     1       6.108   3.761  13.863  0.00  0.00    +0.000 A 
ENDBRANCH  22  23
ENDBRANCH   6  22
TORSDOF 6
ENDMDL
MODEL 5
REMARK VINA RESULT:      -8.1      2.005      2.432
REMARK  Name = 
REMARK  6 active torsions:
REMARK  status: ('A' for Active; 'I' for Inactive)
REMARK    1  A    between atoms: C_6  and  C_7
REMARK    2  A    between atoms: C_7  and  C_8
REMARK    3  A    between atoms: C_8  and  C_9
REMARK    4  A    between atoms: C_9  and  C_10
REMARK    5  A    between atoms: C_15  and  O_16
REMARK    6  A    between atoms: O_16  and  C_17
REMARK                            x       y       z     vdW  Elec       q    Type
REMARK                         _______ _______ _______ _____ _____    ______ ____
ROOT
ATOM      1  C   UNL     1       3.945   5.783  18.741  0.00  0.00    +0.000 C 
ATOM      2  O   UNL     1       3.877   5.678  19.965  0.00  0.00    +0.000 OA
ATOM      3  N   UNL     1       5.118   5.568  18.050  0.00  0.00    +0.000 N 
ATOM      4  C   UNL     1       6.354   5.228  18.725  0.00  0.00    +0.000 C 
ATOM      5  C   UNL     1       7.406   5.955  17.907  0.00  0.00    +0.000 C 
ATOM      6  C   UNL     1       6.892   5.830  16.470  0.00  0.00    +0.000 C 
ATOM      7  C   UNL     1       5.364   5.833  16.638  0.00  0.00    +0.000 C 
ENDROOT
BRANCH   1   8
ATOM      8  C   UNL     1       2.719   6.120  17.901  0.00  0.00    +0.000 C 
BRANCH   8   9
ATOM      9  C   UNL     1       1.855   7.229  18.503  0.00  0.00    +0.000 C 
BRANCH   9  10
ATOM     10  C   UNL     1       2.225   8.612  17.955  0.00  0.00    +0.000 C 
BRANCH  10  16
ATOM     11  O   UNL     1      -4.311  11.936  18.041  0.00  0.00    +0.000 OA
ATOM     12  C   UNL     1      -3.166  11.519  18.095  0.00  0.00    +0.000 C 
ATOM     13  C   UNL     1      -2.686  10.110  17.728  0.00  0.00    +0.000 C 
ATOM     14  C   UNL     1      -1.212  10.201  17.986  0.00  0.00    +0.000 A 
ATOM     15  C   UNL     1      -0.221   9.249  17.824  0.00  0.00    +0.000 A 
ATOM     16  C   UNL     1       1.103   9.609  18.127  0.00  0.00    +0.000 A 
ATOM     17  C   UNL     1       1.390  10.910  18.604  0.00  0.00    +0.000 A 
ATOM     18  C   UNL     1       0.380  11.862  18.764  0.00  0.00    +0.000 A 
ATOM     19  C   UNL     1      -0.903  11.479  18.444  0.00  0.00    +0.000 A 
ATOM     20  N   UNL     1      -2.056  12.246  18.507  0.00  0.00    +0.000 N 
ATOM     21  H   UNL     1      -2.108  13.210  18.800  0.00  0.00    +0.000 HD
ENDBRANCH  10  16
ENDBRANCH   9  10
ENDBRANCH   8   9
ENDBRANCH   1   8
BRANCH   6  22
ATOM     22  O   UNL     1       7.317   4.597  15.874  0.00  0.00    +0.000 OA
BRANCH  22  23
ATOM     23  C   UNL     1       7.164   4.526  14.512  0.00  0.00    +0.000 A 
ATOM     24  C   UNL     1       7.972   5.377  13.760  0.00  0.00    +0.000 A 
ATOM     25  C   UNL     1       7.898   5.375  12.364  0.00  0.00    +0.000 A 
ATOM     26  C   UNL     1       7.000   4.526  11.717  0.00  0.00    +0.000 A 
ATOM     27  C   UNL     1       6.178   3.691  12.467  0.00  0.00    +0.000 A 
ATOM     28 CL   UNL     1       5.063   2.644  11.681  0.00  0.00    +0.000 Cl
ATOM     29  C   UNL     1       6.252   3.692  13.859  0.00  0.00    +0.000 A 
ENDBRANCH  22  23
ENDBRANCH   6  22
TORSDOF 6
ENDMDL
MODEL 6
REMARK VINA RESULT:      -8.0      5.588      7.978
REMARK  Name = 
REMARK  6 active torsions:
REMARK  status: ('A' for Active; 'I' for Inactive)
REMARK    1  A    between atoms: C_6  and  C_7
REMARK    2  A    between atoms: C_7  and  C_8
REMARK    3  A    between atoms: C_8  and  C_9
REMARK    4  A    between atoms: C_9  and  C_10
REMARK    5  A    between atoms: C_15  and  O_16
REMARK    6  A    between atoms: O_16  and  C_17
REMARK                            x       y       z     vdW  Elec       q    Type
REMARK                         _______ _______ _______ _____ _____    ______ ____
ROOT
ATOM      1  C   UNL     1       7.192   6.590  16.777  0.00  0.00    +0.000 C 
ATOM      2  O   UNL     1       8.200   6.599  16.071  0.00  0.00    +0.000 OA
ATOM      3  N   UNL     1       6.300   5.540  16.768  0.00  0.00    +0.000 N 
ATOM      4  C   UNL     1       6.478   4.390  15.905  0.00  0.00    +0.000 C 
ATOM      5  C   UNL     1       5.059   4.036  15.502  0.00  0.00    +0.000 C 
ATOM      6  C   UNL     1       4.246   4.319  16.769  0.00  0.00    +0.000 C 
ATOM      7  C   UNL     1       4.996   5.493  17.418  0.00  0.00    +0.000 C 
ENDROOT
BRANCH   1   8
ATOM      8  C   UNL     1       6.887   7.727  17.745  0.00  0.00    +0.000 C 
BRANCH   8   9
ATOM      9  C   UNL     1       7.860   8.901  17.630  0.00  0.00    +0.000 C 
BRANCH   9  10
ATOM     10  C   UNL     1       8.784   9.008  18.848  0.00  0.00    +0.000 C 
BRANCH  10  16
ATOM     11  O   UNL     1      10.651  15.476  21.756  0.00  0.00    +0.000 OA
ATOM     12  C   UNL     1      10.403  14.456  21.133  0.00  0.00    +0.000 C 
ATOM     13  C   UNL     1       9.831  13.152  21.701  0.00  0.00    +0.000 C 
ATOM     14  C   UNL     1       9.740  12.289  20.479  0.00  0.00    +0.000 A 
ATOM     15  C   UNL     1       9.280  10.991  20.340  0.00  0.00    +0.000 A 
ATOM     16  C   UNL     1       9.287  10.417  19.058  0.00  0.00    +0.000 A 
ATOM     17  C   UNL     1       9.776  11.156  17.955  0.00  0.00    +0.000 A 
ATOM     18  C   UNL     1      10.239  12.466  18.108  0.00  0.00    +0.000 A 
ATOM     19  C   UNL     1      10.204  13.001  19.376  0.00  0.00    +0.000 A 
ATOM     20  N   UNL     1      10.592  14.273  19.769  0.00  0.00    +0.000 N 
ATOM     21  H   UNL     1      10.959  14.991  19.163  0.00  0.00    +0.000 HD
ENDBRANCH  10  16
ENDBRANCH   9  10
ENDBRANCH   8   9
ENDBRANCH   1   8
BRANCH   6  22
ATOM     22  O   UNL     1       4.250   3.188  17.650  0.00  0.00    +0.000 OA
BRANCH  22  23
ATOM     23  C   UNL     1       3.136   3.062  18.442  0.00  0.00    +0.000 A 
ATOM     24  C   UNL     1       1.908   3.162  17.790  0.00  0.00    +0.000 A 
ATOM     25  C   UNL     1       0.714   3.040  18.506  0.00  0.00    +0.000 A 
ATOM     26  C   UNL     1       0.749   2.830  19.885  0.00  0.00    +0.000 A 
ATOM     27  C   UNL     1       1.974   2.751  20.540  0.00  0.00    +0.000 A 
ATOM     28 CL   UNL     1       2.030   2.498  22.240  0.00  0.00    +0.000 Cl
ATOM     29  C   UNL     1       3.165   2.872  19.826  0.00  0.00    +0.000 A 
ENDBRANCH  22  23
ENDBRANCH   6  22
TORSDOF 6
ENDMDL
MODEL 7
REMARK VINA RESULT:      -8.0      5.893      8.561
REMARK  Name = 
REMARK  6 active torsions:
REMARK  status: ('A' for Active; 'I' for Inactive)
REMARK    1  A    between atoms: C_6  and  C_7
REMARK    2  A    between atoms: C_7  and  C_8
REMARK    3  A    between atoms: C_8  and  C_9
REMARK    4  A    between atoms: C_9  and  C_10
REMARK    5  A    between atoms: C_15  and  O_16
REMARK    6  A    between atoms: O_16  and  C_17
REMARK                            x       y       z     vdW  Elec       q    Type
REMARK                         _______ _______ _______ _____ _____    ______ ____
ROOT
ATOM      1  C   UNL     1       7.542   6.830  18.282  0.00  0.00    +0.000 C 
ATOM      2  O   UNL     1       8.342   6.248  19.012  0.00  0.00    +0.000 OA
ATOM      3  N   UNL     1       6.233   6.418  18.153  0.00  0.00    +0.000 N 
ATOM      4  C   UNL     1       5.723   5.255  18.850  0.00  0.00    +0.000 C 
ATOM      5  C   UNL     1       4.759   4.646  17.849  0.00  0.00    +0.000 C 
ATOM      6  C   UNL     1       4.122   5.867  17.178  0.00  0.00    +0.000 C 
ATOM      7  C   UNL     1       5.250   6.911  17.197  0.00  0.00    +0.000 C 
ENDROOT
BRANCH   1   8
ATOM      8  C   UNL     1       7.937   8.077  17.501  0.00  0.00    +0.000 C 
BRANCH   8   9
ATOM      9  C   UNL     1       8.576   9.161  18.369  0.00  0.00    +0.000 C 
BRANCH   9  10
ATOM     10  C   UNL     1       8.286  10.571  17.842  0.00  0.00    +0.000 C 
BRANCH  10  16
ATOM     11  O   UNL     1      12.138  16.413  20.033  0.00  0.00    +0.000 OA
ATOM     12  C   UNL     1      11.641  15.372  19.636  0.00  0.00    +0.000 C 
ATOM     13  C   UNL     1      10.154  14.999  19.662  0.00  0.00    +0.000 C 
ATOM     14  C   UNL     1      10.161  13.632  19.046  0.00  0.00    +0.000 A 
ATOM     15  C   UNL     1       9.110  12.773  18.778  0.00  0.00    +0.000 A 
ATOM     16  C   UNL     1       9.398  11.540  18.168  0.00  0.00    +0.000 A 
ATOM     17  C   UNL     1      10.736  11.197  17.865  0.00  0.00    +0.000 A 
ATOM     18  C   UNL     1      11.789  12.073  18.141  0.00  0.00    +0.000 A 
ATOM     19  C   UNL     1      11.469  13.278  18.725  0.00  0.00    +0.000 A 
ATOM     20  N   UNL     1      12.332  14.304  19.077  0.00  0.00    +0.000 N 
ATOM     21  H   UNL     1      13.332  14.305  18.946  0.00  0.00    +0.000 HD
ENDBRANCH  10  16
ENDBRANCH   9  10
ENDBRANCH   8   9
ENDBRANCH   1   8
BRANCH   6  22
ATOM     22  O   UNL     1       2.999   6.345  17.930  0.00  0.00    +0.000 OA
BRANCH  22  23
ATOM     23  C   UNL     1       2.391   5.409  18.729  0.00  0.00    +0.000 A 
ATOM     24  C   UNL     1       2.409   5.670  20.098  0.00  0.00    +0.000 A 
ATOM     25  C   UNL     1       1.810   4.782  20.996  0.00  0.00    +0.000 A 
ATOM     26  C   UNL     1       1.201   3.619  20.522  0.00  0.00    +0.000 A 
ATOM     27  C   UNL     1       1.202   3.347  19.158  0.00  0.00    +0.000 A 
ATOM     28 CL   UNL     1       0.461   1.915  18.562  0.00  0.00    +0.000 Cl
ATOM     29  C   UNL     1       1.798   4.233  18.262  0.00  0.00    +0.000 A 
ENDBRANCH  22  23
ENDBRANCH   6  22
TORSDOF 6
ENDMDL
MODEL 8
REMARK VINA RESULT:      -7.9      5.817      8.710
REMARK  Name = 
REMARK  6 active torsions:
REMARK  status: ('A' for Active; 'I' for Inactive)
REMARK    1  A    between atoms: C_6  and  C_7
REMARK    2  A    between atoms: C_7  and  C_8
REMARK    3  A    between atoms: C_8  and  C_9
REMARK    4  A    between atoms: C_9  and  C_10
REMARK    5  A    between atoms: C_15  and  O_16
REMARK    6  A    between atoms: O_16  and  C_17
REMARK                            x       y       z     vdW  Elec       q    Type
REMARK                         _______ _______ _______ _____ _____    ______ ____
ROOT
ATOM      1  C   UNL     1       7.496   7.056  17.057  0.00  0.00    +0.000 C 
ATOM      2  O   UNL     1       8.453   7.070  16.285  0.00  0.00    +0.000 OA
ATOM      3  N   UNL     1       6.647   5.975  17.154  0.00  0.00    +0.000 N 
ATOM      4  C   UNL     1       6.813   4.794  16.331  0.00  0.00    +0.000 C 
ATOM      5  C   UNL     1       5.385   4.371  16.040  0.00  0.00    +0.000 C 
ATOM      6  C   UNL     1       4.647   4.680  17.346  0.00  0.00    +0.000 C 
ATOM      7  C   UNL     1       5.392   5.910  17.892  0.00  0.00    +0.000 C 
ENDROOT
BRANCH   1   8
ATOM      8  C   UNL     1       7.211   8.224  17.993  0.00  0.00    +0.000 C 
BRANCH   8   9
ATOM      9  C   UNL     1       8.225   9.361  17.874  0.00  0.00    +0.000 C 
BRANCH   9  10
ATOM     10  C   UNL     1       8.913   9.666  19.210  0.00  0.00    +0.000 C 
BRANCH  10  16
ATOM     11  O   UNL     1      12.331  15.765  17.000  0.00  0.00    +0.000 OA
ATOM     12  C   UNL     1      11.811  14.790  17.518  0.00  0.00    +0.000 C 
ATOM     13  C   UNL     1      10.920  13.752  16.826  0.00  0.00    +0.000 C 
ATOM     14  C   UNL     1      10.601  12.812  17.950  0.00  0.00    +0.000 A 
ATOM     15  C   UNL     1       9.843  11.655  17.951  0.00  0.00    +0.000 A 
ATOM     16  C   UNL     1       9.718  10.943  19.156  0.00  0.00    +0.000 A 
ATOM     17  C   UNL     1      10.342  11.427  20.330  0.00  0.00    +0.000 A 
ATOM     18  C   UNL     1      11.104  12.598  20.316  0.00  0.00    +0.000 A 
ATOM     19  C   UNL     1      11.216  13.261  19.115  0.00  0.00    +0.000 A 
ATOM     20  N   UNL     1      11.924  14.424  18.853  0.00  0.00    +0.000 N 
ATOM     21  H   UNL     1      12.465  14.949  19.523  0.00  0.00    +0.000 HD
ENDBRANCH  10  16
ENDBRANCH   9  10
ENDBRANCH   8   9
ENDBRANCH   1   8
BRANCH   6  22
ATOM     22  O   UNL     1       4.754   3.592  18.273  0.00  0.00    +0.000 OA
BRANCH  22  23
ATOM     23  C   UNL     1       3.561   3.123  18.762  0.00  0.00    +0.000 A 
ATOM     24  C   UNL     1       2.651   2.660  17.813  0.00  0.00    +0.000 A 
ATOM     25  C   UNL     1       1.409   2.155  18.209  0.00  0.00    +0.000 A 
ATOM     26  C   UNL     1       1.071   2.125  19.562  0.00  0.00    +0.000 A 
ATOM     27  C   UNL     1       1.970   2.606  20.509  0.00  0.00    +0.000 A 
ATOM     28 CL   UNL     1       1.562   2.580  22.179  0.00  0.00    +0.000 Cl
ATOM     29  C   UNL     1       3.209   3.109  20.114  0.00  0.00    +0.000 A 
ENDBRANCH  22  23
ENDBRANCH   6  22
TORSDOF 6
ENDMDL
MODEL 9
REMARK VINA RESULT:      -7.9      6.148      8.333
REMARK  Name = 
REMARK  6 active torsions:
REMARK  status: ('A' for Active; 'I' for Inactive)
REMARK    1  A    between atoms: C_6  and  C_7
REMARK    2  A    between atoms: C_7  and  C_8
REMARK    3  A    between atoms: C_8  and  C_9
REMARK    4  A    between atoms: C_9  and  C_10
REMARK    5  A    between atoms: C_15  and  O_16
REMARK    6  A    between atoms: O_16  and  C_17
REMARK                            x       y       z     vdW  Elec       q    Type
REMARK                         _______ _______ _______ _____ _____    ______ ____
ROOT
ATOM      1  C   UNL     1       7.679   7.008  18.360  0.00  0.00    +0.000 C 
ATOM      2  O   UNL     1       8.538   6.570  19.124  0.00  0.00    +0.000 OA
ATOM      3  N   UNL     1       6.501   6.335  18.118  0.00  0.00    +0.000 N 
ATOM      4  C   UNL     1       6.211   5.053  18.728  0.00  0.00    +0.000 C 
ATOM      5  C   UNL     1       5.468   4.309  17.634  0.00  0.00    +0.000 C 
ATOM      6  C   UNL     1       4.626   5.402  16.967  0.00  0.00    +0.000 C 
ATOM      7  C   UNL     1       5.497   6.660  17.112  0.00  0.00    +0.000 C 
ENDROOT
BRANCH   1   8
ATOM      8  C   UNL     1       7.844   8.353  17.662  0.00  0.00    +0.000 C 
BRANCH   8   9
ATOM      9  C   UNL     1       8.550   9.401  18.521  0.00  0.00    +0.000 C 
BRANCH   9  10
ATOM     10  C   UNL     1       9.300  10.434  17.673  0.00  0.00    +0.000 C 
BRANCH  10  16
ATOM     11  O   UNL     1      10.989  17.165  20.042  0.00  0.00    +0.000 OA
ATOM     12  C   UNL     1      10.758  15.994  19.795  0.00  0.00    +0.000 C 
ATOM     13  C   UNL     1      10.087  15.440  18.532  0.00  0.00    +0.000 C 
ATOM     14  C   UNL     1      10.089  13.964  18.795  0.00  0.00    +0.000 A 
ATOM     15  C   UNL     1       9.630  12.921  18.010  0.00  0.00    +0.000 A 
ATOM     16  C   UNL     1       9.773  11.610  18.496  0.00  0.00    +0.000 A 
ATOM     17  C   UNL     1      10.354  11.387  19.766  0.00  0.00    +0.000 A 
ATOM     18  C   UNL     1      10.813  12.449  20.550  0.00  0.00    +0.000 A 
ATOM     19  C   UNL     1      10.670  13.718  20.037  0.00  0.00    +0.000 A 
ATOM     20  N   UNL     1      11.059  14.915  20.618  0.00  0.00    +0.000 N 
ATOM     21  H   UNL     1      11.510  15.017  21.513  0.00  0.00    +0.000 HD
ENDBRANCH  10  16
ENDBRANCH   9  10
ENDBRANCH   8   9
ENDBRANCH   1   8
BRANCH   6  22
ATOM     22  O   UNL     1       3.381   5.587  17.653  0.00  0.00    +0.000 OA
BRANCH  22  23
ATOM     23  C   UNL     1       2.839   4.449  18.196  0.00  0.00    +0.000 A 
ATOM     24  C   UNL     1       2.612   3.396  17.310  0.00  0.00    +0.000 A 
ATOM     25  C   UNL     1       2.071   2.192  17.766  0.00  0.00    +0.000 A 
ATOM     26  C   UNL     1       1.742   2.042  19.114  0.00  0.00    +0.000 A 
ATOM     27  C   UNL     1       1.949   3.099  19.995  0.00  0.00    +0.000 A 
ATOM     28 CL   UNL     1       1.543   2.930  21.657  0.00  0.00    +0.000 Cl
ATOM     29  C   UNL     1       2.490   4.301  19.541  0.00  0.00    +0.000 A 
ENDBRANCH  22  23
ENDBRANCH   6  22
TORSDOF 6
ENDMDL
