MODEL 1
REMARK VINA RESULT:      -8.8      0.000      0.000
REMARK  Name = 
REMARK  4 active torsions:
REMARK  status: ('A' for Active; 'I' for Inactive)
REMARK    1  A    between atoms: C_7  and  S_8
REMARK    2  A    between atoms: S_8  and  N_11
REMARK    3  A    between atoms: N_11  and  C_12
REMARK    4  A    between atoms: C_18  and  O_19
REMARK                            x       y       z     vdW  Elec       q    Type
REMARK                         _______ _______ _______ _____ _____    ______ ____
ROOT
ATOM      1  O   UNL     1       0.755   2.889  21.184  0.00  0.00    +0.000 OA
ATOM      2  C   UNL     1       1.448   3.585  20.456  0.00  0.00    +0.000 C 
ATOM      3  N   UNL     1       1.472   4.986  20.475  0.00  0.00    +0.000 N 
ATOM      4  C   UNL     1       2.353   5.504  19.540  0.00  0.00    +0.000 A 
ATOM      5  C   UNL     1       2.673   6.811  19.233  0.00  0.00    +0.000 A 
ATOM      6  C   UNL     1       3.633   6.972  18.209  0.00  0.00    +0.000 A 
ATOM      7  C   UNL     1       4.238   5.859  17.556  0.00  0.00    +0.000 A 
ATOM      8  C   UNL     1       3.863   4.528  17.895  0.00  0.00    +0.000 A 
ATOM      9  C   UNL     1       4.301   3.273  17.399  0.00  0.00    +0.000 A 
ATOM     10  C   UNL     1       3.796   2.063  17.910  0.00  0.00    +0.000 A 
ATOM     11  C   UNL     1       2.836   2.037  18.931  0.00  0.00    +0.000 A 
ATOM     12  C   UNL     1       2.409   3.268  19.419  0.00  0.00    +0.000 A 
ATOM     13  C   UNL     1       2.932   4.439  18.889  0.00  0.00    +0.000 A 
ATOM     14  H   UNL     1       0.885   5.519  21.099  0.00  0.00    +0.000 HD
ENDROOT
BRANCH   7  15
ATOM     15  S   UNL     1       5.446   6.190  16.278  0.00  0.00    +0.000 S 
ATOM     16  O   UNL     1       4.805   6.874  15.179  0.00  0.00    +0.000 OA
ATOM     17  O   UNL     1       6.593   6.788  16.937  0.00  0.00    +0.000 OA
BRANCH  15  18
ATOM     18  N   UNL     1       5.963   4.654  15.759  0.00  0.00    +0.000 N 
ATOM     19  H   UNL     1       5.328   3.952  16.145  0.00  0.00    +0.000 HD
BRANCH  18  20
ATOM     20  C   UNL     1       6.188   4.467  14.357  0.00  0.00    +0.000 A 
ATOM     21  C   UNL     1       5.307   3.716  13.582  0.00  0.00    +0.000 A 
ATOM     22  C   UNL     1       5.616   3.479  12.242  0.00  0.00    +0.000 A 
ATOM     23 CL   UNL     1       4.541   2.562  11.260  0.00  0.00    +0.000 Cl
ATOM     24  C   UNL     1       6.802   3.968  11.683  0.00  0.00    +0.000 A 
ATOM     25  C   UNL     1       7.681   4.725  12.459  0.00  0.00    +0.000 A 
ATOM     26  C   UNL     1       7.362   4.980  13.788  0.00  0.00    +0.000 A 
BRANCH  26  27
ATOM     27  O   UNL     1       8.194   5.721  14.583  0.00  0.00    +0.000 OA
ATOM     28  H   UNL     1       8.804   6.219  14.013  0.00  0.00    +0.000 HD
ENDBRANCH  26  27
ENDBRANCH  18  20
ENDBRANCH  15  18
ENDBRANCH   7  15
TORSDOF 4
ENDMDL
MODEL 2
REMARK VINA RESULT:      -8.8      3.237      3.971
REMARK  Name = 
REMARK  4 active torsions:
REMARK  status: ('A' for Active; 'I' for Inactive)
REMARK    1  A    between atoms: C_7  and  S_8
REMARK    2  A    between atoms: S_8  and  N_11
REMARK    3  A    between atoms: N_11  and  C_12
REMARK    4  A    between atoms: C_18  and  O_19
REMARK                            x       y       z     vdW  Elec       q    Type
REMARK                         _______ _______ _______ _____ _____    ______ ____
ROOT
ATOM      1  O   UNL     1       1.677   3.476  21.777  0.00  0.00    +0.000 OA
ATOM      2  C   UNL     1       2.208   3.998  20.808  0.00  0.00    +0.000 C 
ATOM      3  N   UNL     1       2.340   5.379  20.614  0.00  0.00    +0.000 N 
ATOM      4  C   UNL     1       2.986   5.679  19.426  0.00  0.00    +0.000 A 
ATOM      5  C   UNL     1       3.311   6.895  18.861  0.00  0.00    +0.000 A 
ATOM      6  C   UNL     1       3.984   6.824  17.621  0.00  0.00    +0.000 A 
ATOM      7  C   UNL     1       4.317   5.580  17.010  0.00  0.00    +0.000 A 
ATOM      8  C   UNL     1       3.946   4.349  17.623  0.00  0.00    +0.000 A 
ATOM      9  C   UNL     1       4.147   3.002  17.225  0.00  0.00    +0.000 A 
ATOM     10  C   UNL     1       3.704   1.927  18.017  0.00  0.00    +0.000 A 
ATOM     11  C   UNL     1       3.040   2.132  19.233  0.00  0.00    +0.000 A 
ATOM     12  C   UNL     1       2.845   3.452  19.625  0.00  0.00    +0.000 A 
ATOM     13  C   UNL     1       3.297   4.485  18.817  0.00  0.00    +0.000 A 
ATOM     14  H   UNL     1       1.974   6.046  21.277  0.00  0.00    +0.000 HD
ENDROOT
BRANCH   7  15
ATOM     15  S   UNL     1       5.177   5.617  15.441  0.00  0.00    +0.000 S 
ATOM     16  O   UNL     1       4.749   4.498  14.634  0.00  0.00    +0.000 OA
ATOM     17  O   UNL     1       5.052   6.971  14.932  0.00  0.00    +0.000 OA
BRANCH  15  18
ATOM     18  N   UNL     1       6.820   5.425  15.842  0.00  0.00    +0.000 N 
ATOM     19  H   UNL     1       7.382   5.644  15.017  0.00  0.00    +0.000 HD
BRANCH  18  20
ATOM     20  C   UNL     1       7.301   6.091  17.015  0.00  0.00    +0.000 A 
ATOM     21  C   UNL     1       7.576   7.457  17.005  0.00  0.00    +0.000 A 
ATOM     22  C   UNL     1       8.133   8.045  18.141  0.00  0.00    +0.000 A 
ATOM     23 CL   UNL     1       8.474   9.732  18.157  0.00  0.00    +0.000 Cl
ATOM     24  C   UNL     1       8.433   7.277  19.271  0.00  0.00    +0.000 A 
ATOM     25  C   UNL     1       8.151   5.910  19.283  0.00  0.00    +0.000 A 
ATOM     26  C   UNL     1       7.575   5.329  18.159  0.00  0.00    +0.000 A 
BRANCH  26  27
ATOM     27  O   UNL     1       7.279   3.993  18.130  0.00  0.00    +0.000 OA
ATOM     28  H   UNL     1       6.329   3.890  17.949  0.00  0.00    +0.000 HD
ENDBRANCH  26  27
ENDBRANCH  18  20
ENDBRANCH  15  18
ENDBRANCH   7  15
TORSDOF 4
ENDMDL
MODEL 3
REMARK VINA RESULT:      -8.5      0.894      2.218
REMARK  Name = 
REMARK  4 active torsions:
REMARK  status: ('A' for Active; 'I' for Inactive)
REMARK    1  A    between atoms: C_7  and  S_8
REMARK    2  A    between atoms: S_8  and  N_11
REMARK    3  A    between atoms: N_11  and  C_12
REMARK    4  A    between atoms: C_18  and  O_19
REMARK                            x       y       z     vdW  Elec       q    Type
REMARK                         _______ _______ _______ _____ _____    ______ ____
ROOT
ATOM      1  O   UNL     1       0.645   3.045  20.902  0.00  0.00    +0.000 OA
ATOM      2  C   UNL     1       1.525   3.336  20.104  0.00  0.00    +0.000 C 
ATOM      3  N   UNL     1       2.229   2.414  19.318  0.00  0.00    +0.000 N 
ATOM      4  C   UNL     1       3.166   3.031  18.505  0.00  0.00    +0.000 A 
ATOM      5  C   UNL     1       4.057   2.500  17.596  0.00  0.00    +0.000 A 
ATOM      6  C   UNL     1       4.874   3.441  16.931  0.00  0.00    +0.000 A 
ATOM      7  C   UNL     1       4.768   4.841  17.175  0.00  0.00    +0.000 A 
ATOM      8  C   UNL     1       3.845   5.342  18.136  0.00  0.00    +0.000 A 
ATOM      9  C   UNL     1       3.557   6.665  18.562  0.00  0.00    +0.000 A 
ATOM     10  C   UNL     1       2.568   6.926  19.529  0.00  0.00    +0.000 A 
ATOM     11  C   UNL     1       1.824   5.897  20.121  0.00  0.00    +0.000 A 
ATOM     12  C   UNL     1       2.106   4.601  19.701  0.00  0.00    +0.000 A 
ATOM     13  C   UNL     1       3.087   4.384  18.744  0.00  0.00    +0.000 A 
ATOM     14  H   UNL     1       2.058   1.421  19.381  0.00  0.00    +0.000 HD
ENDROOT
BRANCH   7  15
ATOM     15  S   UNL     1       5.853   5.936  16.265  0.00  0.00    +0.000 S 
ATOM     16  O   UNL     1       5.095   6.619  15.242  0.00  0.00    +0.000 OA
ATOM     17  O   UNL     1       6.595   6.699  17.252  0.00  0.00    +0.000 OA
BRANCH  15  18
ATOM     18  N   UNL     1       6.991   4.908  15.528  0.00  0.00    +0.000 N 
ATOM     19  H   UNL     1       7.039   4.040  16.066  0.00  0.00    +0.000 HD
BRANCH  18  20
ATOM     20  C   UNL     1       6.857   4.666  14.123  0.00  0.00    +0.000 A 
ATOM     21  C   UNL     1       5.844   3.848  13.628  0.00  0.00    +0.000 A 
ATOM     22  C   UNL     1       5.809   3.562  12.262  0.00  0.00    +0.000 A 
ATOM     23 CL   UNL     1       4.563   2.561  11.625  0.00  0.00    +0.000 Cl
ATOM     24  C   UNL     1       6.786   4.071  11.400  0.00  0.00    +0.000 A 
ATOM     25  C   UNL     1       7.796   4.896  11.895  0.00  0.00    +0.000 A 
ATOM     26  C   UNL     1       7.818   5.198  13.252  0.00  0.00    +0.000 A 
BRANCH  26  27
ATOM     27  O   UNL     1       8.789   6.006  13.779  0.00  0.00    +0.000 OA
ATOM     28  H   UNL     1       8.364   6.671  14.348  0.00  0.00    +0.000 HD
ENDBRANCH  26  27
ENDBRANCH  18  20
ENDBRANCH  15  18
ENDBRANCH   7  15
TORSDOF 4
ENDMDL
MODEL 4
REMARK VINA RESULT:      -8.0      2.950      4.446
REMARK  Name = 
REMARK  4 active torsions:
REMARK  status: ('A' for Active; 'I' for Inactive)
REMARK    1  A    between atoms: C_7  and  S_8
REMARK    2  A    between atoms: S_8  and  N_11
REMARK    3  A    between atoms: N_11  and  C_12
REMARK    4  A    between atoms: C_18  and  O_19
REMARK                            x       y       z     vdW  Elec       q    Type
REMARK                         _______ _______ _______ _____ _____    ______ ____
ROOT
ATOM      1  O   UNL     1       1.059   9.850  20.337  0.00  0.00    +0.000 OA
ATOM      2  C   UNL     1       1.426   8.693  20.195  0.00  0.00    +0.000 C 
ATOM      3  N   UNL     1       1.215   7.666  21.125  0.00  0.00    +0.000 N 
ATOM      4  C   UNL     1       1.741   6.459  20.696  0.00  0.00    +0.000 A 
ATOM      5  C   UNL     1       1.754   5.218  21.299  0.00  0.00    +0.000 A 
ATOM      6  C   UNL     1       2.385   4.194  20.559  0.00  0.00    +0.000 A 
ATOM      7  C   UNL     1       2.951   4.428  19.272  0.00  0.00    +0.000 A 
ATOM      8  C   UNL     1       2.929   5.730  18.696  0.00  0.00    +0.000 A 
ATOM      9  C   UNL     1       3.421   6.219  17.458  0.00  0.00    +0.000 A 
ATOM     10  C   UNL     1       3.263   7.567  17.085  0.00  0.00    +0.000 A 
ATOM     11  C   UNL     1       2.617   8.492  17.916  0.00  0.00    +0.000 A 
ATOM     12  C   UNL     1       2.133   8.011  19.129  0.00  0.00    +0.000 A 
ATOM     13  C   UNL     1       2.308   6.676  19.460  0.00  0.00    +0.000 A 
ATOM     14  H   UNL     1       0.748   7.834  22.003  0.00  0.00    +0.000 HD
ENDROOT
BRANCH   7  15
ATOM     15  S   UNL     1       3.717   3.049  18.427  0.00  0.00    +0.000 S 
ATOM     16  O   UNL     1       3.312   1.815  19.061  0.00  0.00    +0.000 OA
ATOM     17  O   UNL     1       3.484   3.249  17.009  0.00  0.00    +0.000 OA
BRANCH  15  18
ATOM     18  N   UNL     1       5.389   3.274  18.655  0.00  0.00    +0.000 N 
ATOM     19  H   UNL     1       5.852   2.367  18.576  0.00  0.00    +0.000 HD
BRANCH  18  20
ATOM     20  C   UNL     1       6.037   4.282  17.870  0.00  0.00    +0.000 A 
ATOM     21  C   UNL     1       6.133   4.162  16.485  0.00  0.00    +0.000 A 
ATOM     22  C   UNL     1       6.856   5.118  15.771  0.00  0.00    +0.000 A 
ATOM     23 CL   UNL     1       6.982   4.999  14.059  0.00  0.00    +0.000 Cl
ATOM     24  C   UNL     1       7.496   6.173  16.431  0.00  0.00    +0.000 A 
ATOM     25  C   UNL     1       7.394   6.295  17.817  0.00  0.00    +0.000 A 
ATOM     26  C   UNL     1       6.655   5.355  18.526  0.00  0.00    +0.000 A 
BRANCH  26  27
ATOM     27  O   UNL     1       6.526   5.440  19.887  0.00  0.00    +0.000 OA
ATOM     28  H   UNL     1       7.408   5.353  20.287  0.00  0.00    +0.000 HD
ENDBRANCH  26  27
ENDBRANCH  18  20
ENDBRANCH  15  18
ENDBRANCH   7  15
TORSDOF 4
ENDMDL
MODEL 5
REMARK VINA RESULT:      -8.0      3.137      4.488
REMARK  Name = 
REMARK  4 active torsions:
REMARK  status: ('A' for Active; 'I' for Inactive)
REMARK    1  A    between atoms: C_7  and  S_8
REMARK    2  A    between atoms: S_8  and  N_11
REMARK    3  A    between atoms: N_11  and  C_12
REMARK    4  A    between atoms: C_18  and  O_19
REMARK                            x       y       z     vdW  Elec       q    Type
REMARK                         _______ _______ _______ _____ _____    ______ ____
ROOT
ATOM      1  O   UNL     1       1.216   3.317  21.332  0.00  0.00    +0.000 OA
ATOM      2  C   UNL     1       1.908   3.471  20.337  0.00  0.00    +0.000 C 
ATOM      3  N   UNL     1       2.447   2.432  19.567  0.00  0.00    +0.000 N 
ATOM      4  C   UNL     1       3.189   2.906  18.497  0.00  0.00    +0.000 A 
ATOM      5  C   UNL     1       3.879   2.231  17.512  0.00  0.00    +0.000 A 
ATOM      6  C   UNL     1       4.531   3.050  16.563  0.00  0.00    +0.000 A 
ATOM      7  C   UNL     1       4.460   4.473  16.615  0.00  0.00    +0.000 A 
ATOM      8  C   UNL     1       3.749   5.126  17.661  0.00  0.00    +0.000 A 
ATOM      9  C   UNL     1       3.538   6.501  17.939  0.00  0.00    +0.000 A 
ATOM     10  C   UNL     1       2.768   6.920  19.039  0.00  0.00    +0.000 A 
ATOM     11  C   UNL     1       2.174   6.002  19.916  0.00  0.00    +0.000 A 
ATOM     12  C   UNL     1       2.378   4.653  19.642  0.00  0.00    +0.000 A 
ATOM     13  C   UNL     1       3.144   4.281  18.547  0.00  0.00    +0.000 A 
ATOM     14  H   UNL     1       2.304   1.463  19.809  0.00  0.00    +0.000 HD
ENDROOT
BRANCH   7  15
ATOM     15  S   UNL     1       5.321   5.403  15.352  0.00  0.00    +0.000 S 
ATOM     16  O   UNL     1       5.146   4.751  14.074  0.00  0.00    +0.000 OA
ATOM     17  O   UNL     1       4.931   6.791  15.519  0.00  0.00    +0.000 OA
BRANCH  15  18
ATOM     18  N   UNL     1       6.962   5.329  15.799  0.00  0.00    +0.000 N 
ATOM     19  H   UNL     1       7.531   5.556  14.981  0.00  0.00    +0.000 HD
BRANCH  18  20
ATOM     20  C   UNL     1       7.368   6.063  16.960  0.00  0.00    +0.000 A 
ATOM     21  C   UNL     1       7.609   7.434  16.896  0.00  0.00    +0.000 A 
ATOM     22  C   UNL     1       8.096   8.090  18.027  0.00  0.00    +0.000 A 
ATOM     23 CL   UNL     1       8.394   9.784  17.976  0.00  0.00    +0.000 Cl
ATOM     24  C   UNL     1       8.359   7.386  19.206  0.00  0.00    +0.000 A 
ATOM     25  C   UNL     1       8.110   6.014  19.272  0.00  0.00    +0.000 A 
ATOM     26  C   UNL     1       7.605   5.364  18.152  0.00  0.00    +0.000 A 
BRANCH  26  27
ATOM     27  O   UNL     1       7.343   4.021  18.174  0.00  0.00    +0.000 OA
ATOM     28  H   UNL     1       8.099   3.551  17.782  0.00  0.00    +0.000 HD
ENDBRANCH  26  27
ENDBRANCH  18  20
ENDBRANCH  15  18
ENDBRANCH   7  15
TORSDOF 4
ENDMDL
MODEL 6
REMARK VINA RESULT:      -8.0      3.206      4.548
REMARK  Name = 
REMARK  4 active torsions:
REMARK  status: ('A' for Active; 'I' for Inactive)
REMARK    1  A    between atoms: C_7  and  S_8
REMARK    2  A    between atoms: S_8  and  N_11
REMARK    3  A    between atoms: N_11  and  C_12
REMARK    4  A    between atoms: C_18  and  O_19
REMARK                            x       y       z     vdW  Elec       q    Type
REMARK                         _______ _______ _______ _____ _____    ______ ____
ROOT
ATOM      1  O   UNL     1       0.832   9.593  20.917  0.00  0.00    +0.000 OA
ATOM      2  C   UNL     1       1.268   8.491  20.617  0.00  0.00    +0.000 C 
ATOM      3  N   UNL     1       1.137   7.337  21.401  0.00  0.00    +0.000 N 
ATOM      4  C   UNL     1       1.728   6.234  20.807  0.00  0.00    +0.000 A 
ATOM      5  C   UNL     1       1.828   4.926  21.236  0.00  0.00    +0.000 A 
ATOM      6  C   UNL     1       2.508   4.053  20.357  0.00  0.00    +0.000 A 
ATOM      7  C   UNL     1       3.036   4.494  19.109  0.00  0.00    +0.000 A 
ATOM      8  C   UNL     1       2.923   5.858  18.716  0.00  0.00    +0.000 A 
ATOM      9  C   UNL     1       3.362   6.540  17.551  0.00  0.00    +0.000 A 
ATOM     10  C   UNL     1       3.115   7.912  17.366  0.00  0.00    +0.000 A 
ATOM     11  C   UNL     1       2.428   8.674  18.321  0.00  0.00    +0.000 A 
ATOM     12  C   UNL     1       1.996   8.005  19.461  0.00  0.00    +0.000 A 
ATOM     13  C   UNL     1       2.259   6.651  19.607  0.00  0.00    +0.000 A 
ATOM     14  H   UNL     1       0.676   7.354  22.298  0.00  0.00    +0.000 HD
ENDROOT
BRANCH   7  15
ATOM     15  S   UNL     1       3.870   3.293  18.079  0.00  0.00    +0.000 S 
ATOM     16  O   UNL     1       3.488   1.962  18.490  0.00  0.00    +0.000 OA
ATOM     17  O   UNL     1       3.671   3.715  16.704  0.00  0.00    +0.000 OA
BRANCH  15  18
ATOM     18  N   UNL     1       5.527   3.524  18.395  0.00  0.00    +0.000 N 
ATOM     19  H   UNL     1       5.981   2.610  18.427  0.00  0.00    +0.000 HD
BRANCH  18  20
ATOM     20  C   UNL     1       6.238   4.454  17.569  0.00  0.00    +0.000 A 
ATOM     21  C   UNL     1       6.626   5.699  18.058  0.00  0.00    +0.000 A 
ATOM     22  C   UNL     1       7.231   6.610  17.191  0.00  0.00    +0.000 A 
ATOM     23 CL   UNL     1       7.727   8.152  17.772  0.00  0.00    +0.000 Cl
ATOM     24  C   UNL     1       7.430   6.291  15.844  0.00  0.00    +0.000 A 
ATOM     25  C   UNL     1       7.048   5.041  15.356  0.00  0.00    +0.000 A 
ATOM     26  C   UNL     1       6.465   4.126  16.226  0.00  0.00    +0.000 A 
BRANCH  26  27
ATOM     27  O   UNL     1       6.078   2.887  15.790  0.00  0.00    +0.000 OA
ATOM     28  H   UNL     1       6.692   2.226  16.152  0.00  0.00    +0.000 HD
ENDBRANCH  26  27
ENDBRANCH  18  20
ENDBRANCH  15  18
ENDBRANCH   7  15
TORSDOF 4
ENDMDL
MODEL 7
REMARK VINA RESULT:      -7.9      1.515      2.891
REMARK  Name = 
REMARK  4 active torsions:
REMARK  status: ('A' for Active; 'I' for Inactive)
REMARK    1  A    between atoms: C_7  and  S_8
REMARK    2  A    between atoms: S_8  and  N_11
REMARK    3  A    between atoms: N_11  and  C_12
REMARK    4  A    between atoms: C_18  and  O_19
REMARK                            x       y       z     vdW  Elec       q    Type
REMARK                         _______ _______ _______ _____ _____    ______ ____
ROOT
ATOM      1  O   UNL     1       0.342   7.332  21.585  0.00  0.00    +0.000 OA
ATOM      2  C   UNL     1       1.221   7.016  20.797  0.00  0.00    +0.000 C 
ATOM      3  N   UNL     1       1.948   5.819  20.845  0.00  0.00    +0.000 N 
ATOM      4  C   UNL     1       2.878   5.734  19.822  0.00  0.00    +0.000 A 
ATOM      5  C   UNL     1       3.785   4.741  19.512  0.00  0.00    +0.000 A 
ATOM      6  C   UNL     1       4.589   4.991  18.377  0.00  0.00    +0.000 A 
ATOM      7  C   UNL     1       4.455   6.179  17.601  0.00  0.00    +0.000 A 
ATOM      8  C   UNL     1       3.516   7.184  17.970  0.00  0.00    +0.000 A 
ATOM      9  C   UNL     1       3.200   8.436  17.382  0.00  0.00    +0.000 A 
ATOM     10  C   UNL     1       2.200   9.269  17.919  0.00  0.00    +0.000 A 
ATOM     11  C   UNL     1       1.472   8.906  19.060  0.00  0.00    +0.000 A 
ATOM     12  C   UNL     1       1.781   7.677  19.634  0.00  0.00    +0.000 A 
ATOM     13  C   UNL     1       2.772   6.885  19.075  0.00  0.00    +0.000 A 
ATOM     14  H   UNL     1       1.795   5.134  21.569  0.00  0.00    +0.000 HD
ENDROOT
BRANCH   7  15
ATOM     15  S   UNL     1       5.525   6.380  16.181  0.00  0.00    +0.000 S 
ATOM     16  O   UNL     1       4.784   7.004  15.109  0.00  0.00    +0.000 OA
ATOM     17  O   UNL     1       6.751   6.986  16.667  0.00  0.00    +0.000 OA
BRANCH  15  18
ATOM     18  N   UNL     1       5.944   4.795  15.725  0.00  0.00    +0.000 N 
ATOM     19  H   UNL     1       5.264   4.150  16.132  0.00  0.00    +0.000 HD
BRANCH  18  20
ATOM     20  C   UNL     1       6.164   4.539  14.333  0.00  0.00    +0.000 A 
ATOM     21  C   UNL     1       5.248   3.805  13.584  0.00  0.00    +0.000 A 
ATOM     22  C   UNL     1       5.549   3.498  12.256  0.00  0.00    +0.000 A 
ATOM     23 CL   UNL     1       4.430   2.599  11.306  0.00  0.00    +0.000 Cl
ATOM     24  C   UNL     1       6.760   3.901  11.684  0.00  0.00    +0.000 A 
ATOM     25  C   UNL     1       7.674   4.643  12.434  0.00  0.00    +0.000 A 
ATOM     26  C   UNL     1       7.365   4.967  13.750  0.00  0.00    +0.000 A 
BRANCH  26  27
ATOM     27  O   UNL     1       8.232   5.696  14.519  0.00  0.00    +0.000 OA
ATOM     28  H   UNL     1       8.957   6.012  13.953  0.00  0.00    +0.000 HD
ENDBRANCH  26  27
ENDBRANCH  18  20
ENDBRANCH  15  18
ENDBRANCH   7  15
TORSDOF 4
ENDMDL
MODEL 8
REMARK VINA RESULT:      -7.7      9.371     12.930
REMARK  Name = 
REMARK  4 active torsions:
REMARK  status: ('A' for Active; 'I' for Inactive)
REMARK    1  A    between atoms: C_7  and  S_8
REMARK    2  A    between atoms: S_8  and  N_11
REMARK    3  A    between atoms: N_11  and  C_12
REMARK    4  A    between atoms: C_18  and  O_19
REMARK                            x       y       z     vdW  Elec       q    Type
REMARK                         _______ _______ _______ _____ _____    ______ ____
ROOT
ATOM      1  O   UNL     1       1.710   8.899  18.562  0.00  0.00    +0.000 OA
ATOM      2  C   UNL     1       0.941   9.652  19.141  0.00  0.00    +0.000 C 
ATOM      3  N   UNL     1       0.215  10.682  18.528  0.00  0.00    +0.000 N 
ATOM      4  C   UNL     1      -0.577  11.370  19.433  0.00  0.00    +0.000 A 
ATOM      5  C   UNL     1      -1.431  12.438  19.250  0.00  0.00    +0.000 A 
ATOM      6  C   UNL     1      -2.090  12.890  20.415  0.00  0.00    +0.000 A 
ATOM      7  C   UNL     1      -1.895  12.270  21.684  0.00  0.00    +0.000 A 
ATOM      8  C   UNL     1      -0.990  11.181  21.827  0.00  0.00    +0.000 A 
ATOM      9  C   UNL     1      -0.618  10.411  22.960  0.00  0.00    +0.000 A 
ATOM     10  C   UNL     1       0.298   9.348  22.857  0.00  0.00    +0.000 A 
ATOM     11  C   UNL     1       0.890   8.999  21.636  0.00  0.00    +0.000 A 
ATOM     12  C   UNL     1       0.523   9.753  20.525  0.00  0.00    +0.000 A 
ATOM     13  C   UNL     1      -0.384  10.793  20.667  0.00  0.00    +0.000 A 
ATOM     14  H   UNL     1       0.302  10.879  17.543  0.00  0.00    +0.000 HD
ENDROOT
BRANCH   7  15
ATOM     15  S   UNL     1      -2.792  12.928  23.086  0.00  0.00    +0.000 S 
ATOM     16  O   UNL     1      -3.351  11.837  23.850  0.00  0.00    +0.000 OA
ATOM     17  O   UNL     1      -1.914  13.889  23.727  0.00  0.00    +0.000 OA
BRANCH  15  18
ATOM     18  N   UNL     1      -4.056  13.842  22.404  0.00  0.00    +0.000 N 
ATOM     19  H   UNL     1      -3.729  14.237  21.520  0.00  0.00    +0.000 HD
BRANCH  18  20
ATOM     20  C   UNL     1      -5.336  13.213  22.274  0.00  0.00    +0.000 A 
ATOM     21  C   UNL     1      -5.641  12.426  21.165  0.00  0.00    +0.000 A 
ATOM     22  C   UNL     1      -6.932  11.912  21.033  0.00  0.00    +0.000 A 
ATOM     23 CL   UNL     1      -7.331  10.931  19.677  0.00  0.00    +0.000 Cl
ATOM     24  C   UNL     1      -7.916  12.195  21.985  0.00  0.00    +0.000 A 
ATOM     25  C   UNL     1      -7.608  12.977  23.099  0.00  0.00    +0.000 A 
ATOM     26  C   UNL     1      -6.316  13.471  23.242  0.00  0.00    +0.000 A 
BRANCH  26  27
ATOM     27  O   UNL     1      -5.971  14.239  24.321  0.00  0.00    +0.000 OA
ATOM     28  H   UNL     1      -6.221  13.765  25.132  0.00  0.00    +0.000 HD
ENDBRANCH  26  27
ENDBRANCH  18  20
ENDBRANCH  15  18
ENDBRANCH   7  15
TORSDOF 4
ENDMDL
MODEL 9
REMARK VINA RESULT:      -7.6      5.610      8.533
REMARK  Name = 
REMARK  4 active torsions:
REMARK  status: ('A' for Active; 'I' for Inactive)
REMARK    1  A    between atoms: C_7  and  S_8
REMARK    2  A    between atoms: S_8  and  N_11
REMARK    3  A    between atoms: N_11  and  C_12
REMARK    4  A    between atoms: C_18  and  O_19
REMARK                            x       y       z     vdW  Elec       q    Type
REMARK                         _______ _______ _______ _____ _____    ______ ____
ROOT
ATOM      1  O   UNL     1       4.334   3.061  17.449  0.00  0.00    +0.000 OA
ATOM      2  C   UNL     1       3.848   4.103  17.864  0.00  0.00    +0.000 C 
ATOM      3  N   UNL     1       3.938   5.342  17.216  0.00  0.00    +0.000 N 
ATOM      4  C   UNL     1       3.290   6.345  17.918  0.00  0.00    +0.000 A 
ATOM      5  C   UNL     1       3.143   7.688  17.639  0.00  0.00    +0.000 A 
ATOM      6  C   UNL     1       2.404   8.425  18.591  0.00  0.00    +0.000 A 
ATOM      7  C   UNL     1       1.839   7.815  19.748  0.00  0.00    +0.000 A 
ATOM      8  C   UNL     1       2.032   6.428  20.004  0.00  0.00    +0.000 A 
ATOM      9  C   UNL     1       1.589   5.597  21.066  0.00  0.00    +0.000 A 
ATOM     10  C   UNL     1       1.888   4.223  21.098  0.00  0.00    +0.000 A 
ATOM     11  C   UNL     1       2.639   3.607  20.088  0.00  0.00    +0.000 A 
ATOM     12  C   UNL     1       3.070   4.421  19.045  0.00  0.00    +0.000 A 
ATOM     13  C   UNL     1       2.754   5.772  19.049  0.00  0.00    +0.000 A 
ATOM     14  H   UNL     1       4.443   5.452  16.349  0.00  0.00    +0.000 HD
ENDROOT
BRANCH   7  15
ATOM     15  S   UNL     1       0.918   8.852  20.879  0.00  0.00    +0.000 S 
ATOM     16  O   UNL     1      -0.453   8.400  20.934  0.00  0.00    +0.000 OA
ATOM     17  O   UNL     1       1.703   8.939  22.096  0.00  0.00    +0.000 OA
BRANCH  15  18
ATOM     18  N   UNL     1       0.969  10.405  20.185  0.00  0.00    +0.000 N 
ATOM     19  H   UNL     1       1.478  10.348  19.301  0.00  0.00    +0.000 HD
BRANCH  18  20
ATOM     20  C   UNL     1      -0.267  11.116  20.053  0.00  0.00    +0.000 A 
ATOM     21  C   UNL     1      -0.844  11.764  21.143  0.00  0.00    +0.000 A 
ATOM     22  C   UNL     1      -2.096  12.362  20.991  0.00  0.00    +0.000 A 
ATOM     23 CL   UNL     1      -2.826  13.176  22.320  0.00  0.00    +0.000 Cl
ATOM     24  C   UNL     1      -2.778  12.297  19.772  0.00  0.00    +0.000 A 
ATOM     25  C   UNL     1      -2.196  11.653  18.679  0.00  0.00    +0.000 A 
ATOM     26  C   UNL     1      -0.939  11.077  18.823  0.00  0.00    +0.000 A 
BRANCH  26  27
ATOM     27  O   UNL     1      -0.331  10.439  17.776  0.00  0.00    +0.000 OA
ATOM     28  H   UNL     1       0.112   9.642  18.114  0.00  0.00    +0.000 HD
ENDBRANCH  26  27
ENDBRANCH  18  20
ENDBRANCH  15  18
ENDBRANCH   7  15
TORSDOF 4
ENDMDL
