MODEL 1
REMARK VINA RESULT:      -8.3      0.000      0.000
REMARK  Name = 
REMARK  6 active torsions:
REMARK  status: ('A' for Active; 'I' for Inactive)
REMARK    1  A    between atoms: C_1  and  C_2
REMARK    2  A    between atoms: C_2  and  C_3
REMARK    3  A    between atoms: C_5  and  C_6
REMARK    4  A    between atoms: C_9  and  C_10
REMARK    5  A    between atoms: C_14  and  S_15
REMARK    6  A    between atoms: S_15  and  N_18
REMARK                            x       y       z     vdW  Elec       q    Type
REMARK                         _______ _______ _______ _____ _____    ______ ____
ROOT
ATOM      1  C   UNL     1       2.800   5.897  18.577  0.00  0.00    +0.000 A 
ATOM      2  C   UNL     1       2.257   4.600  18.565  0.00  0.00    +0.000 A 
ATOM      3  C   UNL     1       2.831   3.585  17.798  0.00  0.00    +0.000 A 
ATOM      4  C   UNL     1       3.931   3.863  16.992  0.00  0.00    +0.000 A 
ATOM      5  C   UNL     1       4.454   5.160  16.961  0.00  0.00    +0.000 A 
ATOM      6  C   UNL     1       3.926   6.162  17.784  0.00  0.00    +0.000 A 
ENDROOT
BRANCH   1  10
ATOM      7  C   UNL     1       1.415   8.855  19.887  0.00  0.00    +0.000 A 
ATOM      8  N   UNL     1       1.214   8.089  20.940  0.00  0.00    +0.000 NA
ATOM      9  N   UNL     1       1.692   6.840  20.621  0.00  0.00    +0.000 NA
ATOM     10  C   UNL     1       2.165   6.924  19.395  0.00  0.00    +0.000 A 
ATOM     11  O   UNL     1       2.010   8.175  18.854  0.00  0.00    +0.000 OA
BRANCH   7  16
ATOM     12  C   UNL     1      -0.808   9.946  18.022  0.00  0.00    +0.000 C 
ATOM     13  C   UNL     1      -0.078  10.862  18.971  0.00  0.00    +0.000 C 
ATOM     14  C   UNL     1      -0.952  11.930  19.584  0.00  0.00    +0.000 C 
ATOM     15  C   UNL     1       1.361  11.179  18.680  0.00  0.00    +0.000 C 
ATOM     16  C   UNL     1       1.025  10.324  19.882  0.00  0.00    +0.000 C 
ENDBRANCH   7  16
ENDBRANCH   1  10
BRANCH   5  17
ATOM     17  S   UNL     1       5.745   5.544  15.789  0.00  0.00    +0.000 S 
ATOM     18  O   UNL     1       5.960   4.359  14.988  0.00  0.00    +0.000 OA
ATOM     19  O   UNL     1       5.402   6.813  15.186  0.00  0.00    +0.000 OA
BRANCH  17  20
ATOM     20  N   UNL     1       7.107   5.811  16.747  0.00  0.00    +0.000 NA
ATOM     21  C   UNL     1       7.538   4.824  17.747  0.00  0.00    +0.000 C 
ATOM     22  C   UNL     1       7.653   5.615  19.038  0.00  0.00    +0.000 C 
ATOM     23  C   UNL     1       8.081   6.995  18.574  0.00  0.00    +0.000 C 
ATOM     24  C   UNL     1       7.407   7.179  17.215  0.00  0.00    +0.000 C 
ENDBRANCH  17  20
ENDBRANCH   5  17
TORSDOF 4
ENDMDL
MODEL 2
REMARK VINA RESULT:      -8.3      1.562      1.851
REMARK  Name = 
REMARK  6 active torsions:
REMARK  status: ('A' for Active; 'I' for Inactive)
REMARK    1  A    between atoms: C_1  and  C_2
REMARK    2  A    between atoms: C_2  and  C_3
REMARK    3  A    between atoms: C_5  and  C_6
REMARK    4  A    between atoms: C_9  and  C_10
REMARK    5  A    between atoms: C_14  and  S_15
REMARK    6  A    between atoms: S_15  and  N_18
REMARK                            x       y       z     vdW  Elec       q    Type
REMARK                         _______ _______ _______ _____ _____    ______ ____
ROOT
ATOM      1  C   UNL     1       2.883   6.496  17.904  0.00  0.00    +0.000 A 
ATOM      2  C   UNL     1       2.191   5.303  18.176  0.00  0.00    +0.000 A 
ATOM      3  C   UNL     1       2.727   4.061  17.830  0.00  0.00    +0.000 A 
ATOM      4  C   UNL     1       3.944   3.995  17.161  0.00  0.00    +0.000 A 
ATOM      5  C   UNL     1       4.623   5.177  16.843  0.00  0.00    +0.000 A 
ATOM      6  C   UNL     1       4.123   6.418  17.254  0.00  0.00    +0.000 A 
ENDROOT
BRANCH   1  10
ATOM      7  C   UNL     1       1.464   9.240  19.587  0.00  0.00    +0.000 A 
ATOM      8  N   UNL     1       1.393   9.731  18.367  0.00  0.00    +0.000 NA
ATOM      9  N   UNL     1       1.927   8.784  17.526  0.00  0.00    +0.000 NA
ATOM     10  C   UNL     1       2.282   7.768  18.285  0.00  0.00    +0.000 A 
ATOM     11  O   UNL     1       2.033   7.991  19.615  0.00  0.00    +0.000 OA
BRANCH   7  16
ATOM     12  C   UNL     1      -0.752   8.093  21.426  0.00  0.00    +0.000 C 
ATOM     13  C   UNL     1      -0.141   9.443  21.704  0.00  0.00    +0.000 C 
ATOM     14  C   UNL     1       0.035   9.744  23.173  0.00  0.00    +0.000 C 
ATOM     15  C   UNL     1      -0.461  10.571  20.764  0.00  0.00    +0.000 C 
ATOM     16  C   UNL     1       0.945  10.011  20.789  0.00  0.00    +0.000 C 
ENDBRANCH   7  16
ENDBRANCH   1  10
BRANCH   5  17
ATOM     17  S   UNL     1       6.088   5.086  15.828  0.00  0.00    +0.000 S 
ATOM     18  O   UNL     1       6.272   3.697  15.467  0.00  0.00    +0.000 OA
ATOM     19  O   UNL     1       5.967   6.118  14.822  0.00  0.00    +0.000 OA
BRANCH  17  20
ATOM     20  N   UNL     1       7.337   5.553  16.859  0.00  0.00    +0.000 NA
ATOM     21  C   UNL     1       7.696   4.744  18.033  0.00  0.00    +0.000 C 
ATOM     22  C   UNL     1       7.654   5.720  19.195  0.00  0.00    +0.000 C 
ATOM     23  C   UNL     1       8.083   7.036  18.573  0.00  0.00    +0.000 C 
ATOM     24  C   UNL     1       7.544   6.987  17.143  0.00  0.00    +0.000 C 
ENDBRANCH  17  20
ENDBRANCH   5  17
TORSDOF 4
ENDMDL
MODEL 3
REMARK VINA RESULT:      -7.6      1.562      1.989
REMARK  Name = 
REMARK  6 active torsions:
REMARK  status: ('A' for Active; 'I' for Inactive)
REMARK    1  A    between atoms: C_1  and  C_2
REMARK    2  A    between atoms: C_2  and  C_3
REMARK    3  A    between atoms: C_5  and  C_6
REMARK    4  A    between atoms: C_9  and  C_10
REMARK    5  A    between atoms: C_14  and  S_15
REMARK    6  A    between atoms: S_15  and  N_18
REMARK                            x       y       z     vdW  Elec       q    Type
REMARK                         _______ _______ _______ _____ _____    ______ ____
ROOT
ATOM      1  C   UNL     1       2.602   7.276  18.471  0.00  0.00    +0.000 A 
ATOM      2  C   UNL     1       2.242   6.205  19.309  0.00  0.00    +0.000 A 
ATOM      3  C   UNL     1       2.934   4.993  19.269  0.00  0.00    +0.000 A 
ATOM      4  C   UNL     1       3.967   4.816  18.355  0.00  0.00    +0.000 A 
ATOM      5  C   UNL     1       4.306   5.857  17.485  0.00  0.00    +0.000 A 
ATOM      6  C   UNL     1       3.663   7.098  17.572  0.00  0.00    +0.000 A 
ENDROOT
BRANCH   1  10
ATOM      7  C   UNL     1       0.584   9.999  19.416  0.00  0.00    +0.000 A 
ATOM      8  N   UNL     1       0.889  10.422  18.206  0.00  0.00    +0.000 NA
ATOM      9  N   UNL     1       1.711   9.472  17.648  0.00  0.00    +0.000 NA
ATOM     10  C   UNL     1       1.849   8.522  18.550  0.00  0.00    +0.000 A 
ATOM     11  O   UNL     1       1.172   8.794  19.711  0.00  0.00    +0.000 OA
BRANCH   7  16
ATOM     12  C   UNL     1       1.494  12.652  20.736  0.00  0.00    +0.000 C 
ATOM     13  C   UNL     1       0.109  12.107  20.975  0.00  0.00    +0.000 C 
ATOM     14  C   UNL     1      -0.961  13.170  21.064  0.00  0.00    +0.000 C 
ATOM     15  C   UNL     1      -0.027  10.866  21.811  0.00  0.00    +0.000 C 
ATOM     16  C   UNL     1      -0.334  10.793  20.331  0.00  0.00    +0.000 C 
ENDBRANCH   7  16
ENDBRANCH   1  10
BRANCH   5  17
ATOM     17  S   UNL     1       5.507   5.553  16.200  0.00  0.00    +0.000 S 
ATOM     18  O   UNL     1       5.429   4.148  15.866  0.00  0.00    +0.000 OA
ATOM     19  O   UNL     1       5.320   6.580  15.198  0.00  0.00    +0.000 OA
BRANCH  17  20
ATOM     20  N   UNL     1       6.991   5.857  16.939  0.00  0.00    +0.000 NA
ATOM     21  C   UNL     1       7.575   4.904  17.894  0.00  0.00    +0.000 C 
ATOM     22  C   UNL     1       7.868   5.733  19.131  0.00  0.00    +0.000 C 
ATOM     23  C   UNL     1       8.209   7.102  18.570  0.00  0.00    +0.000 C 
ATOM     24  C   UNL     1       7.342   7.241  17.319  0.00  0.00    +0.000 C 
ENDBRANCH  17  20
ENDBRANCH   5  17
TORSDOF 4
ENDMDL
MODEL 4
REMARK VINA RESULT:      -7.6      1.436      1.530
REMARK  Name = 
REMARK  6 active torsions:
REMARK  status: ('A' for Active; 'I' for Inactive)
REMARK    1  A    between atoms: C_1  and  C_2
REMARK    2  A    between atoms: C_2  and  C_3
REMARK    3  A    between atoms: C_5  and  C_6
REMARK    4  A    between atoms: C_9  and  C_10
REMARK    5  A    between atoms: C_14  and  S_15
REMARK    6  A    between atoms: S_15  and  N_18
REMARK                            x       y       z     vdW  Elec       q    Type
REMARK                         _______ _______ _______ _____ _____    ______ ____
ROOT
ATOM      1  C   UNL     1       2.852   6.907  17.942  0.00  0.00    +0.000 A 
ATOM      2  C   UNL     1       2.096   5.794  18.350  0.00  0.00    +0.000 A 
ATOM      3  C   UNL     1       2.542   4.492  18.114  0.00  0.00    +0.000 A 
ATOM      4  C   UNL     1       3.731   4.283  17.423  0.00  0.00    +0.000 A 
ATOM      5  C   UNL     1       4.470   5.382  16.972  0.00  0.00    +0.000 A 
ATOM      6  C   UNL     1       4.062   6.687  17.270  0.00  0.00    +0.000 A 
ENDROOT
BRANCH   1  10
ATOM      7  C   UNL     1       1.488   9.829  19.351  0.00  0.00    +0.000 A 
ATOM      8  N   UNL     1       1.683  10.299  18.135  0.00  0.00    +0.000 NA
ATOM      9  N   UNL     1       2.241   9.279  17.401  0.00  0.00    +0.000 NA
ATOM     10  C   UNL     1       2.343   8.247  18.212  0.00  0.00    +0.000 A 
ATOM     11  O   UNL     1       1.897   8.525  19.478  0.00  0.00    +0.000 OA
BRANCH   7  16
ATOM     12  C   UNL     1      -1.466  10.756  19.203  0.00  0.00    +0.000 C 
ATOM     13  C   UNL     1      -0.599  11.129  20.378  0.00  0.00    +0.000 C 
ATOM     14  C   UNL     1      -1.328  11.133  21.701  0.00  0.00    +0.000 C 
ATOM     15  C   UNL     1       0.506  12.121  20.154  0.00  0.00    +0.000 C 
ATOM     16  C   UNL     1       0.861  10.679  20.444  0.00  0.00    +0.000 C 
ENDBRANCH   7  16
ENDBRANCH   1  10
BRANCH   5  17
ATOM     17  S   UNL     1       5.893   5.097  15.932  0.00  0.00    +0.000 S 
ATOM     18  O   UNL     1       5.961   3.674  15.681  0.00  0.00    +0.000 OA
ATOM     19  O   UNL     1       5.820   6.054  14.848  0.00  0.00    +0.000 OA
BRANCH  17  20
ATOM     20  N   UNL     1       7.204   5.547  16.891  0.00  0.00    +0.000 NA
ATOM     21  C   UNL     1       7.599   4.749  18.061  0.00  0.00    +0.000 C 
ATOM     22  C   UNL     1       7.642   5.746  19.206  0.00  0.00    +0.000 C 
ATOM     23  C   UNL     1       8.076   7.038  18.537  0.00  0.00    +0.000 C 
ATOM     24  C   UNL     1       7.466   6.979  17.137  0.00  0.00    +0.000 C 
ENDBRANCH  17  20
ENDBRANCH   5  17
TORSDOF 4
ENDMDL
MODEL 5
REMARK VINA RESULT:      -7.6      3.353      5.028
REMARK  Name = 
REMARK  6 active torsions:
REMARK  status: ('A' for Active; 'I' for Inactive)
REMARK    1  A    between atoms: C_1  and  C_2
REMARK    2  A    between atoms: C_2  and  C_3
REMARK    3  A    between atoms: C_5  and  C_6
REMARK    4  A    between atoms: C_9  and  C_10
REMARK    5  A    between atoms: C_14  and  S_15
REMARK    6  A    between atoms: S_15  and  N_18
REMARK                            x       y       z     vdW  Elec       q    Type
REMARK                         _______ _______ _______ _____ _____    ______ ____
ROOT
ATOM      1  C   UNL     1       1.241   9.104  20.070  0.00  0.00    +0.000 A 
ATOM      2  C   UNL     1       1.393   9.945  18.953  0.00  0.00    +0.000 A 
ATOM      3  C   UNL     1       1.947   9.473  17.763  0.00  0.00    +0.000 A 
ATOM      4  C   UNL     1       2.405   8.161  17.685  0.00  0.00    +0.000 A 
ATOM      5  C   UNL     1       2.301   7.326  18.803  0.00  0.00    +0.000 A 
ATOM      6  C   UNL     1       1.680   7.775  19.974  0.00  0.00    +0.000 A 
ENDROOT
BRANCH   1  10
ATOM      7  C   UNL     1      -0.737  10.715  22.493  0.00  0.00    +0.000 A 
ATOM      8  N   UNL     1       0.185  10.245  23.308  0.00  0.00    +0.000 NA
ATOM      9  N   UNL     1       1.081   9.548  22.534  0.00  0.00    +0.000 NA
ATOM     10  C   UNL     1       0.656   9.644  21.291  0.00  0.00    +0.000 A 
ATOM     11  O   UNL     1      -0.508  10.362  21.186  0.00  0.00    +0.000 OA
BRANCH   7  16
ATOM     12  C   UNL     1      -1.924  13.028  20.804  0.00  0.00    +0.000 C 
ATOM     13  C   UNL     1      -2.487  12.697  22.163  0.00  0.00    +0.000 C 
ATOM     14  C   UNL     1      -3.987  12.845  22.257  0.00  0.00    +0.000 C 
ATOM     15  C   UNL     1      -1.649  13.009  23.370  0.00  0.00    +0.000 C 
ATOM     16  C   UNL     1      -1.893  11.563  22.998  0.00  0.00    +0.000 C 
ENDBRANCH   7  16
ENDBRANCH   1  10
BRANCH   5  17
ATOM     17  S   UNL     1       3.055   5.709  18.746  0.00  0.00    +0.000 S 
ATOM     18  O   UNL     1       3.537   5.510  17.396  0.00  0.00    +0.000 OA
ATOM     19  O   UNL     1       3.941   5.618  19.886  0.00  0.00    +0.000 OA
BRANCH  17  20
ATOM     20  N   UNL     1       1.779   4.646  19.033  0.00  0.00    +0.000 NA
ATOM     21  C   UNL     1       1.401   4.264  20.401  0.00  0.00    +0.000 C 
ATOM     22  C   UNL     1       1.406   2.746  20.388  0.00  0.00    +0.000 C 
ATOM     23  C   UNL     1       0.978   2.399  18.974  0.00  0.00    +0.000 C 
ATOM     24  C   UNL     1       1.550   3.520  18.106  0.00  0.00    +0.000 C 
ENDBRANCH  17  20
ENDBRANCH   5  17
TORSDOF 4
ENDMDL
MODEL 6
REMARK VINA RESULT:      -7.5      3.914      7.191
REMARK  Name = 
REMARK  6 active torsions:
REMARK  status: ('A' for Active; 'I' for Inactive)
REMARK    1  A    between atoms: C_1  and  C_2
REMARK    2  A    between atoms: C_2  and  C_3
REMARK    3  A    between atoms: C_5  and  C_6
REMARK    4  A    between atoms: C_9  and  C_10
REMARK    5  A    between atoms: C_14  and  S_15
REMARK    6  A    between atoms: S_15  and  N_18
REMARK                            x       y       z     vdW  Elec       q    Type
REMARK                         _______ _______ _______ _____ _____    ______ ____
ROOT
ATOM      1  C   UNL     1       8.022   7.966  18.168  0.00  0.00    +0.000 A 
ATOM      2  C   UNL     1       8.459   7.067  19.157  0.00  0.00    +0.000 A 
ATOM      3  C   UNL     1       8.077   5.725  19.133  0.00  0.00    +0.000 A 
ATOM      4  C   UNL     1       7.210   5.270  18.144  0.00  0.00    +0.000 A 
ATOM      5  C   UNL     1       6.732   6.164  17.181  0.00  0.00    +0.000 A 
ATOM      6  C   UNL     1       7.170   7.492  17.160  0.00  0.00    +0.000 A 
ENDROOT
BRANCH   1  10
ATOM      7  C   UNL     1       9.501  11.054  18.978  0.00  0.00    +0.000 A 
ATOM      8  N   UNL     1       8.761  11.476  17.973  0.00  0.00    +0.000 NA
ATOM      9  N   UNL     1       8.086  10.380  17.489  0.00  0.00    +0.000 NA
ATOM     10  C   UNL     1       8.449   9.358  18.237  0.00  0.00    +0.000 A 
ATOM     11  O   UNL     1       9.361   9.707  19.199  0.00  0.00    +0.000 OA
BRANCH   7  16
ATOM     12  C   UNL     1      11.828  12.622  17.661  0.00  0.00    +0.000 C 
ATOM     13  C   UNL     1      11.520  12.787  19.127  0.00  0.00    +0.000 C 
ATOM     14  C   UNL     1      11.702  14.196  19.637  0.00  0.00    +0.000 C 
ATOM     15  C   UNL     1      11.821  11.637  20.046  0.00  0.00    +0.000 C 
ATOM     16  C   UNL     1      10.378  12.004  19.777  0.00  0.00    +0.000 C 
ENDBRANCH   7  16
ENDBRANCH   1  10
BRANCH   5  17
ATOM     17  S   UNL     1       5.482   5.609  16.032  0.00  0.00    +0.000 S 
ATOM     18  O   UNL     1       5.170   6.726  15.168  0.00  0.00    +0.000 OA
ATOM     19  O   UNL     1       5.934   4.342  15.498  0.00  0.00    +0.000 OA
BRANCH  17  20
ATOM     20  N   UNL     1       4.144   5.278  17.004  0.00  0.00    +0.000 NA
ATOM     21  C   UNL     1       3.660   6.257  17.989  0.00  0.00    +0.000 C 
ATOM     22  C   UNL     1       3.601   5.486  19.295  0.00  0.00    +0.000 C 
ATOM     23  C   UNL     1       3.254   4.073  18.861  0.00  0.00    +0.000 C 
ATOM     24  C   UNL     1       3.930   3.904  17.500  0.00  0.00    +0.000 C 
ENDBRANCH  17  20
ENDBRANCH   5  17
TORSDOF 4
ENDMDL
MODEL 7
REMARK VINA RESULT:      -7.5      2.603      3.899
REMARK  Name = 
REMARK  6 active torsions:
REMARK  status: ('A' for Active; 'I' for Inactive)
REMARK    1  A    between atoms: C_1  and  C_2
REMARK    2  A    between atoms: C_2  and  C_3
REMARK    3  A    between atoms: C_5  and  C_6
REMARK    4  A    between atoms: C_9  and  C_10
REMARK    5  A    between atoms: C_14  and  S_15
REMARK    6  A    between atoms: S_15  and  N_18
REMARK                            x       y       z     vdW  Elec       q    Type
REMARK                         _______ _______ _______ _____ _____    ______ ____
ROOT
ATOM      1  C   UNL     1       2.745   6.987  18.792  0.00  0.00    +0.000 A 
ATOM      2  C   UNL     1       3.418   7.548  17.692  0.00  0.00    +0.000 A 
ATOM      3  C   UNL     1       4.217   6.765  16.858  0.00  0.00    +0.000 A 
ATOM      4  C   UNL     1       4.396   5.414  17.138  0.00  0.00    +0.000 A 
ATOM      5  C   UNL     1       3.768   4.852  18.255  0.00  0.00    +0.000 A 
ATOM      6  C   UNL     1       2.908   5.618  19.051  0.00  0.00    +0.000 A 
ENDROOT
BRANCH   1  10
ATOM      7  C   UNL     1       0.816   9.582  20.179  0.00  0.00    +0.000 A 
ATOM      8  N   UNL     1       0.758   8.757  21.204  0.00  0.00    +0.000 NA
ATOM      9  N   UNL     1       1.466   7.633  20.850  0.00  0.00    +0.000 NA
ATOM     10  C   UNL     1       1.922   7.846  19.634  0.00  0.00    +0.000 A 
ATOM     11  O   UNL     1       1.536   9.063  19.132  0.00  0.00    +0.000 OA
BRANCH   7  16
ATOM     12  C   UNL     1      -1.596  10.277  18.361  0.00  0.00    +0.000 C 
ATOM     13  C   UNL     1      -1.041  11.292  19.328  0.00  0.00    +0.000 C 
ATOM     14  C   UNL     1      -2.094  12.159  19.977  0.00  0.00    +0.000 C 
ATOM     15  C   UNL     1       0.308  11.883  19.036  0.00  0.00    +0.000 C 
ATOM     16  C   UNL     1       0.155  10.950  20.217  0.00  0.00    +0.000 C 
ENDBRANCH   7  16
ENDBRANCH   1  10
BRANCH   5  17
ATOM     17  S   UNL     1       4.151   3.167  18.705  0.00  0.00    +0.000 S 
ATOM     18  O   UNL     1       4.248   2.409  17.477  0.00  0.00    +0.000 OA
ATOM     19  O   UNL     1       5.247   3.223  19.648  0.00  0.00    +0.000 OA
BRANCH  17  20
ATOM     20  N   UNL     1       2.795   2.649  19.562  0.00  0.00    +0.000 NA
ATOM     21  C   UNL     1       1.442   2.799  19.007  0.00  0.00    +0.000 C 
ATOM     22  C   UNL     1       0.664   3.528  20.088  0.00  0.00    +0.000 C 
ATOM     23  C   UNL     1       1.295   3.031  21.377  0.00  0.00    +0.000 C 
ATOM     24  C   UNL     1       2.765   2.799  21.031  0.00  0.00    +0.000 C 
ENDBRANCH  17  20
ENDBRANCH   5  17
TORSDOF 4
ENDMDL
MODEL 8
REMARK VINA RESULT:      -7.5      0.774      1.113
REMARK  Name = 
REMARK  6 active torsions:
REMARK  status: ('A' for Active; 'I' for Inactive)
REMARK    1  A    between atoms: C_1  and  C_2
REMARK    2  A    between atoms: C_2  and  C_3
REMARK    3  A    between atoms: C_5  and  C_6
REMARK    4  A    between atoms: C_9  and  C_10
REMARK    5  A    between atoms: C_14  and  S_15
REMARK    6  A    between atoms: S_15  and  N_18
REMARK                            x       y       z     vdW  Elec       q    Type
REMARK                         _______ _______ _______ _____ _____    ______ ____
ROOT
ATOM      1  C   UNL     1       2.841   5.862  18.530  0.00  0.00    +0.000 A 
ATOM      2  C   UNL     1       2.264   4.580  18.496  0.00  0.00    +0.000 A 
ATOM      3  C   UNL     1       2.820   3.558  17.725  0.00  0.00    +0.000 A 
ATOM      4  C   UNL     1       3.937   3.816  16.936  0.00  0.00    +0.000 A 
ATOM      5  C   UNL     1       4.495   5.098  16.927  0.00  0.00    +0.000 A 
ATOM      6  C   UNL     1       3.984   6.105  17.754  0.00  0.00    +0.000 A 
ENDROOT
BRANCH   1  10
ATOM      7  C   UNL     1       1.378   8.797  19.806  0.00  0.00    +0.000 A 
ATOM      8  N   UNL     1       1.368   8.099  20.924  0.00  0.00    +0.000 NA
ATOM      9  N   UNL     1       1.907   6.870  20.629  0.00  0.00    +0.000 NA
ATOM     10  C   UNL     1       2.223   6.896  19.351  0.00  0.00    +0.000 A 
ATOM     11  O   UNL     1       1.902   8.088  18.753  0.00  0.00    +0.000 OA
BRANCH   7  16
ATOM     12  C   UNL     1      -0.389   9.983  22.060  0.00  0.00    +0.000 C 
ATOM     13  C   UNL     1       0.005  10.818  20.869  0.00  0.00    +0.000 C 
ATOM     14  C   UNL     1       0.289  12.264  21.202  0.00  0.00    +0.000 C 
ATOM     15  C   UNL     1      -0.607  10.485  19.538  0.00  0.00    +0.000 C 
ATOM     16  C   UNL     1       0.868  10.228  19.753  0.00  0.00    +0.000 C 
ENDBRANCH   7  16
ENDBRANCH   1  10
BRANCH   5  17
ATOM     17  S   UNL     1       5.811   5.459  15.776  0.00  0.00    +0.000 S 
ATOM     18  O   UNL     1       6.050   4.256  15.009  0.00  0.00    +0.000 OA
ATOM     19  O   UNL     1       5.476   6.712  15.134  0.00  0.00    +0.000 OA
BRANCH  17  20
ATOM     20  N   UNL     1       7.149   5.756  16.757  0.00  0.00    +0.000 NA
ATOM     21  C   UNL     1       7.557   4.801  17.797  0.00  0.00    +0.000 C 
ATOM     22  C   UNL     1       7.640   5.630  19.066  0.00  0.00    +0.000 C 
ATOM     23  C   UNL     1       8.079   6.996  18.571  0.00  0.00    +0.000 C 
ATOM     24  C   UNL     1       7.438   7.138  17.191  0.00  0.00    +0.000 C 
ENDBRANCH  17  20
ENDBRANCH   5  17
TORSDOF 4
ENDMDL
MODEL 9
REMARK VINA RESULT:      -7.5      2.778      4.324
REMARK  Name = 
REMARK  6 active torsions:
REMARK  status: ('A' for Active; 'I' for Inactive)
REMARK    1  A    between atoms: C_1  and  C_2
REMARK    2  A    between atoms: C_2  and  C_3
REMARK    3  A    between atoms: C_5  and  C_6
REMARK    4  A    between atoms: C_9  and  C_10
REMARK    5  A    between atoms: C_14  and  S_15
REMARK    6  A    between atoms: S_15  and  N_18
REMARK                            x       y       z     vdW  Elec       q    Type
REMARK                         _______ _______ _______ _____ _____    ______ ____
ROOT
ATOM      1  C   UNL     1       3.394   6.581  18.024  0.00  0.00    +0.000 A 
ATOM      2  C   UNL     1       4.780   6.724  17.836  0.00  0.00    +0.000 A 
ATOM      3  C   UNL     1       5.590   5.619  17.573  0.00  0.00    +0.000 A 
ATOM      4  C   UNL     1       5.034   4.344  17.542  0.00  0.00    +0.000 A 
ATOM      5  C   UNL     1       3.663   4.183  17.771  0.00  0.00    +0.000 A 
ATOM      6  C   UNL     1       2.837   5.296  17.963  0.00  0.00    +0.000 A 
ENDROOT
BRANCH   1  10
ATOM      7  C   UNL     1       1.170   8.984  19.316  0.00  0.00    +0.000 A 
ATOM      8  N   UNL     1       1.605   9.686  18.289  0.00  0.00    +0.000 NA
ATOM      9  N   UNL     1       2.527   8.903  17.634  0.00  0.00    +0.000 NA
ATOM     10  C   UNL     1       2.589   7.766  18.297  0.00  0.00    +0.000 A 
ATOM     11  O   UNL     1       1.764   7.748  19.391  0.00  0.00    +0.000 OA
BRANCH   7  16
ATOM     12  C   UNL     1       1.706   9.268  22.355  0.00  0.00    +0.000 C 
ATOM     13  C   UNL     1       0.382   9.679  21.764  0.00  0.00    +0.000 C 
ATOM     14  C   UNL     1      -0.217  10.910  22.400  0.00  0.00    +0.000 C 
ATOM     15  C   UNL     1      -0.535   8.598  21.266  0.00  0.00    +0.000 C 
ATOM     16  C   UNL     1       0.116   9.528  20.266  0.00  0.00    +0.000 C 
ENDBRANCH   7  16
ENDBRANCH   1  10
BRANCH   5  17
ATOM     17  S   UNL     1       2.998   2.532  17.909  0.00  0.00    +0.000 S 
ATOM     18  O   UNL     1       1.953   2.409  16.917  0.00  0.00    +0.000 OA
ATOM     19  O   UNL     1       4.126   1.625  17.935  0.00  0.00    +0.000 OA
BRANCH  17  20
ATOM     20  N   UNL     1       2.304   2.491  19.444  0.00  0.00    +0.000 NA
ATOM     21  C   UNL     1       0.916   2.923  19.662  0.00  0.00    +0.000 C 
ATOM     22  C   UNL     1       1.007   3.953  20.774  0.00  0.00    +0.000 C 
ATOM     23  C   UNL     1       2.170   3.464  21.618  0.00  0.00    +0.000 C 
ATOM     24  C   UNL     1       3.132   2.815  20.623  0.00  0.00    +0.000 C 
ENDBRANCH  17  20
ENDBRANCH   5  17
TORSDOF 4
ENDMDL
