MODEL 1
REMARK VINA RESULT:      -9.6      0.000      0.000
REMARK  Name = 
REMARK  6 active torsions:
REMARK  status: ('A' for Active; 'I' for Inactive)
REMARK    1  A    between atoms: C_2  and  C_3
REMARK    2  A    between atoms: C_6  and  N_7
REMARK    3  A    between atoms: N_16  and  C_17
REMARK    4  A    between atoms: N_16  and  C_24
REMARK    5  A    between atoms: C_17  and  C_18
REMARK    6  A    between atoms: C_24  and  C_25
REMARK                            x       y       z     vdW  Elec       q    Type
REMARK                         _______ _______ _______ _____ _____    ______ ____
ROOT
ATOM      1  O   UNL     1       6.712   6.834  17.102  0.00  0.00    +0.000 OA
ATOM      2  C   UNL     1       5.681   6.157  17.091  0.00  0.00    +0.000 C 
ATOM      3  N   UNL     1       5.680   4.846  16.572  0.00  0.00    +0.000 N 
ENDROOT
BRANCH   2   4
ATOM      4  C   UNL     1       4.465   6.791  17.715  0.00  0.00    +0.000 A 
ATOM      5  C   UNL     1       3.770   6.290  18.816  0.00  0.00    +0.000 A 
ATOM      6  C   UNL     1       2.727   7.012  19.413  0.00  0.00    +0.000 A 
ATOM      7  C   UNL     1       2.240   8.197  18.848  0.00  0.00    +0.000 A 
ATOM      8  C   UNL     1       2.867   8.639  17.674  0.00  0.00    +0.000 A 
ATOM      9  C   UNL     1       3.968   7.960  17.128  0.00  0.00    +0.000 A 
BRANCH   7  10
ATOM     10  N   UNL     1       1.137   8.887  19.435  0.00  0.00    +0.000 N 
ATOM     11  C   UNL     1       0.875   8.938  20.785  0.00  0.00    +0.000 C 
ATOM     12  O   UNL     1       1.531   8.489  21.718  0.00  0.00    +0.000 OA
ATOM     13  C   UNL     1      -0.395   9.696  21.020  0.00  0.00    +0.000 C 
ATOM     14  C   UNL     1      -0.883  10.060  19.642  0.00  0.00    +0.000 C 
ATOM     15  C   UNL     1       0.165   9.541  18.708  0.00  0.00    +0.000 C 
ATOM     16  O   UNL     1       0.065   9.668  17.495  0.00  0.00    +0.000 OA
ENDBRANCH   7  10
ENDBRANCH   2   4
BRANCH   3  17
ATOM     17  C   UNL     1       6.883   4.387  15.879  0.00  0.00    +0.000 C 
BRANCH  17  18
ATOM     18  C   UNL     1       6.822   4.443  14.369  0.00  0.00    +0.000 A 
ATOM     19  C   UNL     1       7.656   5.307  13.643  0.00  0.00    +0.000 A 
ATOM     20  C   UNL     1       7.730   5.225  12.250  0.00  0.00    +0.000 A 
ATOM     21  C   UNL     1       6.971   4.281  11.565  0.00  0.00    +0.000 A 
ATOM     22  C   UNL     1       6.107   3.444  12.268  0.00  0.00    +0.000 A 
ATOM     23  C   UNL     1       6.026   3.529  13.660  0.00  0.00    +0.000 A 
ENDBRANCH  17  18
ENDBRANCH   3  17
BRANCH   3  24
ATOM     24  C   UNL     1       4.491   4.022  16.457  0.00  0.00    +0.000 C 
BRANCH  24  25
ATOM     25  C   UNL     1       3.930   3.225  17.618  0.00  0.00    +0.000 A 
ATOM     26  N   UNL     1       2.649   3.185  17.782  0.00  0.00    +0.000 NA
ATOM     27  C   UNL     1       2.176   2.871  19.063  0.00  0.00    +0.000 A 
ATOM     28  C   UNL     1       0.834   3.128  19.343  0.00  0.00    +0.000 A 
ATOM     29  C   UNL     1       0.380   3.136  20.662  0.00  0.00    +0.000 A 
ATOM     30  C   UNL     1       1.262   2.855  21.708  0.00  0.00    +0.000 A 
ATOM     31  C   UNL     1       2.588   2.520  21.435  0.00  0.00    +0.000 A 
ATOM     32  C   UNL     1       3.034   2.530  20.111  0.00  0.00    +0.000 A 
ATOM     33  C   UNL     1       4.455   2.325  19.780  0.00  0.00    +0.000 A 
ATOM     34  O   UNL     1       5.248   1.827  20.569  0.00  0.00    +0.000 OA
ATOM     35  N   UNL     1       4.833   2.780  18.543  0.00  0.00    +0.000 N 
ATOM     36  H   UNL     1       5.823   2.758  18.335  0.00  0.00    +0.000 HD
ENDBRANCH  24  25
ENDBRANCH   3  24
TORSDOF 6
ENDMDL
MODEL 2
REMARK VINA RESULT:      -9.5      0.170      1.287
REMARK  Name = 
REMARK  6 active torsions:
REMARK  status: ('A' for Active; 'I' for Inactive)
REMARK    1  A    between atoms: C_2  and  C_3
REMARK    2  A    between atoms: C_6  and  N_7
REMARK    3  A    between atoms: N_16  and  C_17
REMARK    4  A    between atoms: N_16  and  C_24
REMARK    5  A    between atoms: C_17  and  C_18
REMARK    6  A    between atoms: C_24  and  C_25
REMARK                            x       y       z     vdW  Elec       q    Type
REMARK                         _______ _______ _______ _____ _____    ______ ____
ROOT
ATOM      1  O   UNL     1       6.638   6.881  17.019  0.00  0.00    +0.000 OA
ATOM      2  C   UNL     1       5.607   6.202  17.021  0.00  0.00    +0.000 C 
ATOM      3  N   UNL     1       5.609   4.880  16.534  0.00  0.00    +0.000 N 
ENDROOT
BRANCH   2   4
ATOM      4  C   UNL     1       4.389   6.851  17.624  0.00  0.00    +0.000 A 
ATOM      5  C   UNL     1       3.580   6.286  18.611  0.00  0.00    +0.000 A 
ATOM      6  C   UNL     1       2.541   7.012  19.210  0.00  0.00    +0.000 A 
ATOM      7  C   UNL     1       2.175   8.283  18.746  0.00  0.00    +0.000 A 
ATOM      8  C   UNL     1       2.917   8.801  17.675  0.00  0.00    +0.000 A 
ATOM      9  C   UNL     1       4.013   8.108  17.137  0.00  0.00    +0.000 A 
BRANCH   7  10
ATOM     10  N   UNL     1       1.075   8.982  19.328  0.00  0.00    +0.000 N 
ATOM     11  C   UNL     1       0.038   9.540  18.615  0.00  0.00    +0.000 C 
ATOM     12  O   UNL     1      -0.183   9.501  17.410  0.00  0.00    +0.000 OA
ATOM     13  C   UNL     1      -0.893  10.242  19.555  0.00  0.00    +0.000 C 
ATOM     14  C   UNL     1      -0.269  10.067  20.915  0.00  0.00    +0.000 C 
ATOM     15  C   UNL     1       0.948   9.229  20.678  0.00  0.00    +0.000 C 
ATOM     16  O   UNL     1       1.696   8.908  21.593  0.00  0.00    +0.000 OA
ENDBRANCH   7  10
ENDBRANCH   2   4
BRANCH   3  17
ATOM     17  C   UNL     1       6.815   4.404  15.856  0.00  0.00    +0.000 C 
BRANCH  17  18
ATOM     18  C   UNL     1       6.771   4.452  14.345  0.00  0.00    +0.000 A 
ATOM     19  C   UNL     1       7.587   5.338  13.625  0.00  0.00    +0.000 A 
ATOM     20  C   UNL     1       7.681   5.251  12.234  0.00  0.00    +0.000 A 
ATOM     21  C   UNL     1       6.960   4.279  11.545  0.00  0.00    +0.000 A 
ATOM     22  C   UNL     1       6.114   3.419  12.242  0.00  0.00    +0.000 A 
ATOM     23  C   UNL     1       6.013   3.509  13.632  0.00  0.00    +0.000 A 
ENDBRANCH  17  18
ENDBRANCH   3  17
BRANCH   3  24
ATOM     24  C   UNL     1       4.421   4.053  16.434  0.00  0.00    +0.000 C 
BRANCH  24  25
ATOM     25  C   UNL     1       3.879   3.252  17.600  0.00  0.00    +0.000 A 
ATOM     26  N   UNL     1       2.599   3.189  17.770  0.00  0.00    +0.000 NA
ATOM     27  C   UNL     1       2.137   2.873  19.054  0.00  0.00    +0.000 A 
ATOM     28  C   UNL     1       0.792   3.107  19.337  0.00  0.00    +0.000 A 
ATOM     29  C   UNL     1       0.342   3.113  20.658  0.00  0.00    +0.000 A 
ATOM     30  C   UNL     1       1.233   2.854  21.702  0.00  0.00    +0.000 A 
ATOM     31  C   UNL     1       2.564   2.542  21.426  0.00  0.00    +0.000 A 
ATOM     32  C   UNL     1       3.005   2.553  20.101  0.00  0.00    +0.000 A 
ATOM     33  C   UNL     1       4.428   2.373  19.765  0.00  0.00    +0.000 A 
ATOM     34  O   UNL     1       5.233   1.893  20.554  0.00  0.00    +0.000 OA
ATOM     35  N   UNL     1       4.794   2.828  18.524  0.00  0.00    +0.000 N 
ATOM     36  H   UNL     1       5.783   2.823  18.313  0.00  0.00    +0.000 HD
ENDBRANCH  24  25
ENDBRANCH   3  24
TORSDOF 6
ENDMDL
MODEL 3
REMARK VINA RESULT:      -9.1      0.581      1.511
REMARK  Name = 
REMARK  6 active torsions:
REMARK  status: ('A' for Active; 'I' for Inactive)
REMARK    1  A    between atoms: C_2  and  C_3
REMARK    2  A    between atoms: C_6  and  N_7
REMARK    3  A    between atoms: N_16  and  C_17
REMARK    4  A    between atoms: N_16  and  C_24
REMARK    5  A    between atoms: C_17  and  C_18
REMARK    6  A    between atoms: C_24  and  C_25
REMARK                            x       y       z     vdW  Elec       q    Type
REMARK                         _______ _______ _______ _____ _____    ______ ____
ROOT
ATOM      1  O   UNL     1       6.965   6.523  16.921  0.00  0.00    +0.000 OA
ATOM      2  C   UNL     1       5.892   5.916  16.953  0.00  0.00    +0.000 C 
ATOM      3  N   UNL     1       5.780   4.612  16.431  0.00  0.00    +0.000 N 
ENDROOT
BRANCH   2   4
ATOM      4  C   UNL     1       4.750   6.626  17.632  0.00  0.00    +0.000 A 
ATOM      5  C   UNL     1       4.053   7.716  17.109  0.00  0.00    +0.000 A 
ATOM      6  C   UNL     1       2.919   8.235  17.749  0.00  0.00    +0.000 A 
ATOM      7  C   UNL     1       2.519   7.779  19.012  0.00  0.00    +0.000 A 
ATOM      8  C   UNL     1       3.291   6.761  19.588  0.00  0.00    +0.000 A 
ATOM      9  C   UNL     1       4.374   6.183  18.905  0.00  0.00    +0.000 A 
BRANCH   7  10
ATOM     10  N   UNL     1       1.397   8.361  19.676  0.00  0.00    +0.000 N 
ATOM     11  C   UNL     1       0.808   9.552  19.319  0.00  0.00    +0.000 C 
ATOM     12  O   UNL     1       1.060  10.287  18.371  0.00  0.00    +0.000 OA
ATOM     13  C   UNL     1      -0.296   9.871  20.279  0.00  0.00    +0.000 C 
ATOM     14  C   UNL     1      -0.272   8.745  21.279  0.00  0.00    +0.000 C 
ATOM     15  C   UNL     1       0.803   7.822  20.798  0.00  0.00    +0.000 C 
ATOM     16  O   UNL     1       1.087   6.795  21.402  0.00  0.00    +0.000 OA
ENDBRANCH   7  10
ENDBRANCH   2   4
BRANCH   3  17
ATOM     17  C   UNL     1       6.919   4.077  15.684  0.00  0.00    +0.000 C 
BRANCH  17  18
ATOM     18  C   UNL     1       6.878   4.306  14.189  0.00  0.00    +0.000 A 
ATOM     19  C   UNL     1       7.687   5.280  13.585  0.00  0.00    +0.000 A 
ATOM     20  C   UNL     1       7.786   5.363  12.193  0.00  0.00    +0.000 A 
ATOM     21  C   UNL     1       7.076   4.475  11.389  0.00  0.00    +0.000 A 
ATOM     22  C   UNL     1       6.237   3.529  11.974  0.00  0.00    +0.000 A 
ATOM     23  C   UNL     1       6.132   3.450  13.365  0.00  0.00    +0.000 A 
ENDBRANCH  17  18
ENDBRANCH   3  17
BRANCH   3  24
ATOM     24  C   UNL     1       4.535   3.870  16.365  0.00  0.00    +0.000 C 
BRANCH  24  25
ATOM     25  C   UNL     1       3.956   3.134  17.556  0.00  0.00    +0.000 A 
ATOM     26  N   UNL     1       2.675   3.148  17.732  0.00  0.00    +0.000 NA
ATOM     27  C   UNL     1       2.202   2.895  19.026  0.00  0.00    +0.000 A 
ATOM     28  C   UNL     1       0.873   3.212  19.307  0.00  0.00    +0.000 A 
ATOM     29  C   UNL     1       0.431   3.281  20.629  0.00  0.00    +0.000 A 
ATOM     30  C   UNL     1       1.311   3.003  21.676  0.00  0.00    +0.000 A 
ATOM     31  C   UNL     1       2.622   2.609  21.405  0.00  0.00    +0.000 A 
ATOM     32  C   UNL     1       3.056   2.557  20.079  0.00  0.00    +0.000 A 
ATOM     33  C   UNL     1       4.466   2.288  19.744  0.00  0.00    +0.000 A 
ATOM     34  O   UNL     1       5.246   1.787  20.543  0.00  0.00    +0.000 OA
ATOM     35  N   UNL     1       4.849   2.687  18.489  0.00  0.00    +0.000 N 
ATOM     36  H   UNL     1       5.835   2.620  18.275  0.00  0.00    +0.000 HD
ENDBRANCH  24  25
ENDBRANCH   3  24
TORSDOF 6
ENDMDL
MODEL 4
REMARK VINA RESULT:      -8.7      3.726      6.598
REMARK  Name = 
REMARK  6 active torsions:
REMARK  status: ('A' for Active; 'I' for Inactive)
REMARK    1  A    between atoms: C_2  and  C_3
REMARK    2  A    between atoms: C_6  and  N_7
REMARK    3  A    between atoms: N_16  and  C_17
REMARK    4  A    between atoms: N_16  and  C_24
REMARK    5  A    between atoms: C_17  and  C_18
REMARK    6  A    between atoms: C_24  and  C_25
REMARK                            x       y       z     vdW  Elec       q    Type
REMARK                         _______ _______ _______ _____ _____    ______ ____
ROOT
ATOM      1  O   UNL     1       7.302   4.733  17.309  0.00  0.00    +0.000 OA
ATOM      2  C   UNL     1       6.638   5.773  17.337  0.00  0.00    +0.000 C 
ATOM      3  N   UNL     1       5.265   5.766  17.022  0.00  0.00    +0.000 N 
ENDROOT
BRANCH   2   4
ATOM      4  C   UNL     1       7.369   7.012  17.783  0.00  0.00    +0.000 A 
ATOM      5  C   UNL     1       7.279   8.265  17.175  0.00  0.00    +0.000 A 
ATOM      6  C   UNL     1       7.893   9.395  17.733  0.00  0.00    +0.000 A 
ATOM      7  C   UNL     1       8.741   9.294  18.843  0.00  0.00    +0.000 A 
ATOM      8  C   UNL     1       8.922   8.013  19.383  0.00  0.00    +0.000 A 
ATOM      9  C   UNL     1       8.236   6.897  18.876  0.00  0.00    +0.000 A 
BRANCH   7  10
ATOM     10  N   UNL     1       9.406  10.447  19.360  0.00  0.00    +0.000 N 
ATOM     11  C   UNL     1       9.260  10.924  20.642  0.00  0.00    +0.000 C 
ATOM     12  O   UNL     1       8.621  10.453  21.576  0.00  0.00    +0.000 OA
ATOM     13  C   UNL     1      10.061  12.180  20.802  0.00  0.00    +0.000 C 
ATOM     14  C   UNL     1      10.674  12.418  19.447  0.00  0.00    +0.000 C 
ATOM     15  C   UNL     1      10.236  11.255  18.613  0.00  0.00    +0.000 C 
ATOM     16  O   UNL     1      10.562  11.147  17.437  0.00  0.00    +0.000 OA
ENDBRANCH   7  10
ENDBRANCH   2   4
BRANCH   3  17
ATOM     17  C   UNL     1       4.696   4.531  16.481  0.00  0.00    +0.000 C 
BRANCH  17  18
ATOM     18  C   UNL     1       3.913   3.692  17.466  0.00  0.00    +0.000 A 
ATOM     19  C   UNL     1       4.472   3.311  18.695  0.00  0.00    +0.000 A 
ATOM     20  C   UNL     1       3.688   2.699  19.676  0.00  0.00    +0.000 A 
ATOM     21  C   UNL     1       2.337   2.459  19.441  0.00  0.00    +0.000 A 
ATOM     22  C   UNL     1       1.777   2.794  18.210  0.00  0.00    +0.000 A 
ATOM     23  C   UNL     1       2.562   3.400  17.225  0.00  0.00    +0.000 A 
ENDBRANCH  17  18
ENDBRANCH   3  17
BRANCH   3  24
ATOM     24  C   UNL     1       4.443   6.959  16.959  0.00  0.00    +0.000 C 
BRANCH  24  25
ATOM     25  C   UNL     1       3.252   7.183  17.868  0.00  0.00    +0.000 A 
ATOM     26  N   UNL     1       2.557   8.264  17.728  0.00  0.00    +0.000 NA
ATOM     27  C   UNL     1       1.793   8.683  18.825  0.00  0.00    +0.000 A 
ATOM     28  C   UNL     1       1.296   9.986  18.813  0.00  0.00    +0.000 A 
ATOM     29  C   UNL     1       0.806  10.563  19.985  0.00  0.00    +0.000 A 
ATOM     30  C   UNL     1       0.781   9.825  21.170  0.00  0.00    +0.000 A 
ATOM     31  C   UNL     1       1.202   8.495  21.177  0.00  0.00    +0.000 A 
ATOM     32  C   UNL     1       1.704   7.934  20.001  0.00  0.00    +0.000 A 
ATOM     33  C   UNL     1       2.295   6.584  19.987  0.00  0.00    +0.000 A 
ATOM     34  O   UNL     1       2.096   5.771  20.881  0.00  0.00    +0.000 OA
ATOM     35  N   UNL     1       3.123   6.325  18.925  0.00  0.00    +0.000 N 
ATOM     36  H   UNL     1       3.631   5.451  18.950  0.00  0.00    +0.000 HD
ENDBRANCH  24  25
ENDBRANCH   3  24
TORSDOF 6
ENDMDL
MODEL 5
REMARK VINA RESULT:      -8.6      3.478      9.647
REMARK  Name = 
REMARK  6 active torsions:
REMARK  status: ('A' for Active; 'I' for Inactive)
REMARK    1  A    between atoms: C_2  and  C_3
REMARK    2  A    between atoms: C_6  and  N_7
REMARK    3  A    between atoms: N_16  and  C_17
REMARK    4  A    between atoms: N_16  and  C_24
REMARK    5  A    between atoms: C_17  and  C_18
REMARK    6  A    between atoms: C_24  and  C_25
REMARK                            x       y       z     vdW  Elec       q    Type
REMARK                         _______ _______ _______ _____ _____    ______ ____
ROOT
ATOM      1  O   UNL     1       1.182   9.915  22.197  0.00  0.00    +0.000 OA
ATOM      2  C   UNL     1       1.052   9.919  20.970  0.00  0.00    +0.000 C 
ATOM      3  N   UNL     1       0.585  11.063  20.294  0.00  0.00    +0.000 N 
ENDROOT
BRANCH   2   4
ATOM      4  C   UNL     1       1.479   8.663  20.256  0.00  0.00    +0.000 A 
ATOM      5  C   UNL     1       1.899   8.595  18.927  0.00  0.00    +0.000 A 
ATOM      6  C   UNL     1       2.402   7.407  18.379  0.00  0.00    +0.000 A 
ATOM      7  C   UNL     1       2.374   6.202  19.092  0.00  0.00    +0.000 A 
ATOM      8  C   UNL     1       1.844   6.250  20.390  0.00  0.00    +0.000 A 
ATOM      9  C   UNL     1       1.421   7.459  20.967  0.00  0.00    +0.000 A 
BRANCH   7  10
ATOM     10  N   UNL     1       2.835   4.989  18.496  0.00  0.00    +0.000 N 
ATOM     11  C   UNL     1       2.071   4.172  17.695  0.00  0.00    +0.000 C 
ATOM     12  O   UNL     1       0.925   4.334  17.292  0.00  0.00    +0.000 OA
ATOM     13  C   UNL     1       2.869   2.966  17.307  0.00  0.00    +0.000 C 
ATOM     14  C   UNL     1       4.193   3.141  18.004  0.00  0.00    +0.000 C 
ATOM     15  C   UNL     1       4.093   4.463  18.699  0.00  0.00    +0.000 C 
ATOM     16  O   UNL     1       5.013   4.905  19.375  0.00  0.00    +0.000 OA
ENDBRANCH   7  10
ENDBRANCH   2   4
BRANCH   3  17
ATOM     17  C   UNL     1       0.081  12.174  21.102  0.00  0.00    +0.000 C 
BRANCH  17  18
ATOM     18  C   UNL     1       0.753  13.507  20.860  0.00  0.00    +0.000 A 
ATOM     19  C   UNL     1       2.150  13.632  20.901  0.00  0.00    +0.000 A 
ATOM     20  C   UNL     1       2.774  14.814  20.496  0.00  0.00    +0.000 A 
ATOM     21  C   UNL     1       2.010  15.888  20.047  0.00  0.00    +0.000 A 
ATOM     22  C   UNL     1       0.620  15.795  20.039  0.00  0.00    +0.000 A 
ATOM     23  C   UNL     1      -0.006  14.615  20.451  0.00  0.00    +0.000 A 
ENDBRANCH  17  18
ENDBRANCH   3  17
BRANCH   3  24
ATOM     24  C   UNL     1       0.335  11.114  18.866  0.00  0.00    +0.000 C 
BRANCH  24  25
ATOM     25  C   UNL     1      -1.054  11.279  18.282  0.00  0.00    +0.000 A 
ATOM     26  N   UNL     1      -1.902  12.035  18.899  0.00  0.00    +0.000 NA
ATOM     27  C   UNL     1      -3.261  11.817  18.643  0.00  0.00    +0.000 A 
ATOM     28  C   UNL     1      -4.188  12.388  19.515  0.00  0.00    +0.000 A 
ATOM     29  C   UNL     1      -5.517  11.961  19.506  0.00  0.00    +0.000 A 
ATOM     30  C   UNL     1      -5.932  10.982  18.602  0.00  0.00    +0.000 A 
ATOM     31  C   UNL     1      -5.032  10.460  17.672  0.00  0.00    +0.000 A 
ATOM     32  C   UNL     1      -3.702  10.884  17.701  0.00  0.00    +0.000 A 
ATOM     33  C   UNL     1      -2.681  10.261  16.840  0.00  0.00    +0.000 A 
ATOM     34  O   UNL     1      -2.970   9.596  15.854  0.00  0.00    +0.000 OA
ATOM     35  N   UNL     1      -1.386  10.440  17.254  0.00  0.00    +0.000 N 
ATOM     36  H   UNL     1      -0.674   9.929  16.749  0.00  0.00    +0.000 HD
ENDBRANCH  24  25
ENDBRANCH   3  24
TORSDOF 6
ENDMDL
MODEL 6
REMARK VINA RESULT:      -8.5      3.424      9.620
REMARK  Name = 
REMARK  6 active torsions:
REMARK  status: ('A' for Active; 'I' for Inactive)
REMARK    1  A    between atoms: C_2  and  C_3
REMARK    2  A    between atoms: C_6  and  N_7
REMARK    3  A    between atoms: N_16  and  C_17
REMARK    4  A    between atoms: N_16  and  C_24
REMARK    5  A    between atoms: C_17  and  C_18
REMARK    6  A    between atoms: C_24  and  C_25
REMARK                            x       y       z     vdW  Elec       q    Type
REMARK                         _______ _______ _______ _____ _____    ______ ____
ROOT
ATOM      1  O   UNL     1       1.536   9.545  22.042  0.00  0.00    +0.000 OA
ATOM      2  C   UNL     1       1.178   9.323  20.882  0.00  0.00    +0.000 C 
ATOM      3  N   UNL     1       0.465  10.290  20.146  0.00  0.00    +0.000 N 
ENDROOT
BRANCH   2   4
ATOM      4  C   UNL     1       1.604   8.000  20.300  0.00  0.00    +0.000 A 
ATOM      5  C   UNL     1       2.247   7.828  19.074  0.00  0.00    +0.000 A 
ATOM      6  C   UNL     1       2.723   6.574  18.667  0.00  0.00    +0.000 A 
ATOM      7  C   UNL     1       2.450   5.414  19.403  0.00  0.00    +0.000 A 
ATOM      8  C   UNL     1       1.702   5.574  20.578  0.00  0.00    +0.000 A 
ATOM      9  C   UNL     1       1.302   6.843  21.027  0.00  0.00    +0.000 A 
BRANCH   7  10
ATOM     10  N   UNL     1       2.891   4.137  18.942  0.00  0.00    +0.000 N 
ATOM     11  C   UNL     1       4.185   3.677  19.030  0.00  0.00    +0.000 C 
ATOM     12  O   UNL     1       5.160   4.204  19.552  0.00  0.00    +0.000 OA
ATOM     13  C   UNL     1       4.280   2.327  18.388  0.00  0.00    +0.000 C 
ATOM     14  C   UNL     1       2.893   2.050  17.871  0.00  0.00    +0.000 C 
ATOM     15  C   UNL     1       2.076   3.229  18.298  0.00  0.00    +0.000 C 
ATOM     16  O   UNL     1       0.886   3.321  18.024  0.00  0.00    +0.000 OA
ENDBRANCH   7  10
ENDBRANCH   2   4
BRANCH   3  17
ATOM     17  C   UNL     1      -0.001  11.481  20.857  0.00  0.00    +0.000 C 
BRANCH  17  18
ATOM     18  C   UNL     1       0.919  12.679  20.784  0.00  0.00    +0.000 A 
ATOM     19  C   UNL     1       1.906  12.774  19.791  0.00  0.00    +0.000 A 
ATOM     20  C   UNL     1       2.626  13.957  19.610  0.00  0.00    +0.000 A 
ATOM     21  C   UNL     1       2.370  15.060  20.421  0.00  0.00    +0.000 A 
ATOM     22  C   UNL     1       1.422  14.969  21.438  0.00  0.00    +0.000 A 
ATOM     23  C   UNL     1       0.707  13.783  21.624  0.00  0.00    +0.000 A 
ENDBRANCH  17  18
ENDBRANCH   3  17
BRANCH   3  24
ATOM     24  C   UNL     1      -0.053  10.069  18.809  0.00  0.00    +0.000 C 
BRANCH  24  25
ATOM     25  C   UNL     1      -1.228  10.843  18.247  0.00  0.00    +0.000 A 
ATOM     26  N   UNL     1      -1.992  11.493  19.064  0.00  0.00    +0.000 NA
ATOM     27  C   UNL     1      -3.289  11.793  18.628  0.00  0.00    +0.000 A 
ATOM     28  C   UNL     1      -4.218  12.202  19.584  0.00  0.00    +0.000 A 
ATOM     29  C   UNL     1      -5.580  12.212  19.281  0.00  0.00    +0.000 A 
ATOM     30  C   UNL     1      -6.017  11.843  18.007  0.00  0.00    +0.000 A 
ATOM     31  C   UNL     1      -5.090  11.508  17.018  0.00  0.00    +0.000 A 
ATOM     32  C   UNL     1      -3.731  11.487  17.338  0.00  0.00    +0.000 A 
ATOM     33  C   UNL     1      -2.726  11.002  16.377  0.00  0.00    +0.000 A 
ATOM     34  O   UNL     1      -2.956  10.903  15.179  0.00  0.00    +0.000 OA
ATOM     35  N   UNL     1      -1.530  10.622  16.932  0.00  0.00    +0.000 N 
ATOM     36  H   UNL     1      -0.864  10.179  16.313  0.00  0.00    +0.000 HD
ENDBRANCH  24  25
ENDBRANCH   3  24
TORSDOF 6
ENDMDL
MODEL 7
REMARK VINA RESULT:      -8.5      3.824      6.674
REMARK  Name = 
REMARK  6 active torsions:
REMARK  status: ('A' for Active; 'I' for Inactive)
REMARK    1  A    between atoms: C_2  and  C_3
REMARK    2  A    between atoms: C_6  and  N_7
REMARK    3  A    between atoms: N_16  and  C_17
REMARK    4  A    between atoms: N_16  and  C_24
REMARK    5  A    between atoms: C_17  and  C_18
REMARK    6  A    between atoms: C_24  and  C_25
REMARK                            x       y       z     vdW  Elec       q    Type
REMARK                         _______ _______ _______ _____ _____    ______ ____
ROOT
ATOM      1  O   UNL     1       7.553   4.839  17.329  0.00  0.00    +0.000 OA
ATOM      2  C   UNL     1       6.858   5.858  17.346  0.00  0.00    +0.000 C 
ATOM      3  N   UNL     1       5.489   5.808  17.017  0.00  0.00    +0.000 N 
ENDROOT
BRANCH   2   4
ATOM      4  C   UNL     1       7.545   7.121  17.795  0.00  0.00    +0.000 A 
ATOM      5  C   UNL     1       7.480   8.352  17.141  0.00  0.00    +0.000 A 
ATOM      6  C   UNL     1       8.045   9.508  17.698  0.00  0.00    +0.000 A 
ATOM      7  C   UNL     1       8.822   9.454  18.862  0.00  0.00    +0.000 A 
ATOM      8  C   UNL     1       8.983   8.194  19.455  0.00  0.00    +0.000 A 
ATOM      9  C   UNL     1       8.343   7.054  18.943  0.00  0.00    +0.000 A 
BRANCH   7  10
ATOM     10  N   UNL     1       9.441  10.632  19.380  0.00  0.00    +0.000 N 
ATOM     11  C   UNL     1      10.273  11.460  18.662  0.00  0.00    +0.000 C 
ATOM     12  O   UNL     1      10.586  11.405  17.479  0.00  0.00    +0.000 OA
ATOM     13  C   UNL     1      10.778  12.554  19.551  0.00  0.00    +0.000 C 
ATOM     14  C   UNL     1      10.177  12.259  20.901  0.00  0.00    +0.000 C 
ATOM     15  C   UNL     1       9.320  11.050  20.689  0.00  0.00    +0.000 C 
ATOM     16  O   UNL     1       8.689  10.541  21.606  0.00  0.00    +0.000 OA
ENDBRANCH   7  10
ENDBRANCH   2   4
BRANCH   3  17
ATOM     17  C   UNL     1       4.964   4.555  16.474  0.00  0.00    +0.000 C 
BRANCH  17  18
ATOM     18  C   UNL     1       4.134   3.731  17.434  0.00  0.00    +0.000 A 
ATOM     19  C   UNL     1       2.845   3.298  17.087  0.00  0.00    +0.000 A 
ATOM     20  C   UNL     1       2.157   2.387  17.892  0.00  0.00    +0.000 A 
ATOM     21  C   UNL     1       2.747   1.899  19.055  0.00  0.00    +0.000 A 
ATOM     22  C   UNL     1       4.009   2.351  19.434  0.00  0.00    +0.000 A 
ATOM     23  C   UNL     1       4.695   3.267  18.633  0.00  0.00    +0.000 A 
ENDBRANCH  17  18
ENDBRANCH   3  17
BRANCH   3  24
ATOM     24  C   UNL     1       4.631   6.976  16.940  0.00  0.00    +0.000 C 
BRANCH  24  25
ATOM     25  C   UNL     1       3.395   7.142  17.800  0.00  0.00    +0.000 A 
ATOM     26  N   UNL     1       2.668   8.201  17.647  0.00  0.00    +0.000 NA
ATOM     27  C   UNL     1       1.843   8.574  18.715  0.00  0.00    +0.000 A 
ATOM     28  C   UNL     1       1.302   9.859  18.702  0.00  0.00    +0.000 A 
ATOM     29  C   UNL     1       0.741  10.398  19.860  0.00  0.00    +0.000 A 
ATOM     30  C   UNL     1       0.692   9.641  21.032  0.00  0.00    +0.000 A 
ATOM     31  C   UNL     1       1.160   8.326  21.037  0.00  0.00    +0.000 A 
ATOM     32  C   UNL     1       1.732   7.803  19.875  0.00  0.00    +0.000 A 
ATOM     33  C   UNL     1       2.370   6.475  19.866  0.00  0.00    +0.000 A 
ATOM     34  O   UNL     1       2.162   5.641  20.738  0.00  0.00    +0.000 OA
ATOM     35  N   UNL     1       3.251   6.263  18.838  0.00  0.00    +0.000 N 
ATOM     36  H   UNL     1       3.789   5.406  18.871  0.00  0.00    +0.000 HD
ENDBRANCH  24  25
ENDBRANCH   3  24
TORSDOF 6
ENDMDL
MODEL 8
REMARK VINA RESULT:      -8.5      3.431      9.708
REMARK  Name = 
REMARK  6 active torsions:
REMARK  status: ('A' for Active; 'I' for Inactive)
REMARK    1  A    between atoms: C_2  and  C_3
REMARK    2  A    between atoms: C_6  and  N_7
REMARK    3  A    between atoms: N_16  and  C_17
REMARK    4  A    between atoms: N_16  and  C_24
REMARK    5  A    between atoms: C_17  and  C_18
REMARK    6  A    between atoms: C_24  and  C_25
REMARK                            x       y       z     vdW  Elec       q    Type
REMARK                         _______ _______ _______ _____ _____    ______ ____
ROOT
ATOM      1  O   UNL     1       1.250   9.670  22.276  0.00  0.00    +0.000 OA
ATOM      2  C   UNL     1       0.964   9.457  21.095  0.00  0.00    +0.000 C 
ATOM      3  N   UNL     1       0.256  10.411  20.337  0.00  0.00    +0.000 N 
ENDROOT
BRANCH   2   4
ATOM      4  C   UNL     1       1.467   8.161  20.516  0.00  0.00    +0.000 A 
ATOM      5  C   UNL     1       1.354   6.909  21.121  0.00  0.00    +0.000 A 
ATOM      6  C   UNL     1       1.735   5.736  20.454  0.00  0.00    +0.000 A 
ATOM      7  C   UNL     1       2.378   5.778  19.210  0.00  0.00    +0.000 A 
ATOM      8  C   UNL     1       2.596   7.047  18.656  0.00  0.00    +0.000 A 
ATOM      9  C   UNL     1       2.134   8.214  19.287  0.00  0.00    +0.000 A 
BRANCH   7  10
ATOM     10  N   UNL     1       2.814   4.577  18.573  0.00  0.00    +0.000 N 
ATOM     11  C   UNL     1       4.070   4.031  18.708  0.00  0.00    +0.000 C 
ATOM     12  O   UNL     1       5.002   4.400  19.413  0.00  0.00    +0.000 OA
ATOM     13  C   UNL     1       4.179   2.811  17.847  0.00  0.00    +0.000 C 
ATOM     14  C   UNL     1       2.847   2.713  17.150  0.00  0.00    +0.000 C 
ATOM     15  C   UNL     1       2.038   3.847  17.698  0.00  0.00    +0.000 C 
ATOM     16  O   UNL     1       0.891   4.057  17.325  0.00  0.00    +0.000 OA
ENDBRANCH   7  10
ENDBRANCH   2   4
BRANCH   3  17
ATOM     17  C   UNL     1      -0.290  11.572  21.040  0.00  0.00    +0.000 C 
BRANCH  17  18
ATOM     18  C   UNL     1       0.585  12.805  21.031  0.00  0.00    +0.000 A 
ATOM     19  C   UNL     1       0.246  13.938  21.786  0.00  0.00    +0.000 A 
ATOM     20  C   UNL     1       1.144  15.000  21.923  0.00  0.00    +0.000 A 
ATOM     21  C   UNL     1       2.391  14.943  21.307  0.00  0.00    +0.000 A 
ATOM     22  C   UNL     1       2.726  13.843  20.520  0.00  0.00    +0.000 A 
ATOM     23  C   UNL     1       1.827  12.784  20.376  0.00  0.00    +0.000 A 
ENDBRANCH  17  18
ENDBRANCH   3  17
BRANCH   3  24
ATOM     24  C   UNL     1      -0.181  10.196  18.970  0.00  0.00    +0.000 C 
BRANCH  24  25
ATOM     25  C   UNL     1      -1.350  10.939  18.357  0.00  0.00    +0.000 A 
ATOM     26  N   UNL     1      -2.164  11.570  19.139  0.00  0.00    +0.000 NA
ATOM     27  C   UNL     1      -3.448  11.837  18.647  0.00  0.00    +0.000 A 
ATOM     28  C   UNL     1      -4.428  12.223  19.561  0.00  0.00    +0.000 A 
ATOM     29  C   UNL     1      -5.776  12.199  19.200  0.00  0.00    +0.000 A 
ATOM     30  C   UNL     1      -6.147  11.818  17.909  0.00  0.00    +0.000 A 
ATOM     31  C   UNL     1      -5.171  11.505  16.962  0.00  0.00    +0.000 A 
ATOM     32  C   UNL     1      -3.827  11.519  17.340  0.00  0.00    +0.000 A 
ATOM     33  C   UNL     1      -2.769  11.059  16.424  0.00  0.00    +0.000 A 
ATOM     34  O   UNL     1      -2.945  10.953  15.217  0.00  0.00    +0.000 OA
ATOM     35  N   UNL     1      -1.589  10.710  17.030  0.00  0.00    +0.000 N 
ATOM     36  H   UNL     1      -0.886  10.283  16.441  0.00  0.00    +0.000 HD
ENDBRANCH  24  25
ENDBRANCH   3  24
TORSDOF 6
ENDMDL
MODEL 9
REMARK VINA RESULT:      -8.5      3.740      6.734
REMARK  Name = 
REMARK  6 active torsions:
REMARK  status: ('A' for Active; 'I' for Inactive)
REMARK    1  A    between atoms: C_2  and  C_3
REMARK    2  A    between atoms: C_6  and  N_7
REMARK    3  A    between atoms: N_16  and  C_17
REMARK    4  A    between atoms: N_16  and  C_24
REMARK    5  A    between atoms: C_17  and  C_18
REMARK    6  A    between atoms: C_24  and  C_25
REMARK                            x       y       z     vdW  Elec       q    Type
REMARK                         _______ _______ _______ _____ _____    ______ ____
ROOT
ATOM      1  O   UNL     1       7.076   5.665  15.822  0.00  0.00    +0.000 OA
ATOM      2  C   UNL     1       6.649   5.976  16.937  0.00  0.00    +0.000 C 
ATOM      3  N   UNL     1       5.598   5.255  17.538  0.00  0.00    +0.000 N 
ENDROOT
BRANCH   2   4
ATOM      4  C   UNL     1       7.357   7.116  17.622  0.00  0.00    +0.000 A 
ATOM      5  C   UNL     1       8.204   6.993  18.724  0.00  0.00    +0.000 A 
ATOM      6  C   UNL     1       8.923   8.090  19.219  0.00  0.00    +0.000 A 
ATOM      7  C   UNL     1       8.717   9.384  18.725  0.00  0.00    +0.000 A 
ATOM      8  C   UNL     1       7.777   9.522  17.694  0.00  0.00    +0.000 A 
ATOM      9  C   UNL     1       7.123   8.409  17.141  0.00  0.00    +0.000 A 
BRANCH   7  10
ATOM     10  N   UNL     1       9.413  10.498  19.284  0.00  0.00    +0.000 N 
ATOM     11  C   UNL     1      10.315  11.280  18.599  0.00  0.00    +0.000 C 
ATOM     12  O   UNL     1      10.641  11.233  17.418  0.00  0.00    +0.000 OA
ATOM     13  C   UNL     1      10.887  12.310  19.524  0.00  0.00    +0.000 C 
ATOM     14  C   UNL     1      10.246  12.025  20.857  0.00  0.00    +0.000 C 
ATOM     15  C   UNL     1       9.304  10.890  20.601  0.00  0.00    +0.000 C 
ATOM     16  O   UNL     1       8.624  10.405  21.496  0.00  0.00    +0.000 OA
ENDBRANCH   7  10
ENDBRANCH   2   4
BRANCH   3  17
ATOM     17  C   UNL     1       4.907   4.254  16.726  0.00  0.00    +0.000 C 
BRANCH  17  18
ATOM     18  C   UNL     1       3.781   3.521  17.421  0.00  0.00    +0.000 A 
ATOM     19  C   UNL     1       4.046   2.536  18.385  0.00  0.00    +0.000 A 
ATOM     20  C   UNL     1       3.014   1.996  19.156  0.00  0.00    +0.000 A 
ATOM     21  C   UNL     1       1.704   2.431  18.972  0.00  0.00    +0.000 A 
ATOM     22  C   UNL     1       1.419   3.377  17.990  0.00  0.00    +0.000 A 
ATOM     23  C   UNL     1       2.450   3.913  17.213  0.00  0.00    +0.000 A 
ENDBRANCH  17  18
ENDBRANCH   3  17
BRANCH   3  24
ATOM     24  C   UNL     1       4.995   5.611  18.809  0.00  0.00    +0.000 C 
BRANCH  24  25
ATOM     25  C   UNL     1       3.658   6.315  18.913  0.00  0.00    +0.000 A 
ATOM     26  N   UNL     1       3.377   7.245  18.059  0.00  0.00    +0.000 NA
ATOM     27  C   UNL     1       2.402   8.181  18.427  0.00  0.00    +0.000 A 
ATOM     28  C   UNL     1       2.310   9.353  17.677  0.00  0.00    +0.000 A 
ATOM     29  C   UNL     1       1.593  10.446  18.167  0.00  0.00    +0.000 A 
ATOM     30  C   UNL     1       0.938  10.359  19.397  0.00  0.00    +0.000 A 
ATOM     31  C   UNL     1       0.958   9.166  20.119  0.00  0.00    +0.000 A 
ATOM     32  C   UNL     1       1.691   8.084  19.626  0.00  0.00    +0.000 A 
ATOM     33  C   UNL     1       1.865   6.853  20.416  0.00  0.00    +0.000 A 
ATOM     34  O   UNL     1       1.143   6.573  21.364  0.00  0.00    +0.000 OA
ATOM     35  N   UNL     1       2.926   6.069  20.041  0.00  0.00    +0.000 N 
ATOM     36  H   UNL     1       3.138   5.279  20.636  0.00  0.00    +0.000 HD
ENDBRANCH  24  25
ENDBRANCH   3  24
TORSDOF 6
ENDMDL
