MODEL 1
REMARK VINA RESULT:      -9.4      0.000      0.000
REMARK  Name = 
REMARK  5 active torsions:
REMARK  status: ('A' for Active; 'I' for Inactive)
REMARK    1  A    between atoms: C_2  and  C_28
REMARK    2  A    between atoms: N_3  and  C_4
REMARK    3  A    between atoms: C_8  and  C_10
REMARK    4  A    between atoms: N_12  and  C_13
REMARK    5  A    between atoms: C_13  and  C_14
REMARK                            x       y       z     vdW  Elec       q    Type
REMARK                         _______ _______ _______ _____ _____    ______ ____
ROOT
ATOM      1  C   UNL     1       0.064  10.692  18.529  0.00  0.00    +0.000 C 
ATOM      2  C   UNL     1      -0.367  10.133  19.889  0.00  0.00    +0.000 C 
ATOM      3  C   UNL     1       0.816   9.509  20.625  0.00  0.00    +0.000 C 
ATOM      4  N   UNL     1       1.458   8.476  19.814  0.00  0.00    +0.000 N 
ATOM      5  C   UNL     1       1.703   7.231  20.413  0.00  0.00    +0.000 C 
ATOM      6  O   UNL     1       1.314   7.001  21.560  0.00  0.00    +0.000 OA
ATOM      7  C   UNL     1       1.838   8.889  18.460  0.00  0.00    +0.000 C 
ATOM      8  C   UNL     1       0.692   9.559  17.713  0.00  0.00    +0.000 C 
ENDROOT
BRANCH   5   9
ATOM      9  C   UNL     1       2.381   6.176  19.655  0.00  0.00    +0.000 A 
ATOM     10  C   UNL     1       3.589   6.246  18.982  0.00  0.00    +0.000 A 
ATOM     11  N   UNL     1       3.782   5.072  18.300  0.00  0.00    +0.000 N 
ATOM     12  C   UNL     1       2.839   4.144  18.690  0.00  0.00    +0.000 A 
ATOM     13  C   UNL     1       2.675   2.787  18.368  0.00  0.00    +0.000 A 
ATOM     14  C   UNL     1       1.598   2.094  18.929  0.00  0.00    +0.000 A 
ATOM     15  C   UNL     1       0.707   2.730  19.784  0.00  0.00    +0.000 A 
ATOM     16  C   UNL     1       0.868   4.084  20.091  0.00  0.00    +0.000 A 
ATOM     17  C   UNL     1       1.951   4.810  19.545  0.00  0.00    +0.000 A 
BRANCH  11  18
ATOM     18  C   UNL     1       4.866   4.862  17.344  0.00  0.00    +0.000 C 
BRANCH  18  19
ATOM     19  C   UNL     1       6.088   5.672  17.711  0.00  0.00    +0.000 A 
ATOM     20  C   UNL     1       6.924   5.284  18.770  0.00  0.00    +0.000 A 
ATOM     21  C   UNL     1       8.013   6.075  19.143  0.00  0.00    +0.000 A 
ATOM     22  C   UNL     1       8.281   7.261  18.463  0.00  0.00    +0.000 A 
ATOM     23  C   UNL     1       7.473   7.649  17.400  0.00  0.00    +0.000 A 
ATOM     24  C   UNL     1       6.387   6.858  17.023  0.00  0.00    +0.000 A 
ENDBRANCH  18  19
ENDBRANCH  11  18
ENDBRANCH   5   9
BRANCH   1  27
ATOM     25  O   UNL     1      -0.623  13.431  18.314  0.00  0.00    +0.000 OA
ATOM     26  C   UNL     1       0.542  13.122  18.514  0.00  0.00    +0.000 C 
ATOM     27  N   UNL     1       0.975  11.826  18.681  0.00  0.00    +0.000 N 
ATOM     28  H   UNL     1       1.889  11.669  19.087  0.00  0.00    +0.000 HD
BRANCH  26  29
ATOM     29  C   UNL     1       1.581  14.184  18.559  0.00  0.00    +0.000 A 
ATOM     30  C   UNL     1       2.913  13.795  18.416  0.00  0.00    +0.000 A 
ATOM     31  C   UNL     1       3.889  14.760  18.561  0.00  0.00    +0.000 A 
ATOM     32  N   UNL     1       3.623  16.056  18.834  0.00  0.00    +0.000 NA
ATOM     33  C   UNL     1       2.325  16.402  18.973  0.00  0.00    +0.000 A 
ATOM     34  C   UNL     1       1.272  15.514  18.842  0.00  0.00    +0.000 A 
ENDBRANCH  26  29
ENDBRANCH   1  27
TORSDOF 5
ENDMDL
MODEL 2
REMARK VINA RESULT:      -9.2      0.170      1.182
REMARK  Name = 
REMARK  5 active torsions:
REMARK  status: ('A' for Active; 'I' for Inactive)
REMARK    1  A    between atoms: C_2  and  C_28
REMARK    2  A    between atoms: N_3  and  C_4
REMARK    3  A    between atoms: C_8  and  C_10
REMARK    4  A    between atoms: N_12  and  C_13
REMARK    5  A    between atoms: C_13  and  C_14
REMARK                            x       y       z     vdW  Elec       q    Type
REMARK                         _______ _______ _______ _____ _____    ______ ____
ROOT
ATOM      1  C   UNL     1       0.043  10.754  18.585  0.00  0.00    +0.000 C 
ATOM      2  C   UNL     1      -0.425  10.181  19.926  0.00  0.00    +0.000 C 
ATOM      3  C   UNL     1       0.739   9.552  20.689  0.00  0.00    +0.000 C 
ATOM      4  N   UNL     1       1.405   8.528  19.887  0.00  0.00    +0.000 N 
ATOM      5  C   UNL     1       1.635   7.277  20.480  0.00  0.00    +0.000 C 
ATOM      6  O   UNL     1       1.215   7.035  21.613  0.00  0.00    +0.000 OA
ATOM      7  C   UNL     1       1.822   8.955  18.548  0.00  0.00    +0.000 C 
ATOM      8  C   UNL     1       0.696   9.630  17.776  0.00  0.00    +0.000 C 
ENDROOT
BRANCH   5   9
ATOM      9  C   UNL     1       2.336   6.231  19.731  0.00  0.00    +0.000 A 
ATOM     10  C   UNL     1       3.558   6.313  19.085  0.00  0.00    +0.000 A 
ATOM     11  N   UNL     1       3.773   5.144  18.400  0.00  0.00    +0.000 N 
ATOM     12  C   UNL     1       2.828   4.208  18.765  0.00  0.00    +0.000 A 
ATOM     13  C   UNL     1       2.680   2.851  18.432  0.00  0.00    +0.000 A 
ATOM     14  C   UNL     1       1.596   2.148  18.965  0.00  0.00    +0.000 A 
ATOM     15  C   UNL     1       0.682   2.774  19.805  0.00  0.00    +0.000 A 
ATOM     16  C   UNL     1       0.828   4.127  20.122  0.00  0.00    +0.000 A 
ATOM     17  C   UNL     1       1.918   4.863  19.604  0.00  0.00    +0.000 A 
BRANCH  11  18
ATOM     18  C   UNL     1       4.879   4.946  17.467  0.00  0.00    +0.000 C 
BRANCH  18  19
ATOM     19  C   UNL     1       6.061   5.818  17.821  0.00  0.00    +0.000 A 
ATOM     20  C   UNL     1       6.347   6.983  17.092  0.00  0.00    +0.000 A 
ATOM     21  C   UNL     1       7.480   7.746  17.386  0.00  0.00    +0.000 A 
ATOM     22  C   UNL     1       8.340   7.355  18.410  0.00  0.00    +0.000 A 
ATOM     23  C   UNL     1       8.059   6.213  19.153  0.00  0.00    +0.000 A 
ATOM     24  C   UNL     1       6.926   5.453  18.864  0.00  0.00    +0.000 A 
ENDBRANCH  18  19
ENDBRANCH  11  18
ENDBRANCH   5   9
BRANCH   1  27
ATOM     25  O   UNL     1      -0.568  13.478  18.110  0.00  0.00    +0.000 OA
ATOM     26  C   UNL     1       0.560  13.174  18.471  0.00  0.00    +0.000 C 
ATOM     27  N   UNL     1       0.948  11.888  18.774  0.00  0.00    +0.000 N 
ATOM     28  H   UNL     1       1.803  11.750  19.298  0.00  0.00    +0.000 HD
BRANCH  26  29
ATOM     29  C   UNL     1       1.603  14.228  18.574  0.00  0.00    +0.000 A 
ATOM     30  C   UNL     1       1.201  15.502  18.973  0.00  0.00    +0.000 A 
ATOM     31  C   UNL     1       2.144  16.510  18.970  0.00  0.00    +0.000 A 
ATOM     32  N   UNL     1       3.430  16.327  18.601  0.00  0.00    +0.000 NA
ATOM     33  C   UNL     1       3.790  15.084  18.215  0.00  0.00    +0.000 A 
ATOM     34  C   UNL     1       2.924  14.005  18.187  0.00  0.00    +0.000 A 
ENDBRANCH  26  29
ENDBRANCH   1  27
TORSDOF 5
ENDMDL
MODEL 3
REMARK VINA RESULT:      -8.9      1.199      1.884
REMARK  Name = 
REMARK  5 active torsions:
REMARK  status: ('A' for Active; 'I' for Inactive)
REMARK    1  A    between atoms: C_2  and  C_28
REMARK    2  A    between atoms: N_3  and  C_4
REMARK    3  A    between atoms: C_8  and  C_10
REMARK    4  A    between atoms: N_12  and  C_13
REMARK    5  A    between atoms: C_13  and  C_14
REMARK                            x       y       z     vdW  Elec       q    Type
REMARK                         _______ _______ _______ _____ _____    ______ ____
ROOT
ATOM      1  C   UNL     1       0.466  10.253  18.204  0.00  0.00    +0.000 C 
ATOM      2  C   UNL     1      -0.169   9.754  19.506  0.00  0.00    +0.000 C 
ATOM      3  C   UNL     1       0.890   9.190  20.451  0.00  0.00    +0.000 C 
ATOM      4  N   UNL     1       1.664   8.132  19.806  0.00  0.00    +0.000 N 
ATOM      5  C   UNL     1       1.824   6.922  20.500  0.00  0.00    +0.000 C 
ATOM      6  O   UNL     1       1.261   6.741  21.582  0.00  0.00    +0.000 OA
ATOM      7  C   UNL     1       2.248   8.484  18.509  0.00  0.00    +0.000 C 
ATOM      8  C   UNL     1       1.228   9.094  17.558  0.00  0.00    +0.000 C 
ENDROOT
BRANCH   5   9
ATOM      9  C   UNL     1       2.626   5.844  19.914  0.00  0.00    +0.000 A 
ATOM     10  C   UNL     1       3.988   5.824  19.673  0.00  0.00    +0.000 A 
ATOM     11  N   UNL     1       4.299   4.674  18.993  0.00  0.00    +0.000 N 
ATOM     12  C   UNL     1       3.208   3.830  18.980  0.00  0.00    +0.000 A 
ATOM     13  C   UNL     1       3.050   2.516  18.510  0.00  0.00    +0.000 A 
ATOM     14  C   UNL     1       1.796   1.910  18.635  0.00  0.00    +0.000 A 
ATOM     15  C   UNL     1       0.729   2.589  19.208  0.00  0.00    +0.000 A 
ATOM     16  C   UNL     1       0.890   3.900  19.664  0.00  0.00    +0.000 A 
ATOM     17  C   UNL     1       2.146   4.538  19.557  0.00  0.00    +0.000 A 
BRANCH  11  18
ATOM     18  C   UNL     1       5.616   4.404  18.422  0.00  0.00    +0.000 C 
BRANCH  18  19
ATOM     19  C   UNL     1       5.626   4.633  16.928  0.00  0.00    +0.000 A 
ATOM     20  C   UNL     1       5.971   3.603  16.039  0.00  0.00    +0.000 A 
ATOM     21  C   UNL     1       6.041   3.843  14.664  0.00  0.00    +0.000 A 
ATOM     22  C   UNL     1       5.769   5.114  14.162  0.00  0.00    +0.000 A 
ATOM     23  C   UNL     1       5.408   6.140  15.029  0.00  0.00    +0.000 A 
ATOM     24  C   UNL     1       5.332   5.900  16.401  0.00  0.00    +0.000 A 
ENDBRANCH  18  19
ENDBRANCH  11  18
ENDBRANCH   5   9
BRANCH   1  27
ATOM     25  O   UNL     1      -0.361  12.959  18.326  0.00  0.00    +0.000 OA
ATOM     26  C   UNL     1       0.827  12.693  18.437  0.00  0.00    +0.000 C 
ATOM     27  N   UNL     1       1.329  11.411  18.439  0.00  0.00    +0.000 N 
ATOM     28  H   UNL     1       2.269  11.259  18.782  0.00  0.00    +0.000 HD
BRANCH  26  29
ATOM     29  C   UNL     1       1.816  13.797  18.551  0.00  0.00    +0.000 A 
ATOM     30  C   UNL     1       1.341  15.059  18.908  0.00  0.00    +0.000 A 
ATOM     31  C   UNL     1       2.235  16.110  18.914  0.00  0.00    +0.000 A 
ATOM     32  N   UNL     1       3.540  15.981  18.593  0.00  0.00    +0.000 NA
ATOM     33  C   UNL     1       3.971  14.749  18.246  0.00  0.00    +0.000 A 
ATOM     34  C   UNL     1       3.159  13.629  18.213  0.00  0.00    +0.000 A 
ENDBRANCH  26  29
ENDBRANCH   1  27
TORSDOF 5
ENDMDL
MODEL 4
REMARK VINA RESULT:      -8.8      0.894      1.004
REMARK  Name = 
REMARK  5 active torsions:
REMARK  status: ('A' for Active; 'I' for Inactive)
REMARK    1  A    between atoms: C_2  and  C_28
REMARK    2  A    between atoms: N_3  and  C_4
REMARK    3  A    between atoms: C_8  and  C_10
REMARK    4  A    between atoms: N_12  and  C_13
REMARK    5  A    between atoms: C_13  and  C_14
REMARK                            x       y       z     vdW  Elec       q    Type
REMARK                         _______ _______ _______ _____ _____    ______ ____
ROOT
ATOM      1  C   UNL     1       0.858  10.253  18.188  0.00  0.00    +0.000 C 
ATOM      2  C   UNL     1       0.122   9.728  19.424  0.00  0.00    +0.000 C 
ATOM      3  C   UNL     1       1.090   9.055  20.394  0.00  0.00    +0.000 C 
ATOM      4  N   UNL     1       1.839   7.986  19.737  0.00  0.00    +0.000 N 
ATOM      5  C   UNL     1       1.891   6.736  20.374  0.00  0.00    +0.000 C 
ATOM      6  O   UNL     1       1.257   6.535  21.411  0.00  0.00    +0.000 OA
ATOM      7  C   UNL     1       2.517   8.367  18.495  0.00  0.00    +0.000 C 
ATOM      8  C   UNL     1       1.589   9.084  17.523  0.00  0.00    +0.000 C 
ENDROOT
BRANCH   5   9
ATOM      9  C   UNL     1       2.663   5.644  19.776  0.00  0.00    +0.000 A 
ATOM     10  C   UNL     1       4.026   5.587  19.540  0.00  0.00    +0.000 A 
ATOM     11  N   UNL     1       4.305   4.438  18.844  0.00  0.00    +0.000 N 
ATOM     12  C   UNL     1       3.190   3.626  18.817  0.00  0.00    +0.000 A 
ATOM     13  C   UNL     1       2.996   2.323  18.328  0.00  0.00    +0.000 A 
ATOM     14  C   UNL     1       1.725   1.753  18.439  0.00  0.00    +0.000 A 
ATOM     15  C   UNL     1       0.675   2.455  19.019  0.00  0.00    +0.000 A 
ATOM     16  C   UNL     1       0.872   3.755  19.492  0.00  0.00    +0.000 A 
ATOM     17  C   UNL     1       2.147   4.357  19.399  0.00  0.00    +0.000 A 
BRANCH  11  18
ATOM     18  C   UNL     1       5.616   4.137  18.275  0.00  0.00    +0.000 C 
BRANCH  18  19
ATOM     19  C   UNL     1       6.437   5.392  18.089  0.00  0.00    +0.000 A 
ATOM     20  C   UNL     1       7.517   5.683  18.939  0.00  0.00    +0.000 A 
ATOM     21  C   UNL     1       8.228   6.878  18.800  0.00  0.00    +0.000 A 
ATOM     22  C   UNL     1       7.870   7.794  17.813  0.00  0.00    +0.000 A 
ATOM     23  C   UNL     1       6.815   7.510  16.953  0.00  0.00    +0.000 A 
ATOM     24  C   UNL     1       6.106   6.316  17.087  0.00  0.00    +0.000 A 
ENDBRANCH  18  19
ENDBRANCH  11  18
ENDBRANCH   5   9
BRANCH   1  27
ATOM     25  O   UNL     1       0.146  12.965  18.587  0.00  0.00    +0.000 OA
ATOM     26  C   UNL     1       1.322  12.639  18.661  0.00  0.00    +0.000 C 
ATOM     27  N   UNL     1       1.770  11.344  18.531  0.00  0.00    +0.000 N 
ATOM     28  H   UNL     1       2.704  11.119  18.850  0.00  0.00    +0.000 HD
BRANCH  26  29
ATOM     29  C   UNL     1       2.356  13.684  18.879  0.00  0.00    +0.000 A 
ATOM     30  C   UNL     1       2.815  13.882  20.180  0.00  0.00    +0.000 A 
ATOM     31  C   UNL     1       3.697  14.920  20.406  0.00  0.00    +0.000 A 
ATOM     32  N   UNL     1       4.136  15.750  19.436  0.00  0.00    +0.000 NA
ATOM     33  C   UNL     1       3.671  15.539  18.186  0.00  0.00    +0.000 A 
ATOM     34  C   UNL     1       2.789  14.525  17.853  0.00  0.00    +0.000 A 
ENDBRANCH  26  29
ENDBRANCH   1  27
TORSDOF 5
ENDMDL
MODEL 5
REMARK VINA RESULT:      -8.0      4.093      8.951
REMARK  Name = 
REMARK  5 active torsions:
REMARK  status: ('A' for Active; 'I' for Inactive)
REMARK    1  A    between atoms: C_2  and  C_28
REMARK    2  A    between atoms: N_3  and  C_4
REMARK    3  A    between atoms: C_8  and  C_10
REMARK    4  A    between atoms: N_12  and  C_13
REMARK    5  A    between atoms: C_13  and  C_14
REMARK                            x       y       z     vdW  Elec       q    Type
REMARK                         _______ _______ _______ _____ _____    ______ ____
ROOT
ATOM      1  C   UNL     1       6.575   5.812  14.982  0.00  0.00    +0.000 C 
ATOM      2  C   UNL     1       7.523   5.604  16.167  0.00  0.00    +0.000 C 
ATOM      3  C   UNL     1       6.982   4.544  17.123  0.00  0.00    +0.000 C 
ATOM      4  N   UNL     1       5.636   4.882  17.581  0.00  0.00    +0.000 N 
ATOM      5  C   UNL     1       5.383   4.833  18.961  0.00  0.00    +0.000 C 
ATOM      6  O   UNL     1       6.292   4.588  19.757  0.00  0.00    +0.000 OA
ATOM      7  C   UNL     1       4.669   5.180  16.521  0.00  0.00    +0.000 C 
ATOM      8  C   UNL     1       5.196   6.201  15.523  0.00  0.00    +0.000 C 
ENDROOT
BRANCH   5   9
ATOM      9  C   UNL     1       4.039   5.124  19.468  0.00  0.00    +0.000 A 
ATOM     10  C   UNL     1       3.504   6.350  19.823  0.00  0.00    +0.000 A 
ATOM     11  N   UNL     1       2.262   6.149  20.370  0.00  0.00    +0.000 N 
ATOM     12  C   UNL     1       1.874   4.840  20.174  0.00  0.00    +0.000 A 
ATOM     13  C   UNL     1       0.668   4.173  20.451  0.00  0.00    +0.000 A 
ATOM     14  C   UNL     1       0.572   2.814  20.138  0.00  0.00    +0.000 A 
ATOM     15  C   UNL     1       1.641   2.135  19.567  0.00  0.00    +0.000 A 
ATOM     16  C   UNL     1       2.841   2.801  19.305  0.00  0.00    +0.000 A 
ATOM     17  C   UNL     1       2.968   4.177  19.605  0.00  0.00    +0.000 A 
BRANCH  11  18
ATOM     18  C   UNL     1       1.482   7.202  21.014  0.00  0.00    +0.000 C 
BRANCH  18  19
ATOM     19  C   UNL     1       1.374   8.425  20.132  0.00  0.00    +0.000 A 
ATOM     20  C   UNL     1       0.830   9.624  20.619  0.00  0.00    +0.000 A 
ATOM     21  C   UNL     1       0.674  10.728  19.777  0.00  0.00    +0.000 A 
ATOM     22  C   UNL     1       1.058  10.647  18.440  0.00  0.00    +0.000 A 
ATOM     23  C   UNL     1       1.615   9.471  17.948  0.00  0.00    +0.000 A 
ATOM     24  C   UNL     1       1.776   8.370  18.789  0.00  0.00    +0.000 A 
ENDBRANCH  18  19
ENDBRANCH  11  18
ENDBRANCH   5   9
BRANCH   1  27
ATOM     25  O   UNL     1       7.732   5.530  12.413  0.00  0.00    +0.000 OA
ATOM     26  C   UNL     1       7.077   4.608  12.877  0.00  0.00    +0.000 C 
ATOM     27  N   UNL     1       6.512   4.623  14.132  0.00  0.00    +0.000 N 
ATOM     28  H   UNL     1       6.208   3.747  14.537  0.00  0.00    +0.000 HD
BRANCH  26  29
ATOM     29  C   UNL     1       6.837   3.395  12.051  0.00  0.00    +0.000 A 
ATOM     30  C   UNL     1       5.533   2.908  11.979  0.00  0.00    +0.000 A 
ATOM     31  C   UNL     1       5.320   1.724  11.301  0.00  0.00    +0.000 A 
ATOM     32  N   UNL     1       6.305   1.017  10.707  0.00  0.00    +0.000 NA
ATOM     33  C   UNL     1       7.559   1.511  10.797  0.00  0.00    +0.000 A 
ATOM     34  C   UNL     1       7.878   2.689  11.448  0.00  0.00    +0.000 A 
ENDBRANCH  26  29
ENDBRANCH   1  27
TORSDOF 5
ENDMDL
MODEL 6
REMARK VINA RESULT:      -7.9      1.150      1.697
REMARK  Name = 
REMARK  5 active torsions:
REMARK  status: ('A' for Active; 'I' for Inactive)
REMARK    1  A    between atoms: C_2  and  C_28
REMARK    2  A    between atoms: N_3  and  C_4
REMARK    3  A    between atoms: C_8  and  C_10
REMARK    4  A    between atoms: N_12  and  C_13
REMARK    5  A    between atoms: C_13  and  C_14
REMARK                            x       y       z     vdW  Elec       q    Type
REMARK                         _______ _______ _______ _____ _____    ______ ____
ROOT
ATOM      1  C   UNL     1       0.066  10.959  18.602  0.00  0.00    +0.000 C 
ATOM      2  C   UNL     1      -0.194  10.516  20.045  0.00  0.00    +0.000 C 
ATOM      3  C   UNL     1       1.027   9.807  20.628  0.00  0.00    +0.000 C 
ATOM      4  N   UNL     1       1.429   8.675  19.796  0.00  0.00    +0.000 N 
ATOM      5  C   UNL     1       1.645   7.441  20.430  0.00  0.00    +0.000 C 
ATOM      6  O   UNL     1       1.425   7.309  21.635  0.00  0.00    +0.000 OA
ATOM      7  C   UNL     1       1.623   8.978  18.376  0.00  0.00    +0.000 C 
ATOM      8  C   UNL     1       0.443   9.727  17.773  0.00  0.00    +0.000 C 
ENDROOT
BRANCH   5   9
ATOM      9  C   UNL     1       2.088   6.285  19.646  0.00  0.00    +0.000 A 
ATOM     10  C   UNL     1       2.818   6.276  18.470  0.00  0.00    +0.000 A 
ATOM     11  N   UNL     1       2.896   4.987  18.009  0.00  0.00    +0.000 N 
ATOM     12  C   UNL     1       2.431   4.118  18.973  0.00  0.00    +0.000 A 
ATOM     13  C   UNL     1       2.399   2.714  19.028  0.00  0.00    +0.000 A 
ATOM     14  C   UNL     1       1.849   2.104  20.159  0.00  0.00    +0.000 A 
ATOM     15  C   UNL     1       1.344   2.864  21.206  0.00  0.00    +0.000 A 
ATOM     16  C   UNL     1       1.368   4.259  21.141  0.00  0.00    +0.000 A 
ATOM     17  C   UNL     1       1.923   4.906  20.013  0.00  0.00    +0.000 A 
BRANCH  11  18
ATOM     18  C   UNL     1       3.442   4.628  16.703  0.00  0.00    +0.000 C 
BRANCH  18  19
ATOM     19  C   UNL     1       4.952   4.688  16.701  0.00  0.00    +0.000 A 
ATOM     20  C   UNL     1       5.672   4.775  15.499  0.00  0.00    +0.000 A 
ATOM     21  C   UNL     1       7.070   4.764  15.505  0.00  0.00    +0.000 A 
ATOM     22  C   UNL     1       7.763   4.666  16.709  0.00  0.00    +0.000 A 
ATOM     23  C   UNL     1       7.062   4.598  17.909  0.00  0.00    +0.000 A 
ATOM     24  C   UNL     1       5.668   4.614  17.906  0.00  0.00    +0.000 A 
ENDBRANCH  18  19
ENDBRANCH  11  18
ENDBRANCH   5   9
BRANCH   1  27
ATOM     25  O   UNL     1      -0.288  13.704  19.200  0.00  0.00    +0.000 OA
ATOM     26  C   UNL     1       0.803  13.314  18.810  0.00  0.00    +0.000 C 
ATOM     27  N   UNL     1       1.094  11.997  18.537  0.00  0.00    +0.000 N 
ATOM     28  H   UNL     1       2.065  11.720  18.465  0.00  0.00    +0.000 HD
BRANCH  26  29
ATOM     29  C   UNL     1       1.892  14.300  18.582  0.00  0.00    +0.000 A 
ATOM     30  C   UNL     1       1.549  15.651  18.558  0.00  0.00    +0.000 A 
ATOM     31  C   UNL     1       2.535  16.565  18.243  0.00  0.00    +0.000 A 
ATOM     32  N   UNL     1       3.809  16.219  17.958  0.00  0.00    +0.000 NA
ATOM     33  C   UNL     1       4.111  14.903  17.984  0.00  0.00    +0.000 A 
ATOM     34  C   UNL     1       3.199  13.908  18.292  0.00  0.00    +0.000 A 
ENDBRANCH  26  29
ENDBRANCH   1  27
TORSDOF 5
ENDMDL
MODEL 7
REMARK VINA RESULT:      -7.9      1.503      1.934
REMARK  Name = 
REMARK  5 active torsions:
REMARK  status: ('A' for Active; 'I' for Inactive)
REMARK    1  A    between atoms: C_2  and  C_28
REMARK    2  A    between atoms: N_3  and  C_4
REMARK    3  A    between atoms: C_8  and  C_10
REMARK    4  A    between atoms: N_12  and  C_13
REMARK    5  A    between atoms: C_13  and  C_14
REMARK                            x       y       z     vdW  Elec       q    Type
REMARK                         _______ _______ _______ _____ _____    ______ ____
ROOT
ATOM      1  C   UNL     1      -0.894  11.509  19.469  0.00  0.00    +0.000 C 
ATOM      2  C   UNL     1      -0.902  10.868  20.860  0.00  0.00    +0.000 C 
ATOM      3  C   UNL     1       0.490  10.373  21.244  0.00  0.00    +0.000 C 
ATOM      4  N   UNL     1       1.018   9.448  20.243  0.00  0.00    +0.000 N 
ATOM      5  C   UNL     1       1.542   8.227  20.693  0.00  0.00    +0.000 C 
ATOM      6  O   UNL     1       1.484   7.921  21.886  0.00  0.00    +0.000 OA
ATOM      7  C   UNL     1       0.994   9.938  18.862  0.00  0.00    +0.000 C 
ATOM      8  C   UNL     1      -0.370  10.483  18.461  0.00  0.00    +0.000 C 
ENDROOT
BRANCH   5   9
ATOM      9  C   UNL     1       2.120   7.282  19.733  0.00  0.00    +0.000 A 
ATOM     10  C   UNL     1       3.028   7.538  18.720  0.00  0.00    +0.000 A 
ATOM     11  N   UNL     1       3.196   6.396  17.979  0.00  0.00    +0.000 N 
ATOM     12  C   UNL     1       2.594   5.332  18.619  0.00  0.00    +0.000 A 
ATOM     13  C   UNL     1       2.572   3.958  18.327  0.00  0.00    +0.000 A 
ATOM     14  C   UNL     1       1.857   3.108  19.176  0.00  0.00    +0.000 A 
ATOM     15  C   UNL     1       1.182   3.606  20.283  0.00  0.00    +0.000 A 
ATOM     16  C   UNL     1       1.198   4.976  20.561  0.00  0.00    +0.000 A 
ATOM     17  C   UNL     1       1.916   5.860  19.725  0.00  0.00    +0.000 A 
BRANCH  11  18
ATOM     18  C   UNL     1       3.948   6.347  16.728  0.00  0.00    +0.000 C 
BRANCH  18  19
ATOM     19  C   UNL     1       5.319   5.746  16.932  0.00  0.00    +0.000 A 
ATOM     20  C   UNL     1       5.874   4.870  15.986  0.00  0.00    +0.000 A 
ATOM     21  C   UNL     1       7.114   4.268  16.215  0.00  0.00    +0.000 A 
ATOM     22  C   UNL     1       7.813   4.533  17.391  0.00  0.00    +0.000 A 
ATOM     23  C   UNL     1       7.283   5.413  18.329  0.00  0.00    +0.000 A 
ATOM     24  C   UNL     1       6.048   6.019  18.100  0.00  0.00    +0.000 A 
ENDBRANCH  18  19
ENDBRANCH  11  18
ENDBRANCH   5   9
BRANCH   1  27
ATOM     25  O   UNL     1      -1.815  14.094  20.171  0.00  0.00    +0.000 OA
ATOM     26  C   UNL     1      -0.667  13.957  19.775  0.00  0.00    +0.000 C 
ATOM     27  N   UNL     1      -0.106  12.742  19.453  0.00  0.00    +0.000 N 
ATOM     28  H   UNL     1       0.902  12.678  19.379  0.00  0.00    +0.000 HD
BRANCH  26  29
ATOM     29  C   UNL     1       0.191  15.157  19.594  0.00  0.00    +0.000 A 
ATOM     30  C   UNL     1      -0.148  16.051  18.578  0.00  0.00    +0.000 A 
ATOM     31  C   UNL     1       0.702  17.111  18.337  0.00  0.00    +0.000 A 
ATOM     32  N   UNL     1       1.841  17.326  19.030  0.00  0.00    +0.000 NA
ATOM     33  C   UNL     1       2.147  16.443  20.004  0.00  0.00    +0.000 A 
ATOM     34  C   UNL     1       1.361  15.351  20.329  0.00  0.00    +0.000 A 
ENDBRANCH  26  29
ENDBRANCH   1  27
TORSDOF 5
ENDMDL
MODEL 8
REMARK VINA RESULT:      -7.9      1.521      1.793
REMARK  Name = 
REMARK  5 active torsions:
REMARK  status: ('A' for Active; 'I' for Inactive)
REMARK    1  A    between atoms: C_2  and  C_28
REMARK    2  A    between atoms: N_3  and  C_4
REMARK    3  A    between atoms: C_8  and  C_10
REMARK    4  A    between atoms: N_12  and  C_13
REMARK    5  A    between atoms: C_13  and  C_14
REMARK                            x       y       z     vdW  Elec       q    Type
REMARK                         _______ _______ _______ _____ _____    ______ ____
ROOT
ATOM      1  C   UNL     1      -1.002  11.537  19.141  0.00  0.00    +0.000 C 
ATOM      2  C   UNL     1      -0.967  11.010  20.578  0.00  0.00    +0.000 C 
ATOM      3  C   UNL     1       0.444  10.575  20.968  0.00  0.00    +0.000 C 
ATOM      4  N   UNL     1       0.969   9.583  20.032  0.00  0.00    +0.000 N 
ATOM      5  C   UNL     1       1.529   8.412  20.566  0.00  0.00    +0.000 C 
ATOM      6  O   UNL     1       1.504   8.202  21.780  0.00  0.00    +0.000 OA
ATOM      7  C   UNL     1       0.905   9.959  18.618  0.00  0.00    +0.000 C 
ATOM      8  C   UNL     1      -0.479  10.443  18.206  0.00  0.00    +0.000 C 
ENDROOT
BRANCH   5   9
ATOM      9  C   UNL     1       2.106   7.404  19.672  0.00  0.00    +0.000 A 
ATOM     10  C   UNL     1       3.060   7.580  18.685  0.00  0.00    +0.000 A 
ATOM     11  N   UNL     1       3.212   6.400  18.002  0.00  0.00    +0.000 N 
ATOM     12  C   UNL     1       2.546   5.390  18.663  0.00  0.00    +0.000 A 
ATOM     13  C   UNL     1       2.482   4.005  18.431  0.00  0.00    +0.000 A 
ATOM     14  C   UNL     1       1.704   3.221  19.287  0.00  0.00    +0.000 A 
ATOM     15  C   UNL     1       1.007   3.794  20.344  0.00  0.00    +0.000 A 
ATOM     16  C   UNL     1       1.065   5.173  20.563  0.00  0.00    +0.000 A 
ATOM     17  C   UNL     1       1.848   5.992  19.718  0.00  0.00    +0.000 A 
BRANCH  11  18
ATOM     18  C   UNL     1       4.007   6.268  16.784  0.00  0.00    +0.000 C 
BRANCH  18  19
ATOM     19  C   UNL     1       5.334   5.600  17.063  0.00  0.00    +0.000 A 
ATOM     20  C   UNL     1       5.909   5.638  18.343  0.00  0.00    +0.000 A 
ATOM     21  C   UNL     1       7.167   5.074  18.575  0.00  0.00    +0.000 A 
ATOM     22  C   UNL     1       7.863   4.468  17.532  0.00  0.00    +0.000 A 
ATOM     23  C   UNL     1       7.298   4.407  16.263  0.00  0.00    +0.000 A 
ATOM     24  C   UNL     1       6.040   4.965  16.031  0.00  0.00    +0.000 A 
ENDBRANCH  18  19
ENDBRANCH  11  18
ENDBRANCH   5   9
BRANCH   1  27
ATOM     25  O   UNL     1      -1.765  14.081  20.124  0.00  0.00    +0.000 OA
ATOM     26  C   UNL     1      -0.727  13.974  19.489  0.00  0.00    +0.000 C 
ATOM     27  N   UNL     1      -0.241  12.780  19.007  0.00  0.00    +0.000 N 
ATOM     28  H   UNL     1       0.728  12.731  18.718  0.00  0.00    +0.000 HD
BRANCH  26  29
ATOM     29  C   UNL     1       0.068  15.191  19.179  0.00  0.00    +0.000 A 
ATOM     30  C   UNL     1       1.318  15.322  19.783  0.00  0.00    +0.000 A 
ATOM     31  C   UNL     1       2.015  16.496  19.583  0.00  0.00    +0.000 A 
ATOM     32  N   UNL     1       1.552  17.521  18.836  0.00  0.00    +0.000 NA
ATOM     33  C   UNL     1       0.336  17.369  18.267  0.00  0.00    +0.000 A 
ATOM     34  C   UNL     1      -0.441  16.232  18.401  0.00  0.00    +0.000 A 
ENDBRANCH  26  29
ENDBRANCH   1  27
TORSDOF 5
ENDMDL
MODEL 9
REMARK VINA RESULT:      -7.8      4.737     10.710
REMARK  Name = 
REMARK  5 active torsions:
REMARK  status: ('A' for Active; 'I' for Inactive)
REMARK    1  A    between atoms: C_2  and  C_28
REMARK    2  A    between atoms: N_3  and  C_4
REMARK    3  A    between atoms: C_8  and  C_10
REMARK    4  A    between atoms: N_12  and  C_13
REMARK    5  A    between atoms: C_13  and  C_14
REMARK                            x       y       z     vdW  Elec       q    Type
REMARK                         _______ _______ _______ _____ _____    ______ ____
ROOT
ATOM      1  C   UNL     1       0.873  10.298  18.320  0.00  0.00    +0.000 C 
ATOM      2  C   UNL     1       1.401  11.568  18.994  0.00  0.00    +0.000 C 
ATOM      3  C   UNL     1       0.830  11.719  20.402  0.00  0.00    +0.000 C 
ATOM      4  N   UNL     1      -0.631  11.704  20.385  0.00  0.00    +0.000 N 
ATOM      5  C   UNL     1      -1.305  12.725  21.073  0.00  0.00    +0.000 C 
ATOM      6  O   UNL     1      -0.676  13.642  21.605  0.00  0.00    +0.000 OA
ATOM      7  C   UNL     1      -1.238  10.566  19.689  0.00  0.00    +0.000 C 
ATOM      8  C   UNL     1      -0.657  10.358  18.297  0.00  0.00    +0.000 C 
ENDROOT
BRANCH   5   9
ATOM      9  C   UNL     1      -2.769  12.731  21.120  0.00  0.00    +0.000 A 
ATOM     10  C   UNL     1      -3.661  12.696  20.061  0.00  0.00    +0.000 A 
ATOM     11  N   UNL     1      -4.933  12.852  20.550  0.00  0.00    +0.000 N 
ATOM     12  C   UNL     1      -4.918  12.761  21.926  0.00  0.00    +0.000 A 
ATOM     13  C   UNL     1      -5.957  12.752  22.872  0.00  0.00    +0.000 A 
ATOM     14  C   UNL     1      -5.625  12.650  24.226  0.00  0.00    +0.000 A 
ATOM     15  C   UNL     1      -4.298  12.561  24.631  0.00  0.00    +0.000 A 
ATOM     16  C   UNL     1      -3.269  12.583  23.686  0.00  0.00    +0.000 A 
ATOM     17  C   UNL     1      -3.574  12.679  22.309  0.00  0.00    +0.000 A 
BRANCH  11  18
ATOM     18  C   UNL     1      -6.107  13.039  19.701  0.00  0.00    +0.000 C 
BRANCH  18  19
ATOM     19  C   UNL     1      -6.245  14.478  19.261  0.00  0.00    +0.000 A 
ATOM     20  C   UNL     1      -6.776  14.802  18.002  0.00  0.00    +0.000 A 
ATOM     21  C   UNL     1      -6.839  16.133  17.579  0.00  0.00    +0.000 A 
ATOM     22  C   UNL     1      -6.373  17.152  18.406  0.00  0.00    +0.000 A 
ATOM     23  C   UNL     1      -5.862  16.847  19.663  0.00  0.00    +0.000 A 
ATOM     24  C   UNL     1      -5.803  15.520  20.090  0.00  0.00    +0.000 A 
ENDBRANCH  18  19
ENDBRANCH  11  18
ENDBRANCH   5   9
BRANCH   1  27
ATOM     25  O   UNL     1       2.691   8.410  17.248  0.00  0.00    +0.000 OA
ATOM     26  C   UNL     1       2.217   8.218  18.358  0.00  0.00    +0.000 C 
ATOM     27  N   UNL     1       1.362   9.093  18.990  0.00  0.00    +0.000 N 
ATOM     28  H   UNL     1       1.215   8.993  19.986  0.00  0.00    +0.000 HD
BRANCH  26  29
ATOM     29  C   UNL     1       2.541   6.961  19.084  0.00  0.00    +0.000 A 
ATOM     30  C   UNL     1       3.552   6.154  18.563  0.00  0.00    +0.000 A 
ATOM     31  C   UNL     1       3.787   4.937  19.170  0.00  0.00    +0.000 A 
ATOM     32  N   UNL     1       3.092   4.490  20.238  0.00  0.00    +0.000 NA
ATOM     33  C   UNL     1       2.116   5.290  20.718  0.00  0.00    +0.000 A 
ATOM     34  C   UNL     1       1.804   6.529  20.186  0.00  0.00    +0.000 A 
ENDBRANCH  26  29
ENDBRANCH   1  27
TORSDOF 5
ENDMDL
