MODEL 1
REMARK VINA RESULT:      -9.2      0.000      0.000
REMARK  Name = 
REMARK  4 active torsions:
REMARK  status: ('A' for Active; 'I' for Inactive)
REMARK    1  A    between atoms: C_1  and  C_2
REMARK    2  A    between atoms: C_4  and  C_5
REMARK    3  A    between atoms: C_12  and  C_13
REMARK    4  A    between atoms: N_15  and  C_16
REMARK                            x       y       z     vdW  Elec       q    Type
REMARK                         _______ _______ _______ _____ _____    ______ ____
ROOT
ATOM      1  C   UNL     1       6.587   3.633  13.367  0.00  0.00    +0.000 C 
ATOM      2  C   UNL     1       5.967   4.303  14.535  0.00  0.00    +0.000 A 
ATOM      3  C   UNL     1       5.851   5.683  14.778  0.00  0.00    +0.000 A 
ATOM      4  C   UNL     1       5.187   5.791  15.982  0.00  0.00    +0.000 A 
ATOM      5  C   UNL     1       4.840   6.998  16.767  0.00  0.00    +0.000 C 
ATOM      6  N   UNL     1       4.885   4.496  16.375  0.00  0.00    +0.000 N 
ATOM      7  C   UNL     1       4.105   4.081  17.505  0.00  0.00    +0.000 A 
ATOM      8  C   UNL     1       3.963   2.715  17.736  0.00  0.00    +0.000 A 
ATOM      9  C   UNL     1       3.231   2.298  18.841  0.00  0.00    +0.000 A 
ATOM     10  C   UNL     1       2.616   3.240  19.671  0.00  0.00    +0.000 A 
ATOM     11 CL   UNL     1       1.732   2.600  21.006  0.00  0.00    +0.000 Cl
ATOM     12  C   UNL     1       2.755   4.596  19.352  0.00  0.00    +0.000 A 
ATOM     13  N   UNL     1       3.511   5.027  18.294  0.00  0.00    +0.000 NA
ATOM     14  N   UNL     1       5.423   3.581  15.519  0.00  0.00    +0.000 NA
ENDROOT
BRANCH  12  15
ATOM     15  C   UNL     1       2.026   5.694  20.100  0.00  0.00    +0.000 C 
ATOM     16  O   UNL     1       1.358   5.418  21.089  0.00  0.00    +0.000 OA
ATOM     17  N   UNL     1       2.114   6.975  19.552  0.00  0.00    +0.000 N 
ATOM     18  H   UNL     1       2.580   7.041  18.650  0.00  0.00    +0.000 HD
BRANCH  17  19
ATOM     19  C   UNL     1       1.459   8.134  20.044  0.00  0.00    +0.000 A 
ATOM     20  C   UNL     1       1.314   9.310  19.279  0.00  0.00    +0.000 A 
ATOM     21  C   UNL     1       0.714  10.460  19.802  0.00  0.00    +0.000 A 
ATOM     22  C   UNL     1       0.266  10.436  21.105  0.00  0.00    +0.000 A 
ATOM     23  C   UNL     1       0.388   9.282  21.876  0.00  0.00    +0.000 A 
ATOM     24  C   UNL     1       0.962   8.120  21.357  0.00  0.00    +0.000 A 
ATOM     25  C   UNL     1      -0.071   9.539  23.281  0.00  0.00    +0.000 C 
ATOM     26  C   UNL     1      -0.921  10.806  23.091  0.00  0.00    +0.000 C 
ATOM     27  C   UNL     1      -0.314  11.562  21.901  0.00  0.00    +0.000 C 
ENDBRANCH  17  19
ENDBRANCH  12  15
TORSDOF 2
ENDMDL
MODEL 2
REMARK VINA RESULT:      -9.1      0.894      1.546
REMARK  Name = 
REMARK  4 active torsions:
REMARK  status: ('A' for Active; 'I' for Inactive)
REMARK    1  A    between atoms: C_1  and  C_2
REMARK    2  A    between atoms: C_4  and  C_5
REMARK    3  A    between atoms: C_12  and  C_13
REMARK    4  A    between atoms: N_15  and  C_16
REMARK                            x       y       z     vdW  Elec       q    Type
REMARK                         _______ _______ _______ _____ _____    ______ ____
ROOT
ATOM      1  C   UNL     1       6.732   4.004  13.987  0.00  0.00    +0.000 C 
ATOM      2  C   UNL     1       5.967   4.674  15.066  0.00  0.00    +0.000 A 
ATOM      3  C   UNL     1       5.550   6.016  15.124  0.00  0.00    +0.000 A 
ATOM      4  C   UNL     1       4.865   6.138  16.314  0.00  0.00    +0.000 A 
ATOM      5  C   UNL     1       4.254   7.335  16.936  0.00  0.00    +0.000 C 
ATOM      6  N   UNL     1       4.847   4.873  16.883  0.00  0.00    +0.000 N 
ATOM      7  C   UNL     1       4.163   4.455  18.072  0.00  0.00    +0.000 A 
ATOM      8  C   UNL     1       4.319   3.134  18.486  0.00  0.00    +0.000 A 
ATOM      9  C   UNL     1       3.684   2.721  19.650  0.00  0.00    +0.000 A 
ATOM     10  C   UNL     1       2.868   3.609  20.358  0.00  0.00    +0.000 A 
ATOM     11 CL   UNL     1       2.129   2.978  21.781  0.00  0.00    +0.000 Cl
ATOM     12  C   UNL     1       2.712   4.907  19.857  0.00  0.00    +0.000 A 
ATOM     13  N   UNL     1       3.368   5.346  18.738  0.00  0.00    +0.000 NA
ATOM     14  N   UNL     1       5.581   3.991  16.147  0.00  0.00    +0.000 NA
ENDROOT
BRANCH  12  15
ATOM     15  C   UNL     1       1.753   5.911  20.465  0.00  0.00    +0.000 C 
ATOM     16  O   UNL     1       0.666   5.537  20.887  0.00  0.00    +0.000 OA
ATOM     17  N   UNL     1       2.161   7.246  20.437  0.00  0.00    +0.000 N 
ATOM     18  H   UNL     1       3.021   7.437  19.929  0.00  0.00    +0.000 HD
BRANCH  17  19
ATOM     19  C   UNL     1       1.397   8.356  20.885  0.00  0.00    +0.000 A 
ATOM     20  C   UNL     1       1.215   8.654  22.251  0.00  0.00    +0.000 A 
ATOM     21  C   UNL     1       0.413   9.719  22.673  0.00  0.00    +0.000 A 
ATOM     22  C   UNL     1      -0.222  10.486  21.718  0.00  0.00    +0.000 A 
ATOM     23  C   UNL     1      -0.047  10.217  20.362  0.00  0.00    +0.000 A 
ATOM     24  C   UNL     1       0.771   9.172  19.929  0.00  0.00    +0.000 A 
ATOM     25  C   UNL     1      -0.919  11.114  19.533  0.00  0.00    +0.000 C 
ATOM     26  C   UNL     1      -1.226  12.240  20.534  0.00  0.00    +0.000 C 
ATOM     27  C   UNL     1      -1.193  11.602  21.929  0.00  0.00    +0.000 C 
ENDBRANCH  17  19
ENDBRANCH  12  15
TORSDOF 2
ENDMDL
MODEL 3
REMARK VINA RESULT:      -9.1      1.791      8.342
REMARK  Name = 
REMARK  4 active torsions:
REMARK  status: ('A' for Active; 'I' for Inactive)
REMARK    1  A    between atoms: C_1  and  C_2
REMARK    2  A    between atoms: C_4  and  C_5
REMARK    3  A    between atoms: C_12  and  C_13
REMARK    4  A    between atoms: N_15  and  C_16
REMARK                            x       y       z     vdW  Elec       q    Type
REMARK                         _______ _______ _______ _____ _____    ______ ____
ROOT
ATOM      1  C   UNL     1      -0.434   9.316  22.269  0.00  0.00    +0.000 C 
ATOM      2  C   UNL     1       0.441   8.669  21.262  0.00  0.00    +0.000 A 
ATOM      3  C   UNL     1       1.024   9.251  20.123  0.00  0.00    +0.000 A 
ATOM      4  C   UNL     1       1.755   8.245  19.528  0.00  0.00    +0.000 A 
ATOM      5  C   UNL     1       2.530   8.258  18.266  0.00  0.00    +0.000 C 
ATOM      6  N   UNL     1       1.633   7.138  20.352  0.00  0.00    +0.000 N 
ATOM      7  C   UNL     1       2.296   5.871  20.226  0.00  0.00    +0.000 A 
ATOM      8  C   UNL     1       1.988   4.878  21.152  0.00  0.00    +0.000 A 
ATOM      9  C   UNL     1       2.603   3.638  21.028  0.00  0.00    +0.000 A 
ATOM     10  C   UNL     1       3.545   3.420  20.018  0.00  0.00    +0.000 A 
ATOM     11 CL   UNL     1       4.243   1.844  19.970  0.00  0.00    +0.000 Cl
ATOM     12  C   UNL     1       3.846   4.479  19.153  0.00  0.00    +0.000 A 
ATOM     13  N   UNL     1       3.216   5.692  19.231  0.00  0.00    +0.000 NA
ATOM     14  N   UNL     1       0.771   7.380  21.381  0.00  0.00    +0.000 NA
ENDROOT
BRANCH  12  15
ATOM     15  C   UNL     1       4.942   4.399  18.108  0.00  0.00    +0.000 C 
ATOM     16  O   UNL     1       6.114   4.353  18.458  0.00  0.00    +0.000 OA
ATOM     17  N   UNL     1       4.527   4.454  16.777  0.00  0.00    +0.000 N 
ATOM     18  H   UNL     1       3.538   4.637  16.627  0.00  0.00    +0.000 HD
BRANCH  17  19
ATOM     19  C   UNL     1       5.380   4.465  15.642  0.00  0.00    +0.000 A 
ATOM     20  C   UNL     1       6.520   5.290  15.553  0.00  0.00    +0.000 A 
ATOM     21  C   UNL     1       7.316   5.327  14.404  0.00  0.00    +0.000 A 
ATOM     22  C   UNL     1       6.962   4.538  13.331  0.00  0.00    +0.000 A 
ATOM     23  C   UNL     1       5.847   3.706  13.400  0.00  0.00    +0.000 A 
ATOM     24  C   UNL     1       5.059   3.642  14.551  0.00  0.00    +0.000 A 
ATOM     25  C   UNL     1       5.610   3.035  12.079  0.00  0.00    +0.000 C 
ATOM     26  C   UNL     1       6.986   3.194  11.412  0.00  0.00    +0.000 C 
ATOM     27  C   UNL     1       7.597   4.483  11.978  0.00  0.00    +0.000 C 
ENDBRANCH  17  19
ENDBRANCH  12  15
TORSDOF 2
ENDMDL
MODEL 4
REMARK VINA RESULT:      -8.9      1.821      8.589
REMARK  Name = 
REMARK  4 active torsions:
REMARK  status: ('A' for Active; 'I' for Inactive)
REMARK    1  A    between atoms: C_1  and  C_2
REMARK    2  A    between atoms: C_4  and  C_5
REMARK    3  A    between atoms: C_12  and  C_13
REMARK    4  A    between atoms: N_15  and  C_16
REMARK                            x       y       z     vdW  Elec       q    Type
REMARK                         _______ _______ _______ _____ _____    ______ ____
ROOT
ATOM      1  C   UNL     1      -0.739  10.148  22.797  0.00  0.00    +0.000 C 
ATOM      2  C   UNL     1       0.035   9.647  21.635  0.00  0.00    +0.000 A 
ATOM      3  C   UNL     1       0.426  10.359  20.486  0.00  0.00    +0.000 A 
ATOM      4  C   UNL     1       1.132   9.458  19.718  0.00  0.00    +0.000 A 
ATOM      5  C   UNL     1       1.732   9.626  18.374  0.00  0.00    +0.000 C 
ATOM      6  N   UNL     1       1.187   8.283  20.450  0.00  0.00    +0.000 N 
ATOM      7  C   UNL     1       1.903   7.081  20.131  0.00  0.00    +0.000 A 
ATOM      8  C   UNL     1       1.782   5.997  20.996  0.00  0.00    +0.000 A 
ATOM      9  C   UNL     1       2.449   4.819  20.687  0.00  0.00    +0.000 A 
ATOM     10  C   UNL     1       3.261   4.750  19.551  0.00  0.00    +0.000 A 
ATOM     11 CL   UNL     1       4.041   3.237  19.277  0.00  0.00    +0.000 Cl
ATOM     12  C   UNL     1       3.381   5.893  18.752  0.00  0.00    +0.000 A 
ATOM     13  N   UNL     1       2.694   7.048  19.015  0.00  0.00    +0.000 NA
ATOM     14  N   UNL     1       0.456   8.380  21.597  0.00  0.00    +0.000 NA
ENDROOT
BRANCH  12  15
ATOM     15  C   UNL     1       4.332   5.975  17.575  0.00  0.00    +0.000 C 
ATOM     16  O   UNL     1       4.758   7.064  17.210  0.00  0.00    +0.000 OA
ATOM     17  N   UNL     1       4.611   4.772  16.925  0.00  0.00    +0.000 N 
ATOM     18  H   UNL     1       4.080   3.964  17.239  0.00  0.00    +0.000 HD
BRANCH  17  19
ATOM     19  C   UNL     1       5.416   4.624  15.764  0.00  0.00    +0.000 A 
ATOM     20  C   UNL     1       6.701   5.195  15.649  0.00  0.00    +0.000 A 
ATOM     21  C   UNL     1       7.454   5.084  14.477  0.00  0.00    +0.000 A 
ATOM     22  C   UNL     1       6.913   4.405  13.406  0.00  0.00    +0.000 A 
ATOM     23  C   UNL     1       5.651   3.822  13.501  0.00  0.00    +0.000 A 
ATOM     24  C   UNL     1       4.900   3.905  14.675  0.00  0.00    +0.000 A 
ATOM     25  C   UNL     1       5.243   3.238  12.181  0.00  0.00    +0.000 C 
ATOM     26  C   UNL     1       6.602   3.118  11.473  0.00  0.00    +0.000 C 
ATOM     27  C   UNL     1       7.485   4.242  12.034  0.00  0.00    +0.000 C 
ENDBRANCH  17  19
ENDBRANCH  12  15
TORSDOF 2
ENDMDL
MODEL 5
REMARK VINA RESULT:      -8.5      4.966      7.409
REMARK  Name = 
REMARK  4 active torsions:
REMARK  status: ('A' for Active; 'I' for Inactive)
REMARK    1  A    between atoms: C_1  and  C_2
REMARK    2  A    between atoms: C_4  and  C_5
REMARK    3  A    between atoms: C_12  and  C_13
REMARK    4  A    between atoms: N_15  and  C_16
REMARK                            x       y       z     vdW  Elec       q    Type
REMARK                         _______ _______ _______ _____ _____    ______ ____
ROOT
ATOM      1  C   UNL     1       2.378   4.359  19.982  0.00  0.00    +0.000 C 
ATOM      2  C   UNL     1       2.247   5.803  19.670  0.00  0.00    +0.000 A 
ATOM      3  C   UNL     1       2.619   6.468  18.488  0.00  0.00    +0.000 A 
ATOM      4  C   UNL     1       2.280   7.790  18.687  0.00  0.00    +0.000 A 
ATOM      5  C   UNL     1       2.493   8.964  17.810  0.00  0.00    +0.000 C 
ATOM      6  N   UNL     1       1.676   7.851  19.933  0.00  0.00    +0.000 N 
ATOM      7  C   UNL     1       1.052   8.986  20.552  0.00  0.00    +0.000 A 
ATOM      8  C   UNL     1       0.541   8.831  21.838  0.00  0.00    +0.000 A 
ATOM      9  C   UNL     1      -0.043   9.927  22.459  0.00  0.00    +0.000 A 
ATOM     10  C   UNL     1      -0.153  11.143  21.779  0.00  0.00    +0.000 A 
ATOM     11 CL   UNL     1      -0.903  12.427  22.652  0.00  0.00    +0.000 Cl
ATOM     12  C   UNL     1       0.333  11.216  20.468  0.00  0.00    +0.000 A 
ATOM     13  N   UNL     1       0.955  10.159  19.857  0.00  0.00    +0.000 NA
ATOM     14  N   UNL     1       1.717   6.642  20.563  0.00  0.00    +0.000 NA
ENDROOT
BRANCH  12  15
ATOM     15  C   UNL     1       0.150  12.438  19.591  0.00  0.00    +0.000 C 
ATOM     16  O   UNL     1      -0.587  12.383  18.615  0.00  0.00    +0.000 OA
ATOM     17  N   UNL     1       0.913  13.557  19.930  0.00  0.00    +0.000 N 
ATOM     18  H   UNL     1       1.592  13.423  20.675  0.00  0.00    +0.000 HD
BRANCH  17  19
ATOM     19  C   UNL     1       0.953  14.782  19.211  0.00  0.00    +0.000 A 
ATOM     20  C   UNL     1       2.152  15.343  18.728  0.00  0.00    +0.000 A 
ATOM     21  C   UNL     1       2.176  16.578  18.072  0.00  0.00    +0.000 A 
ATOM     22  C   UNL     1       0.990  17.261  17.907  0.00  0.00    +0.000 A 
ATOM     23  C   UNL     1      -0.209  16.720  18.366  0.00  0.00    +0.000 A 
ATOM     24  C   UNL     1      -0.248  15.477  19.001  0.00  0.00    +0.000 A 
ATOM     25  C   UNL     1      -1.333  17.693  18.167  0.00  0.00    +0.000 C 
ATOM     26  C   UNL     1      -0.733  18.630  17.106  0.00  0.00    +0.000 C 
ATOM     27  C   UNL     1       0.785  18.625  17.330  0.00  0.00    +0.000 C 
ENDBRANCH  17  19
ENDBRANCH  12  15
TORSDOF 2
ENDMDL
MODEL 6
REMARK VINA RESULT:      -8.4      3.550      8.953
REMARK  Name = 
REMARK  4 active torsions:
REMARK  status: ('A' for Active; 'I' for Inactive)
REMARK    1  A    between atoms: C_1  and  C_2
REMARK    2  A    between atoms: C_4  and  C_5
REMARK    3  A    between atoms: C_12  and  C_13
REMARK    4  A    between atoms: N_15  and  C_16
REMARK                            x       y       z     vdW  Elec       q    Type
REMARK                         _______ _______ _______ _____ _____    ______ ____
ROOT
ATOM      1  C   UNL     1       1.343  17.059  21.694  0.00  0.00    +0.000 C 
ATOM      2  C   UNL     1       1.369  15.816  20.885  0.00  0.00    +0.000 A 
ATOM      3  C   UNL     1       1.946  15.622  19.618  0.00  0.00    +0.000 A 
ATOM      4  C   UNL     1       1.717  14.299  19.307  0.00  0.00    +0.000 A 
ATOM      5  C   UNL     1       2.043  13.546  18.073  0.00  0.00    +0.000 C 
ATOM      6  N   UNL     1       1.078  13.748  20.406  0.00  0.00    +0.000 N 
ATOM      7  C   UNL     1       0.724  12.373  20.618  0.00  0.00    +0.000 A 
ATOM      8  C   UNL     1       0.043  12.047  21.788  0.00  0.00    +0.000 A 
ATOM      9  C   UNL     1      -0.328  10.724  21.996  0.00  0.00    +0.000 A 
ATOM     10  C   UNL     1       0.022   9.742  21.065  0.00  0.00    +0.000 A 
ATOM     11 CL   UNL     1      -0.489   8.139  21.437  0.00  0.00    +0.000 Cl
ATOM     12  C   UNL     1       0.754  10.131  19.936  0.00  0.00    +0.000 A 
ATOM     13  N   UNL     1       1.088  11.436  19.691  0.00  0.00    +0.000 NA
ATOM     14  N   UNL     1       0.806  14.696  21.347  0.00  0.00    +0.000 NA
ENDROOT
BRANCH  12  15
ATOM     15  C   UNL     1       1.301   9.137  18.931  0.00  0.00    +0.000 C 
ATOM     16  O   UNL     1       0.997   9.236  17.749  0.00  0.00    +0.000 OA
ATOM     17  N   UNL     1       2.083   8.104  19.451  0.00  0.00    +0.000 N 
ATOM     18  H   UNL     1       2.138   8.056  20.465  0.00  0.00    +0.000 HD
BRANCH  17  19
ATOM     19  C   UNL     1       2.638   7.029  18.707  0.00  0.00    +0.000 A 
ATOM     20  C   UNL     1       2.198   5.697  18.848  0.00  0.00    +0.000 A 
ATOM     21  C   UNL     1       2.796   4.645  18.147  0.00  0.00    +0.000 A 
ATOM     22  C   UNL     1       3.851   4.928  17.306  0.00  0.00    +0.000 A 
ATOM     23  C   UNL     1       4.295   6.238  17.142  0.00  0.00    +0.000 A 
ATOM     24  C   UNL     1       3.689   7.299  17.817  0.00  0.00    +0.000 A 
ATOM     25  C   UNL     1       5.512   6.273  16.265  0.00  0.00    +0.000 C 
ATOM     26  C   UNL     1       5.411   4.912  15.559  0.00  0.00    +0.000 C 
ATOM     27  C   UNL     1       4.699   3.967  16.536  0.00  0.00    +0.000 C 
ENDBRANCH  17  19
ENDBRANCH  12  15
TORSDOF 2
ENDMDL
MODEL 7
REMARK VINA RESULT:      -8.2      1.887      8.272
REMARK  Name = 
REMARK  4 active torsions:
REMARK  status: ('A' for Active; 'I' for Inactive)
REMARK    1  A    between atoms: C_1  and  C_2
REMARK    2  A    between atoms: C_4  and  C_5
REMARK    3  A    between atoms: C_12  and  C_13
REMARK    4  A    between atoms: N_15  and  C_16
REMARK                            x       y       z     vdW  Elec       q    Type
REMARK                         _______ _______ _______ _____ _____    ______ ____
ROOT
ATOM      1  C   UNL     1      -0.516  11.215  20.904  0.00  0.00    +0.000 C 
ATOM      2  C   UNL     1       0.328  10.288  20.111  0.00  0.00    +0.000 A 
ATOM      3  C   UNL     1       1.004  10.551  18.907  0.00  0.00    +0.000 A 
ATOM      4  C   UNL     1       1.654   9.379  18.586  0.00  0.00    +0.000 A 
ATOM      5  C   UNL     1       2.471   9.045  17.396  0.00  0.00    +0.000 C 
ATOM      6  N   UNL     1       1.395   8.495  19.622  0.00  0.00    +0.000 N 
ATOM      7  C   UNL     1       1.934   7.179  19.809  0.00  0.00    +0.000 A 
ATOM      8  C   UNL     1       1.499   6.444  20.909  0.00  0.00    +0.000 A 
ATOM      9  C   UNL     1       1.994   5.159  21.090  0.00  0.00    +0.000 A 
ATOM     10  C   UNL     1       2.944   4.641  20.205  0.00  0.00    +0.000 A 
ATOM     11 CL   UNL     1       3.486   3.039  20.537  0.00  0.00    +0.000 Cl
ATOM     12  C   UNL     1       3.378   5.453  19.150  0.00  0.00    +0.000 A 
ATOM     13  N   UNL     1       2.867   6.705  18.929  0.00  0.00    +0.000 NA
ATOM     14  N   UNL     1       0.526   9.033  20.524  0.00  0.00    +0.000 NA
ENDROOT
BRANCH  12  15
ATOM     15  C   UNL     1       4.497   5.050  18.210  0.00  0.00    +0.000 C 
ATOM     16  O   UNL     1       5.578   4.698  18.666  0.00  0.00    +0.000 OA
ATOM     17  N   UNL     1       4.230   5.177  16.846  0.00  0.00    +0.000 N 
ATOM     18  H   UNL     1       3.345   5.617  16.606  0.00  0.00    +0.000 HD
BRANCH  17  19
ATOM     19  C   UNL     1       5.149   4.924  15.794  0.00  0.00    +0.000 A 
ATOM     20  C   UNL     1       6.462   5.438  15.789  0.00  0.00    +0.000 A 
ATOM     21  C   UNL     1       7.334   5.223  14.717  0.00  0.00    +0.000 A 
ATOM     22  C   UNL     1       6.883   4.496  13.636  0.00  0.00    +0.000 A 
ATOM     23  C   UNL     1       5.594   3.968  13.624  0.00  0.00    +0.000 A 
ATOM     24  C   UNL     1       4.724   4.155  14.699  0.00  0.00    +0.000 A 
ATOM     25  C   UNL     1       5.307   3.315  12.304  0.00  0.00    +0.000 C 
ATOM     26  C   UNL     1       6.729   3.098  11.762  0.00  0.00    +0.000 C 
ATOM     27  C   UNL     1       7.594   4.222  12.349  0.00  0.00    +0.000 C 
ENDBRANCH  17  19
ENDBRANCH  12  15
TORSDOF 2
ENDMDL
MODEL 8
REMARK VINA RESULT:      -8.1      1.679      8.272
REMARK  Name = 
REMARK  4 active torsions:
REMARK  status: ('A' for Active; 'I' for Inactive)
REMARK    1  A    between atoms: C_1  and  C_2
REMARK    2  A    between atoms: C_4  and  C_5
REMARK    3  A    between atoms: C_12  and  C_13
REMARK    4  A    between atoms: N_15  and  C_16
REMARK                            x       y       z     vdW  Elec       q    Type
REMARK                         _______ _______ _______ _____ _____    ______ ____
ROOT
ATOM      1  C   UNL     1       0.495   9.745  22.846  0.00  0.00    +0.000 C 
ATOM      2  C   UNL     1       0.893   9.015  21.619  0.00  0.00    +0.000 A 
ATOM      3  C   UNL     1       1.135   9.545  20.339  0.00  0.00    +0.000 A 
ATOM      4  C   UNL     1       1.488   8.467  19.555  0.00  0.00    +0.000 A 
ATOM      5  C   UNL     1       1.794   8.410  18.107  0.00  0.00    +0.000 C 
ATOM      6  N   UNL     1       1.502   7.364  20.395  0.00  0.00    +0.000 N 
ATOM      7  C   UNL     1       1.912   6.026  20.080  0.00  0.00    +0.000 A 
ATOM      8  C   UNL     1       1.802   5.058  21.075  0.00  0.00    +0.000 A 
ATOM      9  C   UNL     1       2.172   3.752  20.778  0.00  0.00    +0.000 A 
ATOM     10  C   UNL     1       2.686   3.438  19.517  0.00  0.00    +0.000 A 
ATOM     11 CL   UNL     1       3.114   1.787  19.271  0.00  0.00    +0.000 Cl
ATOM     12  C   UNL     1       2.820   4.470  18.580  0.00  0.00    +0.000 A 
ATOM     13  N   UNL     1       2.417   5.753  18.839  0.00  0.00    +0.000 NA
ATOM     14  N   UNL     1       1.071   7.692  21.647  0.00  0.00    +0.000 NA
ENDROOT
BRANCH  12  15
ATOM     15  C   UNL     1       3.485   4.274  17.233  0.00  0.00    +0.000 C 
ATOM     16  O   UNL     1       2.977   3.529  16.405  0.00  0.00    +0.000 OA
ATOM     17  N   UNL     1       4.706   4.925  17.050  0.00  0.00    +0.000 N 
ATOM     18  H   UNL     1       5.086   5.395  17.868  0.00  0.00    +0.000 HD
BRANCH  17  19
ATOM     19  C   UNL     1       5.534   4.828  15.900  0.00  0.00    +0.000 A 
ATOM     20  C   UNL     1       6.724   5.570  15.752  0.00  0.00    +0.000 A 
ATOM     21  C   UNL     1       7.495   5.503  14.588  0.00  0.00    +0.000 A 
ATOM     22  C   UNL     1       7.065   4.693  13.557  0.00  0.00    +0.000 A 
ATOM     23  C   UNL     1       5.899   3.942  13.686  0.00  0.00    +0.000 A 
ATOM     24  C   UNL     1       5.134   3.983  14.853  0.00  0.00    +0.000 A 
ATOM     25  C   UNL     1       5.589   3.232  12.401  0.00  0.00    +0.000 C 
ATOM     26  C   UNL     1       6.957   3.268  11.701  0.00  0.00    +0.000 C 
ATOM     27  C   UNL     1       7.665   4.536  12.197  0.00  0.00    +0.000 C 
ENDBRANCH  17  19
ENDBRANCH  12  15
TORSDOF 2
ENDMDL
MODEL 9
REMARK VINA RESULT:      -8.1      3.883      8.651
REMARK  Name = 
REMARK  4 active torsions:
REMARK  status: ('A' for Active; 'I' for Inactive)
REMARK    1  A    between atoms: C_1  and  C_2
REMARK    2  A    between atoms: C_4  and  C_5
REMARK    3  A    between atoms: C_12  and  C_13
REMARK    4  A    between atoms: N_15  and  C_16
REMARK                            x       y       z     vdW  Elec       q    Type
REMARK                         _______ _______ _______ _____ _____    ______ ____
ROOT
ATOM      1  C   UNL     1       1.912  17.325  18.492  0.00  0.00    +0.000 C 
ATOM      2  C   UNL     1       1.890  15.849  18.636  0.00  0.00    +0.000 A 
ATOM      3  C   UNL     1       2.636  14.899  17.916  0.00  0.00    +0.000 A 
ATOM      4  C   UNL     1       2.270  13.675  18.431  0.00  0.00    +0.000 A 
ATOM      5  C   UNL     1       2.684  12.313  18.022  0.00  0.00    +0.000 C 
ATOM      6  N   UNL     1       1.381  13.938  19.461  0.00  0.00    +0.000 N 
ATOM      7  C   UNL     1       0.797  13.002  20.379  0.00  0.00    +0.000 A 
ATOM      8  C   UNL     1      -0.112  13.485  21.317  0.00  0.00    +0.000 A 
ATOM      9  C   UNL     1      -0.704  12.587  22.196  0.00  0.00    +0.000 A 
ATOM     10  C   UNL     1      -0.351  11.235  22.161  0.00  0.00    +0.000 A 
ATOM     11 CL   UNL     1      -1.148  10.221  23.304  0.00  0.00    +0.000 Cl
ATOM     12  C   UNL     1       0.610  10.825  21.228  0.00  0.00    +0.000 A 
ATOM     13  N   UNL     1       1.169  11.687  20.323  0.00  0.00    +0.000 NA
ATOM     14  N   UNL     1       1.097  15.269  19.541  0.00  0.00    +0.000 NA
ENDROOT
BRANCH  12  15
ATOM     15  C   UNL     1       1.165   9.415  21.188  0.00  0.00    +0.000 C 
ATOM     16  O   UNL     1       1.492   8.859  22.228  0.00  0.00    +0.000 OA
ATOM     17  N   UNL     1       1.334   8.857  19.919  0.00  0.00    +0.000 N 
ATOM     18  H   UNL     1       1.159   9.478  19.134  0.00  0.00    +0.000 HD
BRANCH  17  19
ATOM     19  C   UNL     1       1.899   7.584  19.642  0.00  0.00    +0.000 A 
ATOM     20  C   UNL     1       1.747   6.479  20.504  0.00  0.00    +0.000 A 
ATOM     21  C   UNL     1       2.358   5.249  20.241  0.00  0.00    +0.000 A 
ATOM     22  C   UNL     1       3.137   5.128  19.109  0.00  0.00    +0.000 A 
ATOM     23  C   UNL     1       3.291   6.203  18.237  0.00  0.00    +0.000 A 
ATOM     24  C   UNL     1       2.666   7.428  18.477  0.00  0.00    +0.000 A 
ATOM     25  C   UNL     1       4.263   5.858  17.148  0.00  0.00    +0.000 C 
ATOM     26  C   UNL     1       4.258   4.322  17.218  0.00  0.00    +0.000 C 
ATOM     27  C   UNL     1       3.956   3.955  18.676  0.00  0.00    +0.000 C 
ENDBRANCH  17  19
ENDBRANCH  12  15
TORSDOF 2
ENDMDL
