MODEL 1
REMARK VINA RESULT:      -8.7      0.000      0.000
REMARK  Name = 
REMARK  4 active torsions:
REMARK  status: ('A' for Active; 'I' for Inactive)
REMARK    1  A    between atoms: C_1  and  C_2
REMARK    2  A    between atoms: N_12  and  C_13
REMARK    3  A    between atoms: C_16  and  C_17
REMARK    4  A    between atoms: N_19  and  C_20
REMARK                            x       y       z     vdW  Elec       q    Type
REMARK                         _______ _______ _______ _____ _____    ______ ____
ROOT
ATOM      1  C   UNL     1       6.599   6.384  17.924  0.00  0.00    +0.000 A 
ATOM      2  C   UNL     1       7.705   6.313  18.771  0.00  0.00    +0.000 A 
ATOM      3  C   UNL     1       8.511   7.436  18.973  0.00  0.00    +0.000 A 
ATOM      4  C   UNL     1       8.212   8.649  18.340  0.00  0.00    +0.000 A 
ATOM      5  C   UNL     1       7.148   8.709  17.433  0.00  0.00    +0.000 A 
ATOM      6  C   UNL     1       6.341   7.577  17.231  0.00  0.00    +0.000 A 
ENDROOT
BRANCH   1  18
ATOM      7  C   UNL     1       6.893   4.535  15.721  0.00  0.00    +0.000 C 
ATOM      8  C   UNL     1       5.801   4.372  16.755  0.00  0.00    +0.000 A 
ATOM      9  N   UNL     1       5.014   3.351  16.611  0.00  0.00    +0.000 NA
ATOM     10  C   UNL     1       3.991   3.151  17.541  0.00  0.00    +0.000 A 
ATOM     11  C   UNL     1       3.099   2.095  17.339  0.00  0.00    +0.000 A 
ATOM     12  C   UNL     1       2.005   1.917  18.190  0.00  0.00    +0.000 A 
ATOM     13  C   UNL     1       1.806   2.785  19.262  0.00  0.00    +0.000 A 
ATOM     14  C   UNL     1       2.717   3.814  19.500  0.00  0.00    +0.000 A 
ATOM     15  C   UNL     1       3.807   3.989  18.636  0.00  0.00    +0.000 A 
ATOM     16  C   UNL     1       4.776   5.085  18.841  0.00  0.00    +0.000 A 
ATOM     17  O   UNL     1       4.683   5.770  19.850  0.00  0.00    +0.000 OA
ATOM     18  N   UNL     1       5.717   5.268  17.810  0.00  0.00    +0.000 N 
ENDBRANCH   1  18
BRANCH   4  19
ATOM     19  C   UNL     1       9.071   9.824  18.672  0.00  0.00    +0.000 C 
ATOM     20  O   UNL     1       9.272  10.094  19.846  0.00  0.00    +0.000 OA
ATOM     21  N   UNL     1       9.488  10.612  17.603  0.00  0.00    +0.000 N 
ATOM     22  H   UNL     1       8.939  10.560  16.752  0.00  0.00    +0.000 HD
BRANCH  21  23
ATOM     23  C   UNL     1      10.190  11.820  17.844  0.00  0.00    +0.000 A 
ATOM     24  C   UNL     1      11.579  11.785  18.002  0.00  0.00    +0.000 A 
ATOM     25  C   UNL     1      12.309  12.979  18.124  0.00  0.00    +0.000 A 
ATOM     26  C   UNL     1      11.630  14.191  18.133  0.00  0.00    +0.000 A 
ATOM     27  F   UNL     1      12.333  15.327  18.241  0.00  0.00    +0.000 F 
ATOM     28  C   UNL     1      10.244  14.235  18.033  0.00  0.00    +0.000 A 
ATOM     29  F   UNL     1       9.606  15.414  18.081  0.00  0.00    +0.000 F 
ATOM     30  C   UNL     1       9.525  13.052  17.874  0.00  0.00    +0.000 A 
ATOM     31  F   UNL     1       8.185  13.093  17.814  0.00  0.00    +0.000 F 
ENDBRANCH  21  23
ENDBRANCH   4  19
TORSDOF 3
ENDMDL
MODEL 2
REMARK VINA RESULT:      -8.2      7.301     11.154
REMARK  Name = 
REMARK  4 active torsions:
REMARK  status: ('A' for Active; 'I' for Inactive)
REMARK    1  A    between atoms: C_1  and  C_2
REMARK    2  A    between atoms: N_12  and  C_13
REMARK    3  A    between atoms: C_16  and  C_17
REMARK    4  A    between atoms: N_19  and  C_20
REMARK                            x       y       z     vdW  Elec       q    Type
REMARK                         _______ _______ _______ _____ _____    ______ ____
ROOT
ATOM      1  C   UNL     1       1.073  11.193  19.401  0.00  0.00    +0.000 A 
ATOM      2  C   UNL     1       1.523  10.451  18.310  0.00  0.00    +0.000 A 
ATOM      3  C   UNL     1       1.774   9.083  18.443  0.00  0.00    +0.000 A 
ATOM      4  C   UNL     1       1.562   8.437  19.669  0.00  0.00    +0.000 A 
ATOM      5  C   UNL     1       1.180   9.188  20.786  0.00  0.00    +0.000 A 
ATOM      6  C   UNL     1       0.931  10.563  20.648  0.00  0.00    +0.000 A 
ENDROOT
BRANCH   1  18
ATOM      7  C   UNL     1      -1.710  11.929  19.134  0.00  0.00    +0.000 C 
ATOM      8  C   UNL     1      -0.606  12.960  19.067  0.00  0.00    +0.000 A 
ATOM      9  N   UNL     1      -0.973  14.193  18.900  0.00  0.00    +0.000 NA
ATOM     10  C   UNL     1       0.008  15.186  18.836  0.00  0.00    +0.000 A 
ATOM     11  C   UNL     1      -0.387  16.501  18.580  0.00  0.00    +0.000 A 
ATOM     12  C   UNL     1       0.566  17.509  18.411  0.00  0.00    +0.000 A 
ATOM     13  C   UNL     1       1.923  17.211  18.517  0.00  0.00    +0.000 A 
ATOM     14  C   UNL     1       2.326  15.911  18.820  0.00  0.00    +0.000 A 
ATOM     15  C   UNL     1       1.362  14.905  18.980  0.00  0.00    +0.000 A 
ATOM     16  C   UNL     1       1.753  13.511  19.272  0.00  0.00    +0.000 A 
ATOM     17  O   UNL     1       2.931  13.265  19.495  0.00  0.00    +0.000 OA
ATOM     18  N   UNL     1       0.713  12.563  19.229  0.00  0.00    +0.000 N 
ENDBRANCH   1  18
BRANCH   4  19
ATOM     19  C   UNL     1       1.771   6.960  19.709  0.00  0.00    +0.000 C 
ATOM     20  O   UNL     1       1.591   6.368  20.763  0.00  0.00    +0.000 OA
ATOM     21  N   UNL     1       2.283   6.371  18.556  0.00  0.00    +0.000 N 
ATOM     22  H   UNL     1       2.784   6.977  17.916  0.00  0.00    +0.000 HD
BRANCH  21  23
ATOM     23  C   UNL     1       2.638   4.999  18.558  0.00  0.00    +0.000 A 
ATOM     24  C   UNL     1       1.811   4.076  17.910  0.00  0.00    +0.000 A 
ATOM     25  C   UNL     1       2.201   2.732  17.797  0.00  0.00    +0.000 A 
ATOM     26  C   UNL     1       3.395   2.321  18.377  0.00  0.00    +0.000 A 
ATOM     27  F   UNL     1       3.765   1.038  18.258  0.00  0.00    +0.000 F 
ATOM     28  C   UNL     1       4.198   3.218  19.072  0.00  0.00    +0.000 A 
ATOM     29  F   UNL     1       5.328   2.791  19.656  0.00  0.00    +0.000 F 
ATOM     30  C   UNL     1       3.828   4.558  19.151  0.00  0.00    +0.000 A 
ATOM     31  F   UNL     1       4.586   5.416  19.853  0.00  0.00    +0.000 F 
ENDBRANCH  21  23
ENDBRANCH   4  19
TORSDOF 3
ENDMDL
MODEL 3
REMARK VINA RESULT:      -8.1      7.617     11.236
REMARK  Name = 
REMARK  4 active torsions:
REMARK  status: ('A' for Active; 'I' for Inactive)
REMARK    1  A    between atoms: C_1  and  C_2
REMARK    2  A    between atoms: N_12  and  C_13
REMARK    3  A    between atoms: C_16  and  C_17
REMARK    4  A    between atoms: N_19  and  C_20
REMARK                            x       y       z     vdW  Elec       q    Type
REMARK                         _______ _______ _______ _____ _____    ______ ____
ROOT
ATOM      1  C   UNL     1       1.006  11.189  19.606  0.00  0.00    +0.000 A 
ATOM      2  C   UNL     1       1.427  10.493  18.472  0.00  0.00    +0.000 A 
ATOM      3  C   UNL     1       1.740   9.134  18.556  0.00  0.00    +0.000 A 
ATOM      4  C   UNL     1       1.621   8.451  19.774  0.00  0.00    +0.000 A 
ATOM      5  C   UNL     1       1.270   9.158  20.929  0.00  0.00    +0.000 A 
ATOM      6  C   UNL     1       0.958  10.524  20.841  0.00  0.00    +0.000 A 
ENDROOT
BRANCH   1  18
ATOM      7  C   UNL     1      -1.815  11.816  19.531  0.00  0.00    +0.000 C 
ATOM      8  C   UNL     1      -0.759  12.893  19.420  0.00  0.00    +0.000 A 
ATOM      9  N   UNL     1      -1.184  14.113  19.305  0.00  0.00    +0.000 NA
ATOM     10  C   UNL     1      -0.250  15.146  19.204  0.00  0.00    +0.000 A 
ATOM     11  C   UNL     1      -0.712  16.449  19.004  0.00  0.00    +0.000 A 
ATOM     12  C   UNL     1       0.187  17.499  18.800  0.00  0.00    +0.000 A 
ATOM     13  C   UNL     1       1.559  17.254  18.814  0.00  0.00    +0.000 A 
ATOM     14  C   UNL     1       2.032  15.966  19.060  0.00  0.00    +0.000 A 
ATOM     15  C   UNL     1       1.121  14.918  19.255  0.00  0.00    +0.000 A 
ATOM     16  C   UNL     1       1.585  13.536  19.489  0.00  0.00    +0.000 A 
ATOM     17  O   UNL     1       2.783  13.334  19.632  0.00  0.00    +0.000 OA
ATOM     18  N   UNL     1       0.582  12.547  19.489  0.00  0.00    +0.000 N 
ENDBRANCH   1  18
BRANCH   4  19
ATOM     19  C   UNL     1       1.893   6.983  19.764  0.00  0.00    +0.000 C 
ATOM     20  O   UNL     1       1.564   6.317  20.734  0.00  0.00    +0.000 OA
ATOM     21  N   UNL     1       2.621   6.492  18.685  0.00  0.00    +0.000 N 
ATOM     22  H   UNL     1       3.194   7.156  18.177  0.00  0.00    +0.000 HD
BRANCH  21  23
ATOM     23  C   UNL     1       3.038   5.136  18.668  0.00  0.00    +0.000 A 
ATOM     24  C   UNL     1       4.230   4.779  19.304  0.00  0.00    +0.000 A 
ATOM     25  C   UNL     1       4.604   3.429  19.402  0.00  0.00    +0.000 A 
ATOM     26  C   UNL     1       3.799   2.457  18.819  0.00  0.00    +0.000 A 
ATOM     27  F   UNL     1       4.157   1.170  18.924  0.00  0.00    +0.000 F 
ATOM     28  C   UNL     1       2.640   2.807  18.135  0.00  0.00    +0.000 A 
ATOM     29  F   UNL     1       1.897   1.856  17.548  0.00  0.00    +0.000 F 
ATOM     30  C   UNL     1       2.251   4.143  18.072  0.00  0.00    +0.000 A 
ATOM     31  F   UNL     1       1.151   4.482  17.381  0.00  0.00    +0.000 F 
ENDBRANCH  21  23
ENDBRANCH   4  19
TORSDOF 3
ENDMDL
MODEL 4
REMARK VINA RESULT:      -8.1      7.864     11.191
REMARK  Name = 
REMARK  4 active torsions:
REMARK  status: ('A' for Active; 'I' for Inactive)
REMARK    1  A    between atoms: C_1  and  C_2
REMARK    2  A    between atoms: N_12  and  C_13
REMARK    3  A    between atoms: C_16  and  C_17
REMARK    4  A    between atoms: N_19  and  C_20
REMARK                            x       y       z     vdW  Elec       q    Type
REMARK                         _______ _______ _______ _____ _____    ______ ____
ROOT
ATOM      1  C   UNL     1       0.686  10.831  19.619  0.00  0.00    +0.000 A 
ATOM      2  C   UNL     1       0.614   9.731  20.474  0.00  0.00    +0.000 A 
ATOM      3  C   UNL     1       1.226   8.526  20.122  0.00  0.00    +0.000 A 
ATOM      4  C   UNL     1       1.932   8.410  18.917  0.00  0.00    +0.000 A 
ATOM      5  C   UNL     1       1.947   9.486  18.023  0.00  0.00    +0.000 A 
ATOM      6  C   UNL     1       1.328  10.696  18.378  0.00  0.00    +0.000 A 
ENDROOT
BRANCH   1  18
ATOM      7  C   UNL     1      -2.037  11.536  18.954  0.00  0.00    +0.000 C 
ATOM      8  C   UNL     1      -1.135  12.483  19.712  0.00  0.00    +0.000 A 
ATOM      9  N   UNL     1      -1.650  13.621  20.063  0.00  0.00    +0.000 NA
ATOM     10  C   UNL     1      -0.861  14.530  20.770  0.00  0.00    +0.000 A 
ATOM     11  C   UNL     1      -1.396  15.783  21.078  0.00  0.00    +0.000 A 
ATOM     12  C   UNL     1      -0.611  16.759  21.698  0.00  0.00    +0.000 A 
ATOM     13  C   UNL     1       0.713  16.480  22.032  0.00  0.00    +0.000 A 
ATOM     14  C   UNL     1       1.243  15.216  21.772  0.00  0.00    +0.000 A 
ATOM     15  C   UNL     1       0.449  14.247  21.142  0.00  0.00    +0.000 A 
ATOM     16  C   UNL     1       0.985  12.908  20.825  0.00  0.00    +0.000 A 
ATOM     17  O   UNL     1       2.100  12.610  21.230  0.00  0.00    +0.000 OA
ATOM     18  N   UNL     1       0.155  12.090  20.034  0.00  0.00    +0.000 N 
ENDBRANCH   1  18
BRANCH   4  19
ATOM     19  C   UNL     1       2.628   7.117  18.653  0.00  0.00    +0.000 C 
ATOM     20  O   UNL     1       3.412   7.051  17.717  0.00  0.00    +0.000 OA
ATOM     21  N   UNL     1       2.238   6.030  19.428  0.00  0.00    +0.000 N 
ATOM     22  H   UNL     1       1.321   6.078  19.858  0.00  0.00    +0.000 HD
BRANCH  21  23
ATOM     23  C   UNL     1       2.751   4.738  19.148  0.00  0.00    +0.000 A 
ATOM     24  C   UNL     1       3.842   4.261  19.881  0.00  0.00    +0.000 A 
ATOM     25  C   UNL     1       4.294   2.943  19.703  0.00  0.00    +0.000 A 
ATOM     26  C   UNL     1       3.673   2.135  18.759  0.00  0.00    +0.000 A 
ATOM     27  F   UNL     1       4.104   0.875  18.601  0.00  0.00    +0.000 F 
ATOM     28  C   UNL     1       2.624   2.617  17.985  0.00  0.00    +0.000 A 
ATOM     29  F   UNL     1       2.064   1.831  17.053  0.00  0.00    +0.000 F 
ATOM     30  C   UNL     1       2.153   3.912  18.189  0.00  0.00    +0.000 A 
ATOM     31  F   UNL     1       1.164   4.387  17.416  0.00  0.00    +0.000 F 
ENDBRANCH  21  23
ENDBRANCH   4  19
TORSDOF 3
ENDMDL
MODEL 5
REMARK VINA RESULT:      -8.0      7.458     11.251
REMARK  Name = 
REMARK  4 active torsions:
REMARK  status: ('A' for Active; 'I' for Inactive)
REMARK    1  A    between atoms: C_1  and  C_2
REMARK    2  A    between atoms: N_12  and  C_13
REMARK    3  A    between atoms: C_16  and  C_17
REMARK    4  A    between atoms: N_19  and  C_20
REMARK                            x       y       z     vdW  Elec       q    Type
REMARK                         _______ _______ _______ _____ _____    ______ ____
ROOT
ATOM      1  C   UNL     1       1.083  11.005  19.080  0.00  0.00    +0.000 A 
ATOM      2  C   UNL     1       0.737  10.181  20.151  0.00  0.00    +0.000 A 
ATOM      3  C   UNL     1       1.108   8.834  20.151  0.00  0.00    +0.000 A 
ATOM      4  C   UNL     1       1.843   8.298  19.086  0.00  0.00    +0.000 A 
ATOM      5  C   UNL     1       2.132   9.100  17.976  0.00  0.00    +0.000 A 
ATOM      6  C   UNL     1       1.755  10.453  17.978  0.00  0.00    +0.000 A 
ENDROOT
BRANCH   1  18
ATOM      7  C   UNL     1      -1.399  12.017  17.999  0.00  0.00    +0.000 C 
ATOM      8  C   UNL     1      -0.364  12.937  18.606  0.00  0.00    +0.000 A 
ATOM      9  N   UNL     1      -0.655  14.201  18.630  0.00  0.00    +0.000 NA
ATOM     10  C   UNL     1       0.265  15.094  19.185  0.00  0.00    +0.000 A 
ATOM     11  C   UNL     1      -0.019  16.461  19.140  0.00  0.00    +0.000 A 
ATOM     12  C   UNL     1       0.915  17.396  19.595  0.00  0.00    +0.000 A 
ATOM     13  C   UNL     1       2.134  16.967  20.116  0.00  0.00    +0.000 A 
ATOM     14  C   UNL     1       2.408  15.603  20.209  0.00  0.00    +0.000 A 
ATOM     15  C   UNL     1       1.467  14.673  19.743  0.00  0.00    +0.000 A 
ATOM     16  C   UNL     1       1.734  13.222  19.799  0.00  0.00    +0.000 A 
ATOM     17  O   UNL     1       2.743  12.832  20.372  0.00  0.00    +0.000 OA
ATOM     18  N   UNL     1       0.799  12.403  19.138  0.00  0.00    +0.000 N 
ENDBRANCH   1  18
BRANCH   4  19
ATOM     19  C   UNL     1       2.274   6.874  19.199  0.00  0.00    +0.000 C 
ATOM     20  O   UNL     1       3.018   6.554  20.114  0.00  0.00    +0.000 OA
ATOM     21  N   UNL     1       1.887   6.023  18.168  0.00  0.00    +0.000 N 
ATOM     22  H   UNL     1       1.653   6.453  17.281  0.00  0.00    +0.000 HD
BRANCH  21  23
ATOM     23  C   UNL     1       2.369   4.690  18.130  0.00  0.00    +0.000 A 
ATOM     24  C   UNL     1       3.523   4.399  17.397  0.00  0.00    +0.000 A 
ATOM     25  C   UNL     1       4.084   3.112  17.439  0.00  0.00    +0.000 A 
ATOM     26  C   UNL     1       3.453   2.120  18.181  0.00  0.00    +0.000 A 
ATOM     27  F   UNL     1       4.000   0.898  18.223  0.00  0.00    +0.000 F 
ATOM     28  C   UNL     1       2.274   2.384  18.868  0.00  0.00    +0.000 A 
ATOM     29  F   UNL     1       1.662   1.402  19.546  0.00  0.00    +0.000 F 
ATOM     30  C   UNL     1       1.739   3.670  18.855  0.00  0.00    +0.000 A 
ATOM     31  F   UNL     1       0.582   3.913  19.490  0.00  0.00    +0.000 F 
ENDBRANCH  21  23
ENDBRANCH   4  19
TORSDOF 3
ENDMDL
MODEL 6
REMARK VINA RESULT:      -8.0      8.649     11.548
REMARK  Name = 
REMARK  4 active torsions:
REMARK  status: ('A' for Active; 'I' for Inactive)
REMARK    1  A    between atoms: C_1  and  C_2
REMARK    2  A    between atoms: N_12  and  C_13
REMARK    3  A    between atoms: C_16  and  C_17
REMARK    4  A    between atoms: N_19  and  C_20
REMARK                            x       y       z     vdW  Elec       q    Type
REMARK                         _______ _______ _______ _____ _____    ______ ____
ROOT
ATOM      1  C   UNL     1       0.374  11.032  21.204  0.00  0.00    +0.000 A 
ATOM      2  C   UNL     1       0.918  10.039  22.019  0.00  0.00    +0.000 A 
ATOM      3  C   UNL     1       1.412   8.859  21.457  0.00  0.00    +0.000 A 
ATOM      4  C   UNL     1       1.381   8.665  20.069  0.00  0.00    +0.000 A 
ATOM      5  C   UNL     1       0.771   9.624  19.253  0.00  0.00    +0.000 A 
ATOM      6  C   UNL     1       0.273  10.807  19.822  0.00  0.00    +0.000 A 
ENDROOT
BRANCH   1  18
ATOM      7  C   UNL     1       1.923  13.416  20.682  0.00  0.00    +0.000 C 
ATOM      8  C   UNL     1       0.703  13.442  21.575  0.00  0.00    +0.000 A 
ATOM      9  N   UNL     1       0.378  14.591  22.081  0.00  0.00    +0.000 NA
ATOM     10  C   UNL     1      -0.745  14.671  22.909  0.00  0.00    +0.000 A 
ATOM     11  C   UNL     1      -1.045  15.895  23.512  0.00  0.00    +0.000 A 
ATOM     12  C   UNL     1      -2.100  15.997  24.423  0.00  0.00    +0.000 A 
ATOM     13  C   UNL     1      -2.874  14.878  24.723  0.00  0.00    +0.000 A 
ATOM     14  C   UNL     1      -2.612  13.663  24.090  0.00  0.00    +0.000 A 
ATOM     15  C   UNL     1      -1.547  13.569  23.183  0.00  0.00    +0.000 A 
ATOM     16  C   UNL     1      -1.221  12.292  22.516  0.00  0.00    +0.000 A 
ATOM     17  O   UNL     1      -1.973  11.339  22.673  0.00  0.00    +0.000 OA
ATOM     18  N   UNL     1      -0.026  12.279  21.773  0.00  0.00    +0.000 N 
ENDBRANCH   1  18
BRANCH   4  19
ATOM     19  C   UNL     1       2.003   7.416  19.539  0.00  0.00    +0.000 C 
ATOM     20  O   UNL     1       2.209   7.324  18.338  0.00  0.00    +0.000 OA
ATOM     21  N   UNL     1       2.197   6.382  20.450  0.00  0.00    +0.000 N 
ATOM     22  H   UNL     1       1.625   6.394  21.287  0.00  0.00    +0.000 HD
BRANCH  21  23
ATOM     23  C   UNL     1       2.655   5.117  20.000  0.00  0.00    +0.000 A 
ATOM     24  C   UNL     1       4.002   4.958  19.660  0.00  0.00    +0.000 A 
ATOM     25  C   UNL     1       4.503   3.690  19.325  0.00  0.00    +0.000 A 
ATOM     26  C   UNL     1       3.635   2.604  19.291  0.00  0.00    +0.000 A 
ATOM     27  F   UNL     1       4.123   1.396  18.980  0.00  0.00    +0.000 F 
ATOM     28  C   UNL     1       2.283   2.762  19.574  0.00  0.00    +0.000 A 
ATOM     29  F   UNL     1       1.457   1.707  19.499  0.00  0.00    +0.000 F 
ATOM     30  C   UNL     1       1.795   4.013  19.942  0.00  0.00    +0.000 A 
ATOM     31  F   UNL     1       0.483   4.170  20.179  0.00  0.00    +0.000 F 
ENDBRANCH  21  23
ENDBRANCH   4  19
TORSDOF 3
ENDMDL
MODEL 7
REMARK VINA RESULT:      -8.0      8.022     11.328
REMARK  Name = 
REMARK  4 active torsions:
REMARK  status: ('A' for Active; 'I' for Inactive)
REMARK    1  A    between atoms: C_1  and  C_2
REMARK    2  A    between atoms: N_12  and  C_13
REMARK    3  A    between atoms: C_16  and  C_17
REMARK    4  A    between atoms: N_19  and  C_20
REMARK                            x       y       z     vdW  Elec       q    Type
REMARK                         _______ _______ _______ _____ _____    ______ ____
ROOT
ATOM      1  C   UNL     1       0.650  11.335  19.860  0.00  0.00    +0.000 A 
ATOM      2  C   UNL     1       0.519  10.250  20.727  0.00  0.00    +0.000 A 
ATOM      3  C   UNL     1       1.020   8.997  20.366  0.00  0.00    +0.000 A 
ATOM      4  C   UNL     1       1.671   8.817  19.139  0.00  0.00    +0.000 A 
ATOM      5  C   UNL     1       1.742   9.882  18.234  0.00  0.00    +0.000 A 
ATOM      6  C   UNL     1       1.235  11.140  18.599  0.00  0.00    +0.000 A 
ENDROOT
BRANCH   1  18
ATOM      7  C   UNL     1      -2.056  12.221  19.355  0.00  0.00    +0.000 C 
ATOM      8  C   UNL     1      -1.041  13.114  20.033  0.00  0.00    +0.000 A 
ATOM      9  N   UNL     1      -1.452  14.291  20.391  0.00  0.00    +0.000 NA
ATOM     10  C   UNL     1      -0.556  15.154  21.026  0.00  0.00    +0.000 A 
ATOM     11  C   UNL     1      -0.981  16.448  21.340  0.00  0.00    +0.000 A 
ATOM     12  C   UNL     1      -0.090  17.375  21.887  0.00  0.00    +0.000 A 
ATOM     13  C   UNL     1       1.231  17.008  22.141  0.00  0.00    +0.000 A 
ATOM     14  C   UNL     1       1.653  15.705  21.875  0.00  0.00    +0.000 A 
ATOM     15  C   UNL     1       0.752  14.785  21.320  0.00  0.00    +0.000 A 
ATOM     16  C   UNL     1       1.171  13.406  20.998  0.00  0.00    +0.000 A 
ATOM     17  O   UNL     1       2.288  13.036  21.336  0.00  0.00    +0.000 OA
ATOM     18  N   UNL     1       0.236  12.635  20.280  0.00  0.00    +0.000 N 
ENDBRANCH   1  18
BRANCH   4  19
ATOM     19  C   UNL     1       2.252   7.470  18.863  0.00  0.00    +0.000 C 
ATOM     20  O   UNL     1       2.300   7.074  17.708  0.00  0.00    +0.000 OA
ATOM     21  N   UNL     1       2.591   6.699  19.971  0.00  0.00    +0.000 N 
ATOM     22  H   UNL     1       2.133   6.928  20.847  0.00  0.00    +0.000 HD
BRANCH  21  23
ATOM     23  C   UNL     1       3.019   5.359  19.799  0.00  0.00    +0.000 A 
ATOM     24  C   UNL     1       4.339   5.106  19.414  0.00  0.00    +0.000 A 
ATOM     25  C   UNL     1       4.819   3.788  19.350  0.00  0.00    +0.000 A 
ATOM     26  C   UNL     1       3.954   2.736  19.631  0.00  0.00    +0.000 A 
ATOM     27  F   UNL     1       4.421   1.482  19.577  0.00  0.00    +0.000 F 
ATOM     28  C   UNL     1       2.625   2.974  19.961  0.00  0.00    +0.000 A 
ATOM     29  F   UNL     1       1.798   1.943  20.191  0.00  0.00    +0.000 F 
ATOM     30  C   UNL     1       2.161   4.283  20.059  0.00  0.00    +0.000 A 
ATOM     31  F   UNL     1       0.868   4.509  20.343  0.00  0.00    +0.000 F 
ENDBRANCH  21  23
ENDBRANCH   4  19
TORSDOF 3
ENDMDL
MODEL 8
REMARK VINA RESULT:      -8.0      8.831     11.139
REMARK  Name = 
REMARK  4 active torsions:
REMARK  status: ('A' for Active; 'I' for Inactive)
REMARK    1  A    between atoms: C_1  and  C_2
REMARK    2  A    between atoms: N_12  and  C_13
REMARK    3  A    between atoms: C_16  and  C_17
REMARK    4  A    between atoms: N_19  and  C_20
REMARK                            x       y       z     vdW  Elec       q    Type
REMARK                         _______ _______ _______ _____ _____    ______ ____
ROOT
ATOM      1  C   UNL     1      -0.555  11.227  20.408  0.00  0.00    +0.000 A 
ATOM      2  C   UNL     1       0.231  11.666  19.343  0.00  0.00    +0.000 A 
ATOM      3  C   UNL     1       1.100  10.783  18.698  0.00  0.00    +0.000 A 
ATOM      4  C   UNL     1       1.181   9.443  19.101  0.00  0.00    +0.000 A 
ATOM      5  C   UNL     1       0.450   9.013  20.213  0.00  0.00    +0.000 A 
ATOM      6  C   UNL     1      -0.421   9.905  20.861  0.00  0.00    +0.000 A 
ENDROOT
BRANCH   1  18
ATOM      7  C   UNL     1      -2.983  11.855  18.970  0.00  0.00    +0.000 C 
ATOM      8  C   UNL     1      -2.684  12.457  20.324  0.00  0.00    +0.000 A 
ATOM      9  N   UNL     1      -3.580  13.257  20.814  0.00  0.00    +0.000 NA
ATOM     10  C   UNL     1      -3.356  13.837  22.065  0.00  0.00    +0.000 A 
ATOM     11  C   UNL     1      -4.287  14.756  22.553  0.00  0.00    +0.000 A 
ATOM     12  C   UNL     1      -4.056  15.433  23.754  0.00  0.00    +0.000 A 
ATOM     13  C   UNL     1      -2.897  15.179  24.485  0.00  0.00    +0.000 A 
ATOM     14  C   UNL     1      -1.983  14.229  24.030  0.00  0.00    +0.000 A 
ATOM     15  C   UNL     1      -2.221  13.561  22.820  0.00  0.00    +0.000 A 
ATOM     16  C   UNL     1      -1.262  12.569  22.293  0.00  0.00    +0.000 A 
ATOM     17  O   UNL     1      -0.309  12.245  22.989  0.00  0.00    +0.000 OA
ATOM     18  N   UNL     1      -1.520  12.104  20.989  0.00  0.00    +0.000 N 
ENDBRANCH   1  18
BRANCH   4  19
ATOM     19  C   UNL     1       2.069   8.543  18.308  0.00  0.00    +0.000 C 
ATOM     20  O   UNL     1       2.363   8.862  17.166  0.00  0.00    +0.000 OA
ATOM     21  N   UNL     1       2.405   7.326  18.894  0.00  0.00    +0.000 N 
ATOM     22  H   UNL     1       1.791   6.983  19.624  0.00  0.00    +0.000 HD
BRANCH  21  23
ATOM     23  C   UNL     1       3.130   6.358  18.154  0.00  0.00    +0.000 A 
ATOM     24  C   UNL     1       4.405   6.675  17.675  0.00  0.00    +0.000 A 
ATOM     25  C   UNL     1       5.187   5.697  17.041  0.00  0.00    +0.000 A 
ATOM     26  C   UNL     1       4.663   4.423  16.856  0.00  0.00    +0.000 A 
ATOM     27  F   UNL     1       5.419   3.492  16.259  0.00  0.00    +0.000 F 
ATOM     28  C   UNL     1       3.375   4.113  17.278  0.00  0.00    +0.000 A 
ATOM     29  F   UNL     1       2.875   2.888  17.054  0.00  0.00    +0.000 F 
ATOM     30  C   UNL     1       2.614   5.074  17.939  0.00  0.00    +0.000 A 
ATOM     31  F   UNL     1       1.358   4.783  18.313  0.00  0.00    +0.000 F 
ENDBRANCH  21  23
ENDBRANCH   4  19
TORSDOF 3
ENDMDL
MODEL 9
REMARK VINA RESULT:      -8.0      8.187     11.152
REMARK  Name = 
REMARK  4 active torsions:
REMARK  status: ('A' for Active; 'I' for Inactive)
REMARK    1  A    between atoms: C_1  and  C_2
REMARK    2  A    between atoms: N_12  and  C_13
REMARK    3  A    between atoms: C_16  and  C_17
REMARK    4  A    between atoms: N_19  and  C_20
REMARK                            x       y       z     vdW  Elec       q    Type
REMARK                         _______ _______ _______ _____ _____    ______ ____
ROOT
ATOM      1  C   UNL     1       0.557  10.597  19.829  0.00  0.00    +0.000 A 
ATOM      2  C   UNL     1       1.038  10.342  18.545  0.00  0.00    +0.000 A 
ATOM      3  C   UNL     1       1.726   9.157  18.274  0.00  0.00    +0.000 A 
ATOM      4  C   UNL     1       1.927   8.204  19.281  0.00  0.00    +0.000 A 
ATOM      5  C   UNL     1       1.511   8.484  20.587  0.00  0.00    +0.000 A 
ATOM      6  C   UNL     1       0.822   9.678  20.857  0.00  0.00    +0.000 A 
ENDROOT
BRANCH   1  18
ATOM      7  C   UNL     1       1.812  13.054  20.692  0.00  0.00    +0.000 C 
ATOM      8  C   UNL     1       0.314  12.946  20.517  0.00  0.00    +0.000 A 
ATOM      9  N   UNL     1      -0.377  14.018  20.758  0.00  0.00    +0.000 NA
ATOM     10  C   UNL     1      -1.765  13.974  20.606  0.00  0.00    +0.000 A 
ATOM     11  C   UNL     1      -2.510  15.107  20.940  0.00  0.00    +0.000 A 
ATOM     12  C   UNL     1      -3.906  15.077  20.897  0.00  0.00    +0.000 A 
ATOM     13  C   UNL     1      -4.567  13.916  20.500  0.00  0.00    +0.000 A 
ATOM     14  C   UNL     1      -3.831  12.795  20.119  0.00  0.00    +0.000 A 
ATOM     15  C   UNL     1      -2.431  12.833  20.173  0.00  0.00    +0.000 A 
ATOM     16  C   UNL     1      -1.619  11.655  19.805  0.00  0.00    +0.000 A 
ATOM     17  O   UNL     1      -2.183  10.678  19.332  0.00  0.00    +0.000 OA
ATOM     18  N   UNL     1      -0.240  11.756  20.073  0.00  0.00    +0.000 N 
ENDBRANCH   1  18
BRANCH   4  19
ATOM     19  C   UNL     1       2.596   6.928  18.892  0.00  0.00    +0.000 C 
ATOM     20  O   UNL     1       3.291   6.909  17.887  0.00  0.00    +0.000 OA
ATOM     21  N   UNL     1       2.278   5.803  19.647  0.00  0.00    +0.000 N 
ATOM     22  H   UNL     1       1.404   5.827  20.161  0.00  0.00    +0.000 HD
BRANCH  21  23
ATOM     23  C   UNL     1       2.763   4.528  19.259  0.00  0.00    +0.000 A 
ATOM     24  C   UNL     1       3.880   3.993  19.909  0.00  0.00    +0.000 A 
ATOM     25  C   UNL     1       4.307   2.686  19.624  0.00  0.00    +0.000 A 
ATOM     26  C   UNL     1       3.635   1.948  18.657  0.00  0.00    +0.000 A 
ATOM     27  F   UNL     1       4.042   0.698  18.398  0.00  0.00    +0.000 F 
ATOM     28  C   UNL     1       2.558   2.490  17.966  0.00  0.00    +0.000 A 
ATOM     29  F   UNL     1       1.947   1.773  17.010  0.00  0.00    +0.000 F 
ATOM     30  C   UNL     1       2.112   3.773  18.275  0.00  0.00    +0.000 A 
ATOM     31  F   UNL     1       1.095   4.307  17.581  0.00  0.00    +0.000 F 
ENDBRANCH  21  23
ENDBRANCH   4  19
TORSDOF 3
ENDMDL
