MODEL 1
REMARK VINA RESULT:      -9.6      0.000      0.000
REMARK  Name = 
REMARK  8 active torsions:
REMARK  status: ('A' for Active; 'I' for Inactive)
REMARK    1  A    between atoms: C_1  and  C_2
REMARK    2  A    between atoms: N_4  and  C_5
REMARK    3  A    between atoms: C_6  and  C_7
REMARK    4  A    between atoms: C_8  and  C_9
REMARK    5  A    between atoms: C_11  and  C_12
REMARK    6  A    between atoms: N_14  and  C_15
REMARK    7  A    between atoms: C_17  and  C_18
REMARK    8  A    between atoms: C_22  and  C_23
REMARK                            x       y       z     vdW  Elec       q    Type
REMARK                         _______ _______ _______ _____ _____    ______ ____
ROOT
ATOM      1  C   UNL     1       8.295   8.237  17.950  0.00  0.00    +0.000 C 
ATOM      2  O   UNL     1       7.884   8.020  16.816  0.00  0.00    +0.000 OA
ATOM      3  N   UNL     1       8.449   7.234  18.899  0.00  0.00    +0.000 N 
ATOM      4  H   UNL     1       8.726   7.513  19.827  0.00  0.00    +0.000 HD
ENDROOT
BRANCH   1   7
ATOM      5  C   UNL     1       9.182  11.695  18.671  0.00  0.00    +0.000 A 
ATOM      6  C   UNL     1       8.411  10.826  17.861  0.00  0.00    +0.000 A 
ATOM      7  C   UNL     1       8.584   9.571  18.409  0.00  0.00    +0.000 A 
ATOM      8  N   UNL     1       9.216   9.801  19.603  0.00  0.00    +0.000 N 
ATOM      9  N   UNL     1       9.641  11.069  19.757  0.00  0.00    +0.000 NA
ATOM     10  H   UNL     1       9.459   9.112  20.308  0.00  0.00    +0.000 HD
BRANCH   5  18
ATOM     11  C   UNL     1       7.629  14.366  19.550  0.00  0.00    +0.000 C 
ATOM     12  C   UNL     1       8.851  14.237  18.715  0.00  0.00    +0.000 A 
ATOM     13  N   UNL     1       9.471  15.349  18.294  0.00  0.00    +0.000 NA
ATOM     14  N   UNL     1      10.538  14.900  17.620  0.00  0.00    +0.000 N 
ATOM     15  C   UNL     1      11.456  15.868  17.062  0.00  0.00    +0.000 C 
ATOM     16  C   UNL     1      10.636  13.530  17.577  0.00  0.00    +0.000 A 
ATOM     17  C   UNL     1      11.723  12.816  16.860  0.00  0.00    +0.000 C 
ATOM     18  C   UNL     1       9.547  13.067  18.301  0.00  0.00    +0.000 A 
ENDBRANCH   5  18
ENDBRANCH   1   7
BRANCH   3  19
ATOM     19  C   UNL     1       7.945   5.858  18.676  0.00  0.00    +0.000 C 
ATOM     20  C   UNL     1       6.777   5.437  19.587  0.00  0.00    +0.000 C 
ATOM     21  C   UNL     1       5.798   5.921  18.481  0.00  0.00    +0.000 C 
ATOM     22  C   UNL     1       6.960   5.701  17.482  0.00  0.00    +0.000 C 
BRANCH  21  23
ATOM     23  C   UNL     1       4.416   5.152  18.409  0.00  0.00    +0.000 A 
ATOM     24  C   UNL     1       4.127   4.371  17.268  0.00  0.00    +0.000 A 
ATOM     25  C   UNL     1       2.955   3.628  17.140  0.00  0.00    +0.000 A 
ATOM     26  C   UNL     1       2.031   3.621  18.176  0.00  0.00    +0.000 A 
ATOM     27  C   UNL     1       2.270   4.371  19.335  0.00  0.00    +0.000 A 
ATOM     28  C   UNL     1       3.443   5.150  19.423  0.00  0.00    +0.000 A 
BRANCH  27  29
ATOM     29  C   UNL     1       1.319   4.307  20.505  0.00  0.00    +0.000 C 
ATOM     30  F   UNL     1       0.807   5.519  20.860  0.00  0.00    +0.000 F 
ATOM     31  F   UNL     1       0.241   3.514  20.244  0.00  0.00    +0.000 F 
ATOM     32  F   UNL     1       1.894   3.798  21.628  0.00  0.00    +0.000 F 
ENDBRANCH  27  29
ENDBRANCH  21  23
ENDBRANCH   3  19
TORSDOF 5
ENDMDL
MODEL 2
REMARK VINA RESULT:      -9.6      0.471      1.555
REMARK  Name = 
REMARK  8 active torsions:
REMARK  status: ('A' for Active; 'I' for Inactive)
REMARK    1  A    between atoms: C_1  and  C_2
REMARK    2  A    between atoms: N_4  and  C_5
REMARK    3  A    between atoms: C_6  and  C_7
REMARK    4  A    between atoms: C_8  and  C_9
REMARK    5  A    between atoms: C_11  and  C_12
REMARK    6  A    between atoms: N_14  and  C_15
REMARK    7  A    between atoms: C_17  and  C_18
REMARK    8  A    between atoms: C_22  and  C_23
REMARK                            x       y       z     vdW  Elec       q    Type
REMARK                         _______ _______ _______ _____ _____    ______ ____
ROOT
ATOM      1  C   UNL     1       8.250   8.244  17.943  0.00  0.00    +0.000 C 
ATOM      2  O   UNL     1       7.828   8.061  16.808  0.00  0.00    +0.000 OA
ATOM      3  N   UNL     1       8.408   7.213  18.862  0.00  0.00    +0.000 N 
ATOM      4  H   UNL     1       8.695   7.465  19.795  0.00  0.00    +0.000 HD
ENDROOT
BRANCH   1   7
ATOM      5  C   UNL     1       9.157  11.677  18.753  0.00  0.00    +0.000 A 
ATOM      6  C   UNL     1       8.372  10.834  17.930  0.00  0.00    +0.000 A 
ATOM      7  C   UNL     1       8.550   9.563  18.438  0.00  0.00    +0.000 A 
ATOM      8  N   UNL     1       9.202   9.756  19.628  0.00  0.00    +0.000 N 
ATOM      9  N   UNL     1       9.633  11.017  19.812  0.00  0.00    +0.000 NA
ATOM     10  H   UNL     1       9.455   9.045  20.307  0.00  0.00    +0.000 HD
BRANCH   5  18
ATOM     11  C   UNL     1      11.787  12.605  17.159  0.00  0.00    +0.000 C 
ATOM     12  C   UNL     1      10.685  13.444  17.696  0.00  0.00    +0.000 A 
ATOM     13  N   UNL     1      10.701  14.765  17.465  0.00  0.00    +0.000 NA
ATOM     14  N   UNL     1       9.573  15.216  18.030  0.00  0.00    +0.000 N 
ATOM     15  C   UNL     1       9.263  16.623  17.918  0.00  0.00    +0.000 C 
ATOM     16  C   UNL     1       8.821  14.237  18.633  0.00  0.00    +0.000 A 
ATOM     17  C   UNL     1       7.547  14.515  19.344  0.00  0.00    +0.000 C 
ATOM     18  C   UNL     1       9.520  13.059  18.418  0.00  0.00    +0.000 A 
ENDBRANCH   5  18
ENDBRANCH   1   7
BRANCH   3  19
ATOM     19  C   UNL     1       7.895   5.847  18.605  0.00  0.00    +0.000 C 
ATOM     20  C   UNL     1       6.743   5.401  19.524  0.00  0.00    +0.000 C 
ATOM     21  C   UNL     1       5.745   5.922  18.452  0.00  0.00    +0.000 C 
ATOM     22  C   UNL     1       6.888   5.731  17.426  0.00  0.00    +0.000 C 
BRANCH  21  23
ATOM     23  C   UNL     1       4.360   5.160  18.381  0.00  0.00    +0.000 A 
ATOM     24  C   UNL     1       4.057   4.398  17.232  0.00  0.00    +0.000 A 
ATOM     25  C   UNL     1       2.881   3.661  17.104  0.00  0.00    +0.000 A 
ATOM     26  C   UNL     1       1.966   3.643  18.147  0.00  0.00    +0.000 A 
ATOM     27  C   UNL     1       2.219   4.374  19.316  0.00  0.00    +0.000 A 
ATOM     28  C   UNL     1       3.396   5.147  19.405  0.00  0.00    +0.000 A 
BRANCH  27  29
ATOM     29  C   UNL     1       1.278   4.297  20.493  0.00  0.00    +0.000 C 
ATOM     30  F   UNL     1       0.700   5.490  20.810  0.00  0.00    +0.000 F 
ATOM     31  F   UNL     1       0.245   3.436  20.266  0.00  0.00    +0.000 F 
ATOM     32  F   UNL     1       1.886   3.860  21.629  0.00  0.00    +0.000 F 
ENDBRANCH  27  29
ENDBRANCH  21  23
ENDBRANCH   3  19
TORSDOF 5
ENDMDL
MODEL 3
REMARK VINA RESULT:      -9.4      1.692      2.382
REMARK  Name = 
REMARK  8 active torsions:
REMARK  status: ('A' for Active; 'I' for Inactive)
REMARK    1  A    between atoms: C_1  and  C_2
REMARK    2  A    between atoms: N_4  and  C_5
REMARK    3  A    between atoms: C_6  and  C_7
REMARK    4  A    between atoms: C_8  and  C_9
REMARK    5  A    between atoms: C_11  and  C_12
REMARK    6  A    between atoms: N_14  and  C_15
REMARK    7  A    between atoms: C_17  and  C_18
REMARK    8  A    between atoms: C_22  and  C_23
REMARK                            x       y       z     vdW  Elec       q    Type
REMARK                         _______ _______ _______ _____ _____    ______ ____
ROOT
ATOM      1  C   UNL     1       8.192   8.321  18.229  0.00  0.00    +0.000 C 
ATOM      2  O   UNL     1       8.613   7.494  19.028  0.00  0.00    +0.000 OA
ATOM      3  N   UNL     1       7.315   7.995  17.201  0.00  0.00    +0.000 N 
ATOM      4  H   UNL     1       7.075   8.724  16.548  0.00  0.00    +0.000 HD
ENDROOT
BRANCH   1   7
ATOM      5  C   UNL     1       9.305  11.748  18.759  0.00  0.00    +0.000 A 
ATOM      6  C   UNL     1       9.573  10.378  18.994  0.00  0.00    +0.000 A 
ATOM      7  C   UNL     1       8.634   9.691  18.251  0.00  0.00    +0.000 A 
ATOM      8  N   UNL     1       8.053  10.650  17.463  0.00  0.00    +0.000 N 
ATOM      9  N   UNL     1       8.398  11.908  17.793  0.00  0.00    +0.000 NA
ATOM     10  H   UNL     1       7.348  10.505  16.745  0.00  0.00    +0.000 HD
BRANCH   5  18
ATOM     11  C   UNL     1      11.500  13.889  17.802  0.00  0.00    +0.000 C 
ATOM     12  C   UNL     1      10.808  13.795  19.113  0.00  0.00    +0.000 A 
ATOM     13  N   UNL     1      11.042  14.734  20.040  0.00  0.00    +0.000 NA
ATOM     14  N   UNL     1      10.250  14.395  21.066  0.00  0.00    +0.000 N 
ATOM     15  C   UNL     1      10.233  15.247  22.233  0.00  0.00    +0.000 C 
ATOM     16  C   UNL     1       9.510  13.258  20.847  0.00  0.00    +0.000 A 
ATOM     17  C   UNL     1       8.587  12.683  21.859  0.00  0.00    +0.000 C 
ATOM     18  C   UNL     1       9.846  12.849  19.565  0.00  0.00    +0.000 A 
ENDBRANCH   5  18
ENDBRANCH   1   7
BRANCH   3  19
ATOM     19  C   UNL     1       6.976   6.589  16.874  0.00  0.00    +0.000 C 
ATOM     20  C   UNL     1       6.430   5.761  18.052  0.00  0.00    +0.000 C 
ATOM     21  C   UNL     1       4.994   6.158  17.606  0.00  0.00    +0.000 C 
ATOM     22  C   UNL     1       5.592   6.385  16.196  0.00  0.00    +0.000 C 
BRANCH  21  23
ATOM     23  C   UNL     1       3.863   5.098  17.924  0.00  0.00    +0.000 A 
ATOM     24  C   UNL     1       3.637   4.045  17.011  0.00  0.00    +0.000 A 
ATOM     25  C   UNL     1       2.693   3.044  17.232  0.00  0.00    +0.000 A 
ATOM     26  C   UNL     1       1.949   3.050  18.404  0.00  0.00    +0.000 A 
ATOM     27  C   UNL     1       2.138   4.066  19.350  0.00  0.00    +0.000 A 
ATOM     28  C   UNL     1       3.069   5.093  19.084  0.00  0.00    +0.000 A 
BRANCH  27  29
ATOM     29  C   UNL     1       1.400   4.041  20.666  0.00  0.00    +0.000 C 
ATOM     30  F   UNL     1       2.222   4.021  21.753  0.00  0.00    +0.000 F 
ATOM     31  F   UNL     1       0.604   5.137  20.827  0.00  0.00    +0.000 F 
ATOM     32  F   UNL     1       0.582   2.963  20.794  0.00  0.00    +0.000 F 
ENDBRANCH  27  29
ENDBRANCH  21  23
ENDBRANCH   3  19
TORSDOF 5
ENDMDL
MODEL 4
REMARK VINA RESULT:      -9.3      1.432      2.436
REMARK  Name = 
REMARK  8 active torsions:
REMARK  status: ('A' for Active; 'I' for Inactive)
REMARK    1  A    between atoms: C_1  and  C_2
REMARK    2  A    between atoms: N_4  and  C_5
REMARK    3  A    between atoms: C_6  and  C_7
REMARK    4  A    between atoms: C_8  and  C_9
REMARK    5  A    between atoms: C_11  and  C_12
REMARK    6  A    between atoms: N_14  and  C_15
REMARK    7  A    between atoms: C_17  and  C_18
REMARK    8  A    between atoms: C_22  and  C_23
REMARK                            x       y       z     vdW  Elec       q    Type
REMARK                         _______ _______ _______ _____ _____    ______ ____
ROOT
ATOM      1  C   UNL     1       8.189   8.336  17.936  0.00  0.00    +0.000 C 
ATOM      2  O   UNL     1       7.675   8.190  16.834  0.00  0.00    +0.000 OA
ATOM      3  N   UNL     1       8.386   7.284  18.821  0.00  0.00    +0.000 N 
ATOM      4  H   UNL     1       8.752   7.507  19.733  0.00  0.00    +0.000 HD
ENDROOT
BRANCH   1   7
ATOM      5  C   UNL     1       9.260  11.725  18.734  0.00  0.00    +0.000 A 
ATOM      6  C   UNL     1       8.387  10.922  17.961  0.00  0.00    +0.000 A 
ATOM      7  C   UNL     1       8.566   9.636  18.429  0.00  0.00    +0.000 A 
ATOM      8  N   UNL     1       9.316   9.786  19.567  0.00  0.00    +0.000 N 
ATOM      9  N   UNL     1       9.798  11.030  19.739  0.00  0.00    +0.000 NA
ATOM     10  H   UNL     1       9.601   9.054  20.211  0.00  0.00    +0.000 HD
BRANCH   5  18
ATOM     11  C   UNL     1      11.879  12.622  17.104  0.00  0.00    +0.000 C 
ATOM     12  C   UNL     1      10.796  13.474  17.659  0.00  0.00    +0.000 A 
ATOM     13  N   UNL     1      10.826  14.795  17.431  0.00  0.00    +0.000 NA
ATOM     14  N   UNL     1       9.713  15.260  18.013  0.00  0.00    +0.000 N 
ATOM     15  C   UNL     1       9.420  16.671  17.909  0.00  0.00    +0.000 C 
ATOM     16  C   UNL     1       8.956  14.290  18.625  0.00  0.00    +0.000 A 
ATOM     17  C   UNL     1       7.697  14.583  19.355  0.00  0.00    +0.000 C 
ATOM     18  C   UNL     1       9.637  13.103  18.397  0.00  0.00    +0.000 A 
ENDBRANCH   5  18
ENDBRANCH   1   7
BRANCH   3  19
ATOM     19  C   UNL     1       7.813   5.938  18.580  0.00  0.00    +0.000 C 
ATOM     20  C   UNL     1       6.940   5.388  19.723  0.00  0.00    +0.000 C 
ATOM     21  C   UNL     1       5.699   5.990  19.004  0.00  0.00    +0.000 C 
ATOM     22  C   UNL     1       6.530   5.914  17.700  0.00  0.00    +0.000 C 
BRANCH  21  23
ATOM     23  C   UNL     1       4.338   5.214  19.227  0.00  0.00    +0.000 A 
ATOM     24  C   UNL     1       3.241   5.904  19.787  0.00  0.00    +0.000 A 
ATOM     25  C   UNL     1       1.994   5.310  19.978  0.00  0.00    +0.000 A 
ATOM     26  C   UNL     1       1.794   3.994  19.587  0.00  0.00    +0.000 A 
ATOM     27  C   UNL     1       2.846   3.264  19.017  0.00  0.00    +0.000 A 
ATOM     28  C   UNL     1       4.111   3.872  18.874  0.00  0.00    +0.000 A 
BRANCH  27  29
ATOM     29  C   UNL     1       2.623   1.861  18.507  0.00  0.00    +0.000 C 
ATOM     30  F   UNL     1       3.715   1.055  18.628  0.00  0.00    +0.000 F 
ATOM     31  F   UNL     1       1.621   1.226  19.178  0.00  0.00    +0.000 F 
ATOM     32  F   UNL     1       2.273   1.825  17.193  0.00  0.00    +0.000 F 
ENDBRANCH  27  29
ENDBRANCH  21  23
ENDBRANCH   3  19
TORSDOF 5
ENDMDL
MODEL 5
REMARK VINA RESULT:      -9.3      1.314      1.857
REMARK  Name = 
REMARK  8 active torsions:
REMARK  status: ('A' for Active; 'I' for Inactive)
REMARK    1  A    between atoms: C_1  and  C_2
REMARK    2  A    between atoms: N_4  and  C_5
REMARK    3  A    between atoms: C_6  and  C_7
REMARK    4  A    between atoms: C_8  and  C_9
REMARK    5  A    between atoms: C_11  and  C_12
REMARK    6  A    between atoms: N_14  and  C_15
REMARK    7  A    between atoms: C_17  and  C_18
REMARK    8  A    between atoms: C_22  and  C_23
REMARK                            x       y       z     vdW  Elec       q    Type
REMARK                         _______ _______ _______ _____ _____    ______ ____
ROOT
ATOM      1  C   UNL     1       8.085   8.303  17.892  0.00  0.00    +0.000 C 
ATOM      2  O   UNL     1       7.485   8.173  16.832  0.00  0.00    +0.000 OA
ATOM      3  N   UNL     1       8.338   7.240  18.749  0.00  0.00    +0.000 N 
ATOM      4  H   UNL     1       8.776   7.451  19.633  0.00  0.00    +0.000 HD
ENDROOT
BRANCH   1   7
ATOM      5  C   UNL     1       9.272  11.666  18.638  0.00  0.00    +0.000 A 
ATOM      6  C   UNL     1       8.348  10.884  17.903  0.00  0.00    +0.000 A 
ATOM      7  C   UNL     1       8.514   9.594  18.366  0.00  0.00    +0.000 A 
ATOM      8  N   UNL     1       9.313   9.727  19.472  0.00  0.00    +0.000 N 
ATOM      9  N   UNL     1       9.833  10.959  19.622  0.00  0.00    +0.000 NA
ATOM     10  H   UNL     1       9.606   8.989  20.106  0.00  0.00    +0.000 HD
BRANCH   5  18
ATOM     11  C   UNL     1       7.702  14.354  19.427  0.00  0.00    +0.000 C 
ATOM     12  C   UNL     1       8.964  14.211  18.657  0.00  0.00    +0.000 A 
ATOM     13  N   UNL     1       9.615  15.315  18.263  0.00  0.00    +0.000 NA
ATOM     14  N   UNL     1      10.710  14.854  17.646  0.00  0.00    +0.000 N 
ATOM     15  C   UNL     1      11.664  15.811  17.132  0.00  0.00    +0.000 C 
ATOM     16  C   UNL     1      10.797  13.483  17.612  0.00  0.00    +0.000 A 
ATOM     17  C   UNL     1      11.913  12.756  16.954  0.00  0.00    +0.000 C 
ATOM     18  C   UNL     1       9.669  13.033  18.282  0.00  0.00    +0.000 A 
ENDBRANCH   5  18
ENDBRANCH   1   7
BRANCH   3  19
ATOM     19  C   UNL     1       7.732   5.903  18.542  0.00  0.00    +0.000 C 
ATOM     20  C   UNL     1       6.854   5.399  19.701  0.00  0.00    +0.000 C 
ATOM     21  C   UNL     1       5.623   6.013  18.978  0.00  0.00    +0.000 C 
ATOM     22  C   UNL     1       6.444   5.890  17.671  0.00  0.00    +0.000 C 
BRANCH  21  23
ATOM     23  C   UNL     1       4.246   5.274  19.226  0.00  0.00    +0.000 A 
ATOM     24  C   UNL     1       3.217   5.956  19.910  0.00  0.00    +0.000 A 
ATOM     25  C   UNL     1       1.960   5.397  20.134  0.00  0.00    +0.000 A 
ATOM     26  C   UNL     1       1.679   4.126  19.651  0.00  0.00    +0.000 A 
ATOM     27  C   UNL     1       2.660   3.406  18.957  0.00  0.00    +0.000 A 
ATOM     28  C   UNL     1       3.939   3.976  18.782  0.00  0.00    +0.000 A 
BRANCH  27  29
ATOM     29  C   UNL     1       2.346   2.060  18.352  0.00  0.00    +0.000 C 
ATOM     30  F   UNL     1       3.198   1.072  18.744  0.00  0.00    +0.000 F 
ATOM     31  F   UNL     1       1.098   1.627  18.690  0.00  0.00    +0.000 F 
ATOM     32  F   UNL     1       2.382   2.070  16.992  0.00  0.00    +0.000 F 
ENDBRANCH  27  29
ENDBRANCH  21  23
ENDBRANCH   3  19
TORSDOF 5
ENDMDL
MODEL 6
REMARK VINA RESULT:      -9.2      1.013      1.997
REMARK  Name = 
REMARK  8 active torsions:
REMARK  status: ('A' for Active; 'I' for Inactive)
REMARK    1  A    between atoms: C_1  and  C_2
REMARK    2  A    between atoms: N_4  and  C_5
REMARK    3  A    between atoms: C_6  and  C_7
REMARK    4  A    between atoms: C_8  and  C_9
REMARK    5  A    between atoms: C_11  and  C_12
REMARK    6  A    between atoms: N_14  and  C_15
REMARK    7  A    between atoms: C_17  and  C_18
REMARK    8  A    between atoms: C_22  and  C_23
REMARK                            x       y       z     vdW  Elec       q    Type
REMARK                         _______ _______ _______ _____ _____    ______ ____
ROOT
ATOM      1  C   UNL     1       8.150   8.358  18.316  0.00  0.00    +0.000 C 
ATOM      2  O   UNL     1       8.647   7.353  18.808  0.00  0.00    +0.000 OA
ATOM      3  N   UNL     1       7.153   8.309  17.349  0.00  0.00    +0.000 N 
ATOM      4  H   UNL     1       6.852   9.185  16.950  0.00  0.00    +0.000 HD
ENDROOT
BRANCH   1   7
ATOM      5  C   UNL     1       9.417  11.752  18.707  0.00  0.00    +0.000 A 
ATOM      6  C   UNL     1       8.454  10.923  18.080  0.00  0.00    +0.000 A 
ATOM      7  C   UNL     1       8.617   9.678  18.654  0.00  0.00    +0.000 A 
ATOM      8  N   UNL     1       9.459   9.896  19.714  0.00  0.00    +0.000 N 
ATOM      9  N   UNL     1      10.003  11.127  19.731  0.00  0.00    +0.000 NA
ATOM     10  H   UNL     1       9.763   9.214  20.402  0.00  0.00    +0.000 HD
BRANCH   5  18
ATOM     11  C   UNL     1      12.053  12.400  16.991  0.00  0.00    +0.000 C 
ATOM     12  C   UNL     1      10.988  13.332  17.441  0.00  0.00    +0.000 A 
ATOM     13  N   UNL     1      11.046  14.616  17.061  0.00  0.00    +0.000 NA
ATOM     14  N   UNL     1       9.942  15.168  17.583  0.00  0.00    +0.000 N 
ATOM     15  C   UNL     1       9.679  16.564  17.315  0.00  0.00    +0.000 C 
ATOM     16  C   UNL     1       9.166  14.291  18.301  0.00  0.00    +0.000 A 
ATOM     17  C   UNL     1       7.913  14.693  18.989  0.00  0.00    +0.000 C 
ATOM     18  C   UNL     1       9.822  13.072  18.214  0.00  0.00    +0.000 A 
ENDBRANCH   5  18
ENDBRANCH   1   7
BRANCH   3  19
ATOM     19  C   UNL     1       6.753   7.039  16.699  0.00  0.00    +0.000 C 
ATOM     20  C   UNL     1       6.507   5.864  17.662  0.00  0.00    +0.000 C 
ATOM     21  C   UNL     1       5.005   6.263  17.695  0.00  0.00    +0.000 C 
ATOM     22  C   UNL     1       5.247   6.937  16.323  0.00  0.00    +0.000 C 
BRANCH  21  23
ATOM     23  C   UNL     1       3.988   5.072  17.925  0.00  0.00    +0.000 A 
ATOM     24  C   UNL     1       4.016   3.969  17.044  0.00  0.00    +0.000 A 
ATOM     25  C   UNL     1       3.186   2.860  17.197  0.00  0.00    +0.000 A 
ATOM     26  C   UNL     1       2.305   2.805  18.268  0.00  0.00    +0.000 A 
ATOM     27  C   UNL     1       2.241   3.868  19.180  0.00  0.00    +0.000 A 
ATOM     28  C   UNL     1       3.060   5.000  18.978  0.00  0.00    +0.000 A 
BRANCH  27  29
ATOM     29  C   UNL     1       1.352   3.788  20.396  0.00  0.00    +0.000 C 
ATOM     30  F   UNL     1       0.393   2.824  20.311  0.00  0.00    +0.000 F 
ATOM     31  F   UNL     1       2.058   3.506  21.528  0.00  0.00    +0.000 F 
ATOM     32  F   UNL     1       0.694   4.952  20.647  0.00  0.00    +0.000 F 
ENDBRANCH  27  29
ENDBRANCH  21  23
ENDBRANCH   3  19
TORSDOF 5
ENDMDL
MODEL 7
REMARK VINA RESULT:      -9.1      1.312      1.372
REMARK  Name = 
REMARK  8 active torsions:
REMARK  status: ('A' for Active; 'I' for Inactive)
REMARK    1  A    between atoms: C_1  and  C_2
REMARK    2  A    between atoms: N_4  and  C_5
REMARK    3  A    between atoms: C_6  and  C_7
REMARK    4  A    between atoms: C_8  and  C_9
REMARK    5  A    between atoms: C_11  and  C_12
REMARK    6  A    between atoms: N_14  and  C_15
REMARK    7  A    between atoms: C_17  and  C_18
REMARK    8  A    between atoms: C_22  and  C_23
REMARK                            x       y       z     vdW  Elec       q    Type
REMARK                         _______ _______ _______ _____ _____    ______ ____
ROOT
ATOM      1  C   UNL     1       8.369   8.879  18.174  0.00  0.00    +0.000 C 
ATOM      2  O   UNL     1       8.954   8.290  19.074  0.00  0.00    +0.000 OA
ATOM      3  N   UNL     1       7.475   8.248  17.317  0.00  0.00    +0.000 N 
ATOM      4  H   UNL     1       7.093   8.795  16.562  0.00  0.00    +0.000 HD
ENDROOT
BRANCH   1   7
ATOM      5  C   UNL     1       9.169  12.423  17.898  0.00  0.00    +0.000 A 
ATOM      6  C   UNL     1       9.668  11.124  18.163  0.00  0.00    +0.000 A 
ATOM      7  C   UNL     1       8.620  10.269  17.889  0.00  0.00    +0.000 A 
ATOM      8  N   UNL     1       7.686  11.058  17.268  0.00  0.00    +0.000 N 
ATOM      9  N   UNL     1       7.969  12.373  17.316  0.00  0.00    +0.000 NA
ATOM     10  H   UNL     1       6.799  10.759  16.875  0.00  0.00    +0.000 HD
BRANCH   5  18
ATOM     11  C   UNL     1       8.103  14.414  20.181  0.00  0.00    +0.000 C 
ATOM     12  C   UNL     1       9.334  14.524  19.357  0.00  0.00    +0.000 A 
ATOM     13  N   UNL     1      10.186  15.532  19.591  0.00  0.00    +0.000 NA
ATOM     14  N   UNL     1      11.192  15.326  18.730  0.00  0.00    +0.000 N 
ATOM     15  C   UNL     1      12.317  16.233  18.757  0.00  0.00    +0.000 C 
ATOM     16  C   UNL     1      11.025  14.221  17.932  0.00  0.00    +0.000 A 
ATOM     17  C   UNL     1      12.003  13.819  16.889  0.00  0.00    +0.000 C 
ATOM     18  C   UNL     1       9.819  13.665  18.331  0.00  0.00    +0.000 A 
ENDBRANCH   5  18
ENDBRANCH   1   7
BRANCH   3  19
ATOM     19  C   UNL     1       7.310   6.775  17.302  0.00  0.00    +0.000 C 
ATOM     20  C   UNL     1       6.492   6.200  18.473  0.00  0.00    +0.000 C 
ATOM     21  C   UNL     1       5.224   6.301  17.578  0.00  0.00    +0.000 C 
ATOM     22  C   UNL     1       6.186   6.247  16.366  0.00  0.00    +0.000 C 
BRANCH  21  23
ATOM     23  C   UNL     1       4.101   5.222  17.861  0.00  0.00    +0.000 A 
ATOM     24  C   UNL     1       4.015   4.089  17.023  0.00  0.00    +0.000 A 
ATOM     25  C   UNL     1       3.086   3.070  17.226  0.00  0.00    +0.000 A 
ATOM     26  C   UNL     1       2.215   3.141  18.304  0.00  0.00    +0.000 A 
ATOM     27  C   UNL     1       2.262   4.239  19.174  0.00  0.00    +0.000 A 
ATOM     28  C   UNL     1       3.182   5.279  18.923  0.00  0.00    +0.000 A 
BRANCH  27  29
ATOM     29  C   UNL     1       1.382   4.290  20.399  0.00  0.00    +0.000 C 
ATOM     30  F   UNL     1       1.153   5.554  20.855  0.00  0.00    +0.000 F 
ATOM     31  F   UNL     1       0.151   3.753  20.167  0.00  0.00    +0.000 F 
ATOM     32  F   UNL     1       1.899   3.599  21.451  0.00  0.00    +0.000 F 
ENDBRANCH  27  29
ENDBRANCH  21  23
ENDBRANCH   3  19
TORSDOF 5
ENDMDL
MODEL 8
REMARK VINA RESULT:      -8.9      7.546     10.550
REMARK  Name = 
REMARK  8 active torsions:
REMARK  status: ('A' for Active; 'I' for Inactive)
REMARK    1  A    between atoms: C_1  and  C_2
REMARK    2  A    between atoms: N_4  and  C_5
REMARK    3  A    between atoms: C_6  and  C_7
REMARK    4  A    between atoms: C_8  and  C_9
REMARK    5  A    between atoms: C_11  and  C_12
REMARK    6  A    between atoms: N_14  and  C_15
REMARK    7  A    between atoms: C_17  and  C_18
REMARK    8  A    between atoms: C_22  and  C_23
REMARK                            x       y       z     vdW  Elec       q    Type
REMARK                         _______ _______ _______ _____ _____    ______ ____
ROOT
ATOM      1  C   UNL     1       0.863   9.634  18.832  0.00  0.00    +0.000 C 
ATOM      2  O   UNL     1       0.182   9.868  17.842  0.00  0.00    +0.000 OA
ATOM      3  N   UNL     1       0.841  10.434  19.968  0.00  0.00    +0.000 N 
ATOM      4  H   UNL     1       1.486  10.206  20.709  0.00  0.00    +0.000 HD
ENDROOT
BRANCH   1   7
ATOM      5  C   UNL     1       3.062   6.749  18.492  0.00  0.00    +0.000 A 
ATOM      6  C   UNL     1       2.647   7.981  17.930  0.00  0.00    +0.000 A 
ATOM      7  C   UNL     1       1.801   8.541  18.866  0.00  0.00    +0.000 A 
ATOM      8  N   UNL     1       1.957   7.758  19.981  0.00  0.00    +0.000 N 
ATOM      9  N   UNL     1       2.666   6.636  19.762  0.00  0.00    +0.000 NA
ATOM     10  H   UNL     1       1.527   7.900  20.890  0.00  0.00    +0.000 HD
BRANCH   5  18
ATOM     11  C   UNL     1       1.836   3.842  17.891  0.00  0.00    +0.000 C 
ATOM     12  C   UNL     1       3.149   4.398  17.473  0.00  0.00    +0.000 A 
ATOM     13  N   UNL     1       3.948   3.661  16.689  0.00  0.00    +0.000 NA
ATOM     14  N   UNL     1       5.009   4.446  16.461  0.00  0.00    +0.000 N 
ATOM     15  C   UNL     1       6.057   3.953  15.597  0.00  0.00    +0.000 C 
ATOM     16  C   UNL     1       4.938   5.672  17.078  0.00  0.00    +0.000 A 
ATOM     17  C   UNL     1       6.015   6.690  16.986  0.00  0.00    +0.000 C 
ATOM     18  C   UNL     1       3.719   5.675  17.740  0.00  0.00    +0.000 A 
ENDBRANCH   5  18
ENDBRANCH   1   7
BRANCH   3  19
ATOM     19  C   UNL     1       0.139  11.739  19.995  0.00  0.00    +0.000 C 
ATOM     20  C   UNL     1      -1.312  11.688  20.506  0.00  0.00    +0.000 C 
ATOM     21  C   UNL     1      -0.774  12.005  21.930  0.00  0.00    +0.000 C 
ATOM     22  C   UNL     1       0.454  12.633  21.228  0.00  0.00    +0.000 C 
BRANCH  21  23
ATOM     23  C   UNL     1      -1.761  12.812  22.868  0.00  0.00    +0.000 A 
ATOM     24  C   UNL     1      -1.272  13.935  23.570  0.00  0.00    +0.000 A 
ATOM     25  C   UNL     1      -2.081  14.728  24.383  0.00  0.00    +0.000 A 
ATOM     26  C   UNL     1      -3.432  14.432  24.503  0.00  0.00    +0.000 A 
ATOM     27  C   UNL     1      -3.973  13.333  23.822  0.00  0.00    +0.000 A 
ATOM     28  C   UNL     1      -3.125  12.520  23.040  0.00  0.00    +0.000 A 
BRANCH  27  29
ATOM     29  C   UNL     1      -5.454  13.048  23.872  0.00  0.00    +0.000 C 
ATOM     30  F   UNL     1      -5.956  12.556  22.705  0.00  0.00    +0.000 F 
ATOM     31  F   UNL     1      -5.764  12.124  24.825  0.00  0.00    +0.000 F 
ATOM     32  F   UNL     1      -6.195  14.150  24.165  0.00  0.00    +0.000 F 
ENDBRANCH  27  29
ENDBRANCH  21  23
ENDBRANCH   3  19
TORSDOF 5
ENDMDL
MODEL 9
REMARK VINA RESULT:      -8.9      8.336     10.420
REMARK  Name = 
REMARK  8 active torsions:
REMARK  status: ('A' for Active; 'I' for Inactive)
REMARK    1  A    between atoms: C_1  and  C_2
REMARK    2  A    between atoms: N_4  and  C_5
REMARK    3  A    between atoms: C_6  and  C_7
REMARK    4  A    between atoms: C_8  and  C_9
REMARK    5  A    between atoms: C_11  and  C_12
REMARK    6  A    between atoms: N_14  and  C_15
REMARK    7  A    between atoms: C_17  and  C_18
REMARK    8  A    between atoms: C_22  and  C_23
REMARK                            x       y       z     vdW  Elec       q    Type
REMARK                         _______ _______ _______ _____ _____    ______ ____
ROOT
ATOM      1  C   UNL     1       0.273  10.872  18.860  0.00  0.00    +0.000 C 
ATOM      2  O   UNL     1       1.146  11.705  18.652  0.00  0.00    +0.000 OA
ATOM      3  N   UNL     1       0.556   9.562  19.226  0.00  0.00    +0.000 N 
ATOM      4  H   UNL     1      -0.222   8.926  19.310  0.00  0.00    +0.000 HD
ENDROOT
BRANCH   1   7
ATOM      5  C   UNL     1      -3.264  11.740  18.844  0.00  0.00    +0.000 A 
ATOM      6  C   UNL     1      -1.948  12.187  19.112  0.00  0.00    +0.000 A 
ATOM      7  C   UNL     1      -1.123  11.172  18.671  0.00  0.00    +0.000 A 
ATOM      8  N   UNL     1      -1.952  10.334  17.973  0.00  0.00    +0.000 N 
ATOM      9  N   UNL     1      -3.259  10.622  18.114  0.00  0.00    +0.000 NA
ATOM     10  H   UNL     1      -1.685   9.500  17.459  0.00  0.00    +0.000 HD
BRANCH   5  18
ATOM     11  C   UNL     1      -5.950  12.450  17.231  0.00  0.00    +0.000 C 
ATOM     12  C   UNL     1      -5.661  12.635  18.677  0.00  0.00    +0.000 A 
ATOM     13  N   UNL     1      -6.629  13.099  19.479  0.00  0.00    +0.000 NA
ATOM     14  N   UNL     1      -6.076  13.108  20.699  0.00  0.00    +0.000 N 
ATOM     15  C   UNL     1      -6.888  13.523  21.820  0.00  0.00    +0.000 C 
ATOM     16  C   UNL     1      -4.772  12.675  20.723  0.00  0.00    +0.000 A 
ATOM     17  C   UNL     1      -3.955  12.629  21.963  0.00  0.00    +0.000 C 
ATOM     18  C   UNL     1      -4.476  12.344  19.409  0.00  0.00    +0.000 A 
ENDBRANCH   5  18
ENDBRANCH   1   7
BRANCH   3  19
ATOM     19  C   UNL     1       1.935   9.020  19.202  0.00  0.00    +0.000 C 
ATOM     20  C   UNL     1       2.074   7.569  19.698  0.00  0.00    +0.000 C 
ATOM     21  C   UNL     1       1.917   7.098  18.225  0.00  0.00    +0.000 C 
ATOM     22  C   UNL     1       2.418   8.505  17.816  0.00  0.00    +0.000 C 
BRANCH  21  23
ATOM     23  C   UNL     1       2.666   5.754  17.855  0.00  0.00    +0.000 A 
ATOM     24  C   UNL     1       1.963   4.532  17.940  0.00  0.00    +0.000 A 
ATOM     25  C   UNL     1       2.531   3.309  17.593  0.00  0.00    +0.000 A 
ATOM     26  C   UNL     1       3.835   3.268  17.117  0.00  0.00    +0.000 A 
ATOM     27  C   UNL     1       4.577   4.452  17.003  0.00  0.00    +0.000 A 
ATOM     28  C   UNL     1       3.995   5.673  17.403  0.00  0.00    +0.000 A 
BRANCH  27  29
ATOM     29  C   UNL     1       5.964   4.437  16.407  0.00  0.00    +0.000 C 
ATOM     30  F   UNL     1       6.955   4.299  17.333  0.00  0.00    +0.000 F 
ATOM     31  F   UNL     1       6.133   3.408  15.530  0.00  0.00    +0.000 F 
ATOM     32  F   UNL     1       6.253   5.571  15.714  0.00  0.00    +0.000 F 
ENDBRANCH  27  29
ENDBRANCH  21  23
ENDBRANCH   3  19
TORSDOF 5
ENDMDL
