MODEL 1
REMARK VINA RESULT:      -8.5      0.000      0.000
REMARK  Name = 
REMARK  3 active torsions:
REMARK  status: ('A' for Active; 'I' for Inactive)
REMARK    1  A    between atoms: C_2  and  C_3
REMARK    2  A    between atoms: C_6  and  C_7
REMARK    3  A    between atoms: C_7  and  N_8
REMARK                            x       y       z     vdW  Elec       q    Type
REMARK                         _______ _______ _______ _____ _____    ______ ____
ROOT
ATOM      1  O   UNL     1       0.937   4.539  20.584  0.00  0.00    +0.000 OA
ATOM      2  C   UNL     1       1.959   5.172  20.349  0.00  0.00    +0.000 C 
ATOM      3  N   UNL     1       3.255   4.622  20.415  0.00  0.00    +0.000 N 
ATOM      4  C   UNL     1       3.422   3.170  20.629  0.00  0.00    +0.000 C 
ATOM      5  C   UNL     1       4.619   2.760  19.716  0.00  0.00    +0.000 C 
ATOM      6  C   UNL     1       4.560   3.822  18.626  0.00  0.00    +0.000 C 
ATOM      7  C   UNL     1       4.307   5.065  19.514  0.00  0.00    +0.000 C 
ATOM      8  C   UNL     1       3.295   3.603  17.746  0.00  0.00    +0.000 C 
ATOM      9  O   UNL     1       2.313   2.915  17.948  0.00  0.00    +0.000 OA
ATOM     10  N   UNL     1       3.521   4.333  16.580  0.00  0.00    +0.000 N 
ATOM     11  C   UNL     1       4.876   4.545  16.422  0.00  0.00    +0.000 A 
ATOM     12  C   UNL     1       5.450   5.003  15.256  0.00  0.00    +0.000 A 
ATOM     13  C   UNL     1       6.829   5.066  15.235  0.00  0.00    +0.000 A 
ATOM     14  C   UNL     1       7.578   4.723  16.398  0.00  0.00    +0.000 A 
ATOM     15  C   UNL     1       6.958   4.283  17.573  0.00  0.00    +0.000 A 
ATOM     16  C   UNL     1       5.586   4.161  17.573  0.00  0.00    +0.000 A 
ATOM     17  H   UNL     1       2.861   5.068  16.353  0.00  0.00    +0.000 HD
ENDROOT
BRANCH   2  18
ATOM     18  C   UNL     1       1.812   6.611  19.940  0.00  0.00    +0.000 A 
ATOM     19  C   UNL     1       2.146   7.029  18.648  0.00  0.00    +0.000 A 
ATOM     20  C   UNL     1       1.946   8.356  18.255  0.00  0.00    +0.000 A 
ATOM     21  C   UNL     1       1.428   9.301  19.154  0.00  0.00    +0.000 A 
ATOM     22  C   UNL     1       1.134   8.888  20.461  0.00  0.00    +0.000 A 
ATOM     23  C   UNL     1       1.329   7.555  20.857  0.00  0.00    +0.000 A 
BRANCH  21  24
ATOM     24  C   UNL     1       1.203  10.731  18.721  0.00  0.00    +0.000 C 
BRANCH  24  25
ATOM     25  N   UNL     1      -0.209  11.086  18.700  0.00  0.00    +0.000 N 
ATOM     26  C   UNL     1      -1.200  10.444  18.010  0.00  0.00    +0.000 A 
ATOM     27  C   UNL     1      -2.359  11.098  18.354  0.00  0.00    +0.000 A 
ATOM     28  N   UNL     1      -2.105  12.099  19.251  0.00  0.00    +0.000 NA
ATOM     29  C   UNL     1      -0.804  12.058  19.456  0.00  0.00    +0.000 A 
ENDBRANCH  24  25
ENDBRANCH  21  24
ENDBRANCH   2  18
TORSDOF 3
ENDMDL
MODEL 2
REMARK VINA RESULT:      -8.2      0.376      1.198
REMARK  Name = 
REMARK  3 active torsions:
REMARK  status: ('A' for Active; 'I' for Inactive)
REMARK    1  A    between atoms: C_2  and  C_3
REMARK    2  A    between atoms: C_6  and  C_7
REMARK    3  A    between atoms: C_7  and  N_8
REMARK                            x       y       z     vdW  Elec       q    Type
REMARK                         _______ _______ _______ _____ _____    ______ ____
ROOT
ATOM      1  O   UNL     1       0.900   4.551  20.535  0.00  0.00    +0.000 OA
ATOM      2  C   UNL     1       1.914   5.194  20.291  0.00  0.00    +0.000 C 
ATOM      3  N   UNL     1       3.217   4.667  20.381  0.00  0.00    +0.000 N 
ATOM      4  C   UNL     1       3.406   3.223  20.633  0.00  0.00    +0.000 C 
ATOM      5  C   UNL     1       4.617   2.810  19.740  0.00  0.00    +0.000 C 
ATOM      6  C   UNL     1       4.550   3.844  18.624  0.00  0.00    +0.000 C 
ATOM      7  C   UNL     1       4.270   5.104  19.478  0.00  0.00    +0.000 C 
ATOM      8  C   UNL     1       3.296   3.582  17.739  0.00  0.00    +0.000 C 
ATOM      9  O   UNL     1       2.323   2.884  17.950  0.00  0.00    +0.000 OA
ATOM     10  N   UNL     1       3.520   4.287  16.557  0.00  0.00    +0.000 N 
ATOM     11  C   UNL     1       4.873   4.516  16.405  0.00  0.00    +0.000 A 
ATOM     12  C   UNL     1       5.449   4.953  15.232  0.00  0.00    +0.000 A 
ATOM     13  C   UNL     1       6.827   5.038  15.220  0.00  0.00    +0.000 A 
ATOM     14  C   UNL     1       7.572   4.736  16.398  0.00  0.00    +0.000 A 
ATOM     15  C   UNL     1       6.949   4.316  17.578  0.00  0.00    +0.000 A 
ATOM     16  C   UNL     1       5.579   4.172  17.571  0.00  0.00    +0.000 A 
ATOM     17  H   UNL     1       2.850   5.005  16.307  0.00  0.00    +0.000 HD
ENDROOT
BRANCH   2  18
ATOM     18  C   UNL     1       1.747   6.620  19.845  0.00  0.00    +0.000 A 
ATOM     19  C   UNL     1       1.283   7.599  20.727  0.00  0.00    +0.000 A 
ATOM     20  C   UNL     1       1.192   8.936  20.324  0.00  0.00    +0.000 A 
ATOM     21  C   UNL     1       1.542   9.317  19.020  0.00  0.00    +0.000 A 
ATOM     22  C   UNL     1       1.967   8.325  18.124  0.00  0.00    +0.000 A 
ATOM     23  C   UNL     1       2.064   6.984  18.529  0.00  0.00    +0.000 A 
BRANCH  21  24
ATOM     24  C   UNL     1       1.452  10.764  18.591  0.00  0.00    +0.000 C 
BRANCH  24  25
ATOM     25  N   UNL     1       0.178  11.368  18.952  0.00  0.00    +0.000 N 
ATOM     26  C   UNL     1      -0.026  12.340  19.893  0.00  0.00    +0.000 A 
ATOM     27  C   UNL     1      -1.369  12.629  19.826  0.00  0.00    +0.000 A 
ATOM     28  N   UNL     1      -1.979  11.882  18.856  0.00  0.00    +0.000 NA
ATOM     29  C   UNL     1      -1.020  11.144  18.333  0.00  0.00    +0.000 A 
ENDBRANCH  24  25
ENDBRANCH  21  24
ENDBRANCH   2  18
TORSDOF 3
ENDMDL
MODEL 3
REMARK VINA RESULT:      -8.0      0.972      1.260
REMARK  Name = 
REMARK  3 active torsions:
REMARK  status: ('A' for Active; 'I' for Inactive)
REMARK    1  A    between atoms: C_2  and  C_3
REMARK    2  A    between atoms: C_6  and  C_7
REMARK    3  A    between atoms: C_7  and  N_8
REMARK                            x       y       z     vdW  Elec       q    Type
REMARK                         _______ _______ _______ _____ _____    ______ ____
ROOT
ATOM      1  O   UNL     1       0.887   4.586  20.547  0.00  0.00    +0.000 OA
ATOM      2  C   UNL     1       1.913   5.216  20.320  0.00  0.00    +0.000 C 
ATOM      3  N   UNL     1       3.205   4.657  20.385  0.00  0.00    +0.000 N 
ATOM      4  C   UNL     1       3.363   3.201  20.587  0.00  0.00    +0.000 C 
ATOM      5  C   UNL     1       4.560   2.792  19.673  0.00  0.00    +0.000 C 
ATOM      6  C   UNL     1       4.511   3.864  18.593  0.00  0.00    +0.000 C 
ATOM      7  C   UNL     1       4.263   5.101  19.491  0.00  0.00    +0.000 C 
ATOM      8  C   UNL     1       3.247   3.660  17.707  0.00  0.00    +0.000 C 
ATOM      9  O   UNL     1       2.260   2.977  17.900  0.00  0.00    +0.000 OA
ATOM     10  N   UNL     1       3.481   4.399  16.548  0.00  0.00    +0.000 N 
ATOM     11  C   UNL     1       4.838   4.604  16.397  0.00  0.00    +0.000 A 
ATOM     12  C   UNL     1       5.419   5.068  15.236  0.00  0.00    +0.000 A 
ATOM     13  C   UNL     1       6.798   5.123  15.219  0.00  0.00    +0.000 A 
ATOM     14  C   UNL     1       7.542   4.765  16.382  0.00  0.00    +0.000 A 
ATOM     15  C   UNL     1       6.915   4.318  17.551  0.00  0.00    +0.000 A 
ATOM     16  C   UNL     1       5.542   4.205  17.546  0.00  0.00    +0.000 A 
ATOM     17  H   UNL     1       2.826   5.140  16.326  0.00  0.00    +0.000 HD
ENDROOT
BRANCH   2  18
ATOM     18  C   UNL     1       1.777   6.659  19.923  0.00  0.00    +0.000 A 
ATOM     19  C   UNL     1       2.138   7.089  18.643  0.00  0.00    +0.000 A 
ATOM     20  C   UNL     1       1.948   8.421  18.259  0.00  0.00    +0.000 A 
ATOM     21  C   UNL     1       1.412   9.357  19.157  0.00  0.00    +0.000 A 
ATOM     22  C   UNL     1       1.090   8.931  20.454  0.00  0.00    +0.000 A 
ATOM     23  C   UNL     1       1.276   7.594  20.840  0.00  0.00    +0.000 A 
BRANCH  21  24
ATOM     24  C   UNL     1       1.198  10.792  18.735  0.00  0.00    +0.000 C 
BRANCH  24  25
ATOM     25  N   UNL     1       0.695  11.618  19.823  0.00  0.00    +0.000 N 
ATOM     26  C   UNL     1      -0.596  11.675  20.272  0.00  0.00    +0.000 A 
ATOM     27  C   UNL     1      -0.565  12.536  21.345  0.00  0.00    +0.000 A 
ATOM     28  N   UNL     1       0.708  12.981  21.574  0.00  0.00    +0.000 NA
ATOM     29  C   UNL     1       1.450  12.398  20.654  0.00  0.00    +0.000 A 
ENDBRANCH  24  25
ENDBRANCH  21  24
ENDBRANCH   2  18
TORSDOF 3
ENDMDL
MODEL 4
REMARK VINA RESULT:      -8.0      2.923      8.868
REMARK  Name = 
REMARK  3 active torsions:
REMARK  status: ('A' for Active; 'I' for Inactive)
REMARK    1  A    between atoms: C_2  and  C_3
REMARK    2  A    between atoms: C_6  and  C_7
REMARK    3  A    between atoms: C_7  and  N_8
REMARK                            x       y       z     vdW  Elec       q    Type
REMARK                         _______ _______ _______ _____ _____    ______ ____
ROOT
ATOM      1  O   UNL     1       1.686  11.736  21.199  0.00  0.00    +0.000 OA
ATOM      2  C   UNL     1       0.824  10.941  20.843  0.00  0.00    +0.000 C 
ATOM      3  N   UNL     1      -0.557  11.144  21.038  0.00  0.00    +0.000 N 
ATOM      4  C   UNL     1      -1.039  12.440  21.561  0.00  0.00    +0.000 C 
ATOM      5  C   UNL     1      -2.350  12.734  20.768  0.00  0.00    +0.000 C 
ATOM      6  C   UNL     1      -2.116  11.964  19.476  0.00  0.00    +0.000 C 
ATOM      7  C   UNL     1      -1.532  10.661  20.074  0.00  0.00    +0.000 C 
ATOM      8  C   UNL     1      -0.989  12.652  18.651  0.00  0.00    +0.000 C 
ATOM      9  O   UNL     1      -0.181  13.496  18.986  0.00  0.00    +0.000 OA
ATOM     10  N   UNL     1      -1.112  12.146  17.357  0.00  0.00    +0.000 N 
ATOM     11  C   UNL     1      -2.389  11.657  17.172  0.00  0.00    +0.000 A 
ATOM     12  C   UNL     1      -2.913  11.327  15.940  0.00  0.00    +0.000 A 
ATOM     13  C   UNL     1      -4.240  10.946  15.919  0.00  0.00    +0.000 A 
ATOM     14  C   UNL     1      -4.976  10.855  17.137  0.00  0.00    +0.000 A 
ATOM     15  C   UNL     1      -4.403  11.177  18.372  0.00  0.00    +0.000 A 
ATOM     16  C   UNL     1      -3.098  11.617  18.385  0.00  0.00    +0.000 A 
ATOM     17  H   UNL     1      -0.316  11.651  16.972  0.00  0.00    +0.000 HD
ENDROOT
BRANCH   2  18
ATOM     18  C   UNL     1       1.271   9.694  20.134  0.00  0.00    +0.000 A 
ATOM     19  C   UNL     1       1.562   9.710  18.767  0.00  0.00    +0.000 A 
ATOM     20  C   UNL     1       2.039   8.562  18.126  0.00  0.00    +0.000 A 
ATOM     21  C   UNL     1       2.214   7.364  18.837  0.00  0.00    +0.000 A 
ATOM     22  C   UNL     1       1.881   7.340  20.198  0.00  0.00    +0.000 A 
ATOM     23  C   UNL     1       1.407   8.493  20.845  0.00  0.00    +0.000 A 
BRANCH  21  24
ATOM     24  C   UNL     1       2.741   6.129  18.143  0.00  0.00    +0.000 C 
BRANCH  24  25
ATOM     25  N   UNL     1       4.189   6.016  18.240  0.00  0.00    +0.000 N 
ATOM     26  C   UNL     1       4.890   5.330  19.193  0.00  0.00    +0.000 A 
ATOM     27  C   UNL     1       6.211   5.461  18.830  0.00  0.00    +0.000 A 
ATOM     28  N   UNL     1       6.328   6.182  17.675  0.00  0.00    +0.000 NA
ATOM     29  C   UNL     1       5.094   6.489  17.331  0.00  0.00    +0.000 A 
ENDBRANCH  24  25
ENDBRANCH  21  24
ENDBRANCH   2  18
TORSDOF 3
ENDMDL
MODEL 5
REMARK VINA RESULT:      -7.8      3.159      8.759
REMARK  Name = 
REMARK  3 active torsions:
REMARK  status: ('A' for Active; 'I' for Inactive)
REMARK    1  A    between atoms: C_2  and  C_3
REMARK    2  A    between atoms: C_6  and  C_7
REMARK    3  A    between atoms: C_7  and  N_8
REMARK                            x       y       z     vdW  Elec       q    Type
REMARK                         _______ _______ _______ _____ _____    ______ ____
ROOT
ATOM      1  O   UNL     1       1.641  11.601  21.211  0.00  0.00    +0.000 OA
ATOM      2  C   UNL     1       0.791  10.812  20.818  0.00  0.00    +0.000 C 
ATOM      3  N   UNL     1      -0.594  11.004  20.987  0.00  0.00    +0.000 N 
ATOM      4  C   UNL     1      -1.094  12.286  21.528  0.00  0.00    +0.000 C 
ATOM      5  C   UNL     1      -2.389  12.594  20.713  0.00  0.00    +0.000 C 
ATOM      6  C   UNL     1      -2.122  11.854  19.409  0.00  0.00    +0.000 C 
ATOM      7  C   UNL     1      -1.546  10.539  19.990  0.00  0.00    +0.000 C 
ATOM      8  C   UNL     1      -0.981  12.565  18.625  0.00  0.00    +0.000 C 
ATOM      9  O   UNL     1      -0.183  13.404  18.997  0.00  0.00    +0.000 OA
ATOM     10  N   UNL     1      -1.073  12.087  17.318  0.00  0.00    +0.000 N 
ATOM     11  C   UNL     1      -2.344  11.598  17.093  0.00  0.00    +0.000 A 
ATOM     12  C   UNL     1      -2.838  11.294  15.843  0.00  0.00    +0.000 A 
ATOM     13  C   UNL     1      -4.163  10.908  15.784  0.00  0.00    +0.000 A 
ATOM     14  C   UNL     1      -4.926  10.786  16.983  0.00  0.00    +0.000 A 
ATOM     15  C   UNL     1      -4.382  11.083  18.238  0.00  0.00    +0.000 A 
ATOM     16  C   UNL     1      -3.079  11.528  18.289  0.00  0.00    +0.000 A 
ATOM     17  H   UNL     1      -0.266  11.604  16.940  0.00  0.00    +0.000 HD
ENDROOT
BRANCH   2  18
ATOM     18  C   UNL     1       1.259   9.582  20.091  0.00  0.00    +0.000 A 
ATOM     19  C   UNL     1       1.487   9.607  18.712  0.00  0.00    +0.000 A 
ATOM     20  C   UNL     1       1.984   8.478  18.052  0.00  0.00    +0.000 A 
ATOM     21  C   UNL     1       2.243   7.291  18.755  0.00  0.00    +0.000 A 
ATOM     22  C   UNL     1       1.973   7.257  20.131  0.00  0.00    +0.000 A 
ATOM     23  C   UNL     1       1.479   8.391  20.797  0.00  0.00    +0.000 A 
BRANCH  21  24
ATOM     24  C   UNL     1       2.790   6.077  18.041  0.00  0.00    +0.000 C 
BRANCH  24  25
ATOM     25  N   UNL     1       2.616   4.856  18.815  0.00  0.00    +0.000 N 
ATOM     26  C   UNL     1       1.503   4.061  18.841  0.00  0.00    +0.000 A 
ATOM     27  C   UNL     1       1.838   3.004  19.655  0.00  0.00    +0.000 A 
ATOM     28  N   UNL     1       3.125   3.121  20.100  0.00  0.00    +0.000 NA
ATOM     29  C   UNL     1       3.577   4.237  19.564  0.00  0.00    +0.000 A 
ENDBRANCH  24  25
ENDBRANCH  21  24
ENDBRANCH   2  18
TORSDOF 3
ENDMDL
MODEL 6
REMARK VINA RESULT:      -7.7      2.844      8.806
REMARK  Name = 
REMARK  3 active torsions:
REMARK  status: ('A' for Active; 'I' for Inactive)
REMARK    1  A    between atoms: C_2  and  C_3
REMARK    2  A    between atoms: C_6  and  C_7
REMARK    3  A    between atoms: C_7  and  N_8
REMARK                            x       y       z     vdW  Elec       q    Type
REMARK                         _______ _______ _______ _____ _____    ______ ____
ROOT
ATOM      1  O   UNL     1       1.694  11.403  21.435  0.00  0.00    +0.000 OA
ATOM      2  C   UNL     1       0.849  10.636  20.989  0.00  0.00    +0.000 C 
ATOM      3  N   UNL     1      -0.539  10.821  21.146  0.00  0.00    +0.000 N 
ATOM      4  C   UNL     1      -1.046  12.074  21.744  0.00  0.00    +0.000 C 
ATOM      5  C   UNL     1      -2.328  12.424  20.926  0.00  0.00    +0.000 C 
ATOM      6  C   UNL     1      -2.041  11.753  19.590  0.00  0.00    +0.000 C 
ATOM      7  C   UNL     1      -1.475  10.410  20.111  0.00  0.00    +0.000 C 
ATOM      8  C   UNL     1      -0.887  12.503  18.862  0.00  0.00    +0.000 C 
ATOM      9  O   UNL     1      -0.096  13.320  19.289  0.00  0.00    +0.000 OA
ATOM     10  N   UNL     1      -0.958  12.094  17.531  0.00  0.00    +0.000 N 
ATOM     11  C   UNL     1      -2.225  11.618  17.260  0.00  0.00    +0.000 A 
ATOM     12  C   UNL     1      -2.700  11.380  15.988  0.00  0.00    +0.000 A 
ATOM     13  C   UNL     1      -4.023  10.999  15.889  0.00  0.00    +0.000 A 
ATOM     14  C   UNL     1      -4.805  10.816  17.067  0.00  0.00    +0.000 A 
ATOM     15  C   UNL     1      -4.281  11.046  18.344  0.00  0.00    +0.000 A 
ATOM     16  C   UNL     1      -2.979  11.487  18.439  0.00  0.00    +0.000 A 
ATOM     17  H   UNL     1      -0.146  11.630  17.140  0.00  0.00    +0.000 HD
ENDROOT
BRANCH   2  18
ATOM     18  C   UNL     1       1.329   9.446  20.206  0.00  0.00    +0.000 A 
ATOM     19  C   UNL     1       1.514   8.206  20.824  0.00  0.00    +0.000 A 
ATOM     20  C   UNL     1       1.898   7.088  20.077  0.00  0.00    +0.000 A 
ATOM     21  C   UNL     1       2.129   7.192  18.697  0.00  0.00    +0.000 A 
ATOM     22  C   UNL     1       1.984   8.446  18.087  0.00  0.00    +0.000 A 
ATOM     23  C   UNL     1       1.593   9.569  18.834  0.00  0.00    +0.000 A 
BRANCH  21  24
ATOM     24  C   UNL     1       2.534   5.978  17.891  0.00  0.00    +0.000 C 
BRANCH  24  25
ATOM     25  N   UNL     1       3.551   5.183  18.565  0.00  0.00    +0.000 N 
ATOM     26  C   UNL     1       3.400   3.916  19.055  0.00  0.00    +0.000 A 
ATOM     27  C   UNL     1       4.641   3.568  19.536  0.00  0.00    +0.000 A 
ATOM     28  N   UNL     1       5.543   4.574  19.328  0.00  0.00    +0.000 NA
ATOM     29  C   UNL     1       4.864   5.529  18.725  0.00  0.00    +0.000 A 
ENDBRANCH  24  25
ENDBRANCH  21  24
ENDBRANCH   2  18
TORSDOF 3
ENDMDL
MODEL 7
REMARK VINA RESULT:      -7.1      3.096      9.030
REMARK  Name = 
REMARK  3 active torsions:
REMARK  status: ('A' for Active; 'I' for Inactive)
REMARK    1  A    between atoms: C_2  and  C_3
REMARK    2  A    between atoms: C_6  and  C_7
REMARK    3  A    between atoms: C_7  and  N_8
REMARK                            x       y       z     vdW  Elec       q    Type
REMARK                         _______ _______ _______ _____ _____    ______ ____
ROOT
ATOM      1  O   UNL     1       1.914  12.540  21.033  0.00  0.00    +0.000 OA
ATOM      2  C   UNL     1       0.936  11.802  21.044  0.00  0.00    +0.000 C 
ATOM      3  N   UNL     1      -0.388  12.257  21.195  0.00  0.00    +0.000 N 
ATOM      4  C   UNL     1      -0.666  13.709  21.193  0.00  0.00    +0.000 C 
ATOM      5  C   UNL     1      -1.999  13.866  20.396  0.00  0.00    +0.000 C 
ATOM      6  C   UNL     1      -1.971  12.639  19.494  0.00  0.00    +0.000 C 
ATOM      7  C   UNL     1      -1.495  11.590  20.528  0.00  0.00    +0.000 C 
ATOM      8  C   UNL     1      -0.849  12.796  18.427  0.00  0.00    +0.000 C 
ATOM      9  O   UNL     1       0.080  13.579  18.380  0.00  0.00    +0.000 OA
ATOM     10  N   UNL     1      -1.144  11.861  17.435  0.00  0.00    +0.000 N 
ATOM     11  C   UNL     1      -2.481  11.526  17.499  0.00  0.00    +0.000 A 
ATOM     12  C   UNL     1      -3.147  10.833  16.511  0.00  0.00    +0.000 A 
ATOM     13  C   UNL     1      -4.506  10.665  16.687  0.00  0.00    +0.000 A 
ATOM     14  C   UNL     1      -5.137  11.147  17.871  0.00  0.00    +0.000 A 
ATOM     15  C   UNL     1      -4.424  11.828  18.864  0.00  0.00    +0.000 A 
ATOM     16  C   UNL     1      -3.080  12.049  18.659  0.00  0.00    +0.000 A 
ATOM     17  H   UNL     1      -0.449  11.149  17.243  0.00  0.00    +0.000 HD
ENDROOT
BRANCH   2  18
ATOM     18  C   UNL     1       1.170  10.329  20.856  0.00  0.00    +0.000 A 
ATOM     19  C   UNL     1       1.113   9.448  21.940  0.00  0.00    +0.000 A 
ATOM     20  C   UNL     1       1.267   8.071  21.748  0.00  0.00    +0.000 A 
ATOM     21  C   UNL     1       1.505   7.547  20.468  0.00  0.00    +0.000 A 
ATOM     22  C   UNL     1       1.604   8.437  19.389  0.00  0.00    +0.000 A 
ATOM     23  C   UNL     1       1.444   9.820  19.578  0.00  0.00    +0.000 A 
BRANCH  21  24
ATOM     24  C   UNL     1       1.660   6.058  20.263  0.00  0.00    +0.000 C 
BRANCH  24  25
ATOM     25  N   UNL     1       2.697   5.739  19.291  0.00  0.00    +0.000 N 
ATOM     26  C   UNL     1       4.041   5.667  19.530  0.00  0.00    +0.000 A 
ATOM     27  C   UNL     1       4.597   5.274  18.335  0.00  0.00    +0.000 A 
ATOM     28  N   UNL     1       3.629   5.081  17.389  0.00  0.00    +0.000 NA
ATOM     29  C   UNL     1       2.491   5.351  17.997  0.00  0.00    +0.000 A 
ENDBRANCH  24  25
ENDBRANCH  21  24
ENDBRANCH   2  18
TORSDOF 3
ENDMDL
MODEL 8
REMARK VINA RESULT:      -7.1      3.553      8.705
REMARK  Name = 
REMARK  3 active torsions:
REMARK  status: ('A' for Active; 'I' for Inactive)
REMARK    1  A    between atoms: C_2  and  C_3
REMARK    2  A    between atoms: C_6  and  C_7
REMARK    3  A    between atoms: C_7  and  N_8
REMARK                            x       y       z     vdW  Elec       q    Type
REMARK                         _______ _______ _______ _____ _____    ______ ____
ROOT
ATOM      1  O   UNL     1      -1.142  10.769  20.951  0.00  0.00    +0.000 OA
ATOM      2  C   UNL     1      -0.445  11.005  19.971  0.00  0.00    +0.000 C 
ATOM      3  N   UNL     1      -0.490  12.216  19.252  0.00  0.00    +0.000 N 
ATOM      4  C   UNL     1      -1.299  13.341  19.764  0.00  0.00    +0.000 C 
ATOM      5  C   UNL     1      -0.450  14.618  19.474  0.00  0.00    +0.000 C 
ATOM      6  C   UNL     1       0.965  14.055  19.457  0.00  0.00    +0.000 C 
ATOM      7  C   UNL     1       0.705  12.770  18.635  0.00  0.00    +0.000 C 
ATOM      8  C   UNL     1       1.376  13.623  20.895  0.00  0.00    +0.000 C 
ATOM      9  O   UNL     1       0.692  13.460  21.887  0.00  0.00    +0.000 OA
ATOM     10  N   UNL     1       2.765  13.504  20.866  0.00  0.00    +0.000 N 
ATOM     11  C   UNL     1       3.270  14.244  19.816  0.00  0.00    +0.000 A 
ATOM     12  C   UNL     1       4.607  14.546  19.664  0.00  0.00    +0.000 A 
ATOM     13  C   UNL     1       4.932  15.379  18.611  0.00  0.00    +0.000 A 
ATOM     14  C   UNL     1       3.916  15.831  17.718  0.00  0.00    +0.000 A 
ATOM     15  C   UNL     1       2.572  15.484  17.892  0.00  0.00    +0.000 A 
ATOM     16  C   UNL     1       2.240  14.705  18.978  0.00  0.00    +0.000 A 
ATOM     17  H   UNL     1       3.161  12.598  21.087  0.00  0.00    +0.000 HD
ENDROOT
BRANCH   2  18
ATOM     18  C   UNL     1       0.531   9.949  19.535  0.00  0.00    +0.000 A 
ATOM     19  C   UNL     1       1.063   9.039  20.454  0.00  0.00    +0.000 A 
ATOM     20  C   UNL     1       1.921   8.019  20.030  0.00  0.00    +0.000 A 
ATOM     21  C   UNL     1       2.284   7.901  18.679  0.00  0.00    +0.000 A 
ATOM     22  C   UNL     1       1.782   8.841  17.768  0.00  0.00    +0.000 A 
ATOM     23  C   UNL     1       0.917   9.863  18.190  0.00  0.00    +0.000 A 
BRANCH  21  24
ATOM     24  C   UNL     1       3.203   6.790  18.224  0.00  0.00    +0.000 C 
BRANCH  24  25
ATOM     25  N   UNL     1       2.693   5.473  18.578  0.00  0.00    +0.000 N 
ATOM     26  C   UNL     1       1.779   4.738  17.874  0.00  0.00    +0.000 A 
ATOM     27  C   UNL     1       1.668   3.552  18.561  0.00  0.00    +0.000 A 
ATOM     28  N   UNL     1       2.505   3.536  19.642  0.00  0.00    +0.000 NA
ATOM     29  C   UNL     1       3.124   4.699  19.618  0.00  0.00    +0.000 A 
ENDBRANCH  24  25
ENDBRANCH  21  24
ENDBRANCH   2  18
TORSDOF 3
ENDMDL
MODEL 9
REMARK VINA RESULT:      -7.0      1.551      1.886
REMARK  Name = 
REMARK  3 active torsions:
REMARK  status: ('A' for Active; 'I' for Inactive)
REMARK    1  A    between atoms: C_2  and  C_3
REMARK    2  A    between atoms: C_6  and  C_7
REMARK    3  A    between atoms: C_7  and  N_8
REMARK                            x       y       z     vdW  Elec       q    Type
REMARK                         _______ _______ _______ _____ _____    ______ ____
ROOT
ATOM      1  O   UNL     1       0.789   4.397  19.464  0.00  0.00    +0.000 OA
ATOM      2  C   UNL     1       1.687   5.096  19.916  0.00  0.00    +0.000 C 
ATOM      3  N   UNL     1       2.969   4.610  20.243  0.00  0.00    +0.000 N 
ATOM      4  C   UNL     1       3.335   3.221  19.895  0.00  0.00    +0.000 C 
ATOM      5  C   UNL     1       4.822   3.298  19.428  0.00  0.00    +0.000 C 
ATOM      6  C   UNL     1       4.921   4.734  18.932  0.00  0.00    +0.000 C 
ATOM      7  C   UNL     1       4.153   5.438  20.077  0.00  0.00    +0.000 C 
ATOM      8  C   UNL     1       4.086   4.900  17.629  0.00  0.00    +0.000 C 
ATOM      9  O   UNL     1       3.246   4.169  17.142  0.00  0.00    +0.000 OA
ATOM     10  N   UNL     1       4.538   6.082  17.044  0.00  0.00    +0.000 N 
ATOM     11  C   UNL     1       5.801   6.378  17.518  0.00  0.00    +0.000 A 
ATOM     12  C   UNL     1       6.628   7.327  16.955  0.00  0.00    +0.000 A 
ATOM     13  C   UNL     1       7.896   7.430  17.491  0.00  0.00    +0.000 A 
ATOM     14  C   UNL     1       8.270   6.621  18.604  0.00  0.00    +0.000 A 
ATOM     15  C   UNL     1       7.395   5.683  19.162  0.00  0.00    +0.000 A 
ATOM     16  C   UNL     1       6.151   5.537  18.588  0.00  0.00    +0.000 A 
ATOM     17  H   UNL     1       3.861   6.823  16.903  0.00  0.00    +0.000 HD
ENDROOT
BRANCH   2  18
ATOM     18  C   UNL     1       1.407   6.560  20.105  0.00  0.00    +0.000 A 
ATOM     19  C   UNL     1       0.798   7.031  21.272  0.00  0.00    +0.000 A 
ATOM     20  C   UNL     1       0.600   8.402  21.468  0.00  0.00    +0.000 A 
ATOM     21  C   UNL     1       0.985   9.330  20.489  0.00  0.00    +0.000 A 
ATOM     22  C   UNL     1       1.557   8.852  19.302  0.00  0.00    +0.000 A 
ATOM     23  C   UNL     1       1.763   7.477  19.105  0.00  0.00    +0.000 A 
BRANCH  21  24
ATOM     24  C   UNL     1       0.779  10.812  20.710  0.00  0.00    +0.000 C 
BRANCH  24  25
ATOM     25  N   UNL     1      -0.076  11.407  19.693  0.00  0.00    +0.000 N 
ATOM     26  C   UNL     1      -1.383  11.094  19.443  0.00  0.00    +0.000 A 
ATOM     27  C   UNL     1      -1.775  11.958  18.448  0.00  0.00    +0.000 A 
ATOM     28  N   UNL     1      -0.754  12.801  18.106  0.00  0.00    +0.000 NA
ATOM     29  C   UNL     1       0.253  12.459  18.885  0.00  0.00    +0.000 A 
ENDBRANCH  24  25
ENDBRANCH  21  24
ENDBRANCH   2  18
TORSDOF 3
ENDMDL
