MODEL 1
REMARK VINA RESULT:      -9.0      0.000      0.000
REMARK  Name = 
REMARK  5 active torsions:
REMARK  status: ('A' for Active; 'I' for Inactive)
REMARK    1  A    between atoms: C_1  and  C_2
REMARK    2  A    between atoms: C_2  and  C_3
REMARK    3  A    between atoms: C_3  and  N_4
REMARK    4  A    between atoms: C_6  and  C_7
REMARK    5  A    between atoms: C_10  and  C_11
REMARK                            x       y       z     vdW  Elec       q    Type
REMARK                         _______ _______ _______ _____ _____    ______ ____
ROOT
ATOM      1  N   UNL     1       5.596   6.130  17.078  0.00  0.00    +0.000 N 
ATOM      2  N   UNL     1       4.685   7.104  17.417  0.00  0.00    +0.000 NA
ATOM      3  C   UNL     1       3.491   6.757  17.825  0.00  0.00    +0.000 A 
ATOM      4  C   UNL     1       3.048   5.349  17.881  0.00  0.00    +0.000 A 
ATOM      5  C   UNL     1       1.728   4.969  18.174  0.00  0.00    +0.000 A 
ATOM      6  C   UNL     1       1.344   3.633  18.105  0.00  0.00    +0.000 A 
ATOM      7  C   UNL     1       2.279   2.658  17.772  0.00  0.00    +0.000 A 
ATOM      8  C   UNL     1       3.596   3.024  17.496  0.00  0.00    +0.000 A 
ATOM      9  C   UNL     1       3.972   4.372  17.530  0.00  0.00    +0.000 A 
ATOM     10  C   UNL     1       5.330   4.766  17.120  0.00  0.00    +0.000 A 
ATOM     11  O   UNL     1       6.140   3.896  16.803  0.00  0.00    +0.000 OA
ENDROOT
BRANCH   3  12
ATOM     12  C   UNL     1       2.572   7.800  18.196  0.00  0.00    +0.000 A 
ATOM     13  N   UNL     1       2.129   8.771  17.428  0.00  0.00    +0.000 NA
ATOM     14  N   UNL     1       1.347   9.563  18.222  0.00  0.00    +0.000 NA
ATOM     15  C   UNL     1       1.350   9.044  19.445  0.00  0.00    +0.000 A 
ATOM     16  O   UNL     1       2.115   7.892  19.475  0.00  0.00    +0.000 OA
BRANCH  15  17
ATOM     17  C   UNL     1       0.699   9.555  20.609  0.00  0.00    +0.000 C 
ATOM     18  C   UNL     1       0.940   8.917  21.779  0.00  0.00    +0.000 C 
ATOM     19  C   UNL     1       0.355   9.325  23.095  0.00  0.00    +0.000 C 
ATOM     20  C   UNL     1      -0.810  10.302  22.963  0.00  0.00    +0.000 C 
ATOM     21  C   UNL     1      -0.507  11.380  21.929  0.00  0.00    +0.000 C 
ATOM     22  C   UNL     1      -0.214  10.762  20.561  0.00  0.00    +0.000 C 
ENDBRANCH  15  17
ENDBRANCH   3  12
BRANCH   1  23
ATOM     23  C   UNL     1       6.900   6.585  16.600  0.00  0.00    +0.000 C 
BRANCH  23  25
ATOM     24  C   UNL     1       8.013   6.469  18.861  0.00  0.00    +0.000 C 
ATOM     25  C   UNL     1       7.687   7.353  17.665  0.00  0.00    +0.000 C 
ENDBRANCH  23  25
ENDBRANCH   1  23
TORSDOF 4
ENDMDL
MODEL 2
REMARK VINA RESULT:      -8.8      0.286      1.034
REMARK  Name = 
REMARK  5 active torsions:
REMARK  status: ('A' for Active; 'I' for Inactive)
REMARK    1  A    between atoms: C_1  and  C_2
REMARK    2  A    between atoms: C_2  and  C_3
REMARK    3  A    between atoms: C_3  and  N_4
REMARK    4  A    between atoms: C_6  and  C_7
REMARK    5  A    between atoms: C_10  and  C_11
REMARK                            x       y       z     vdW  Elec       q    Type
REMARK                         _______ _______ _______ _____ _____    ______ ____
ROOT
ATOM      1  N   UNL     1       5.642   6.152  17.198  0.00  0.00    +0.000 N 
ATOM      2  N   UNL     1       4.717   7.124  17.501  0.00  0.00    +0.000 NA
ATOM      3  C   UNL     1       3.504   6.775  17.846  0.00  0.00    +0.000 A 
ATOM      4  C   UNL     1       3.058   5.367  17.868  0.00  0.00    +0.000 A 
ATOM      5  C   UNL     1       1.724   4.987  18.093  0.00  0.00    +0.000 A 
ATOM      6  C   UNL     1       1.343   3.652  17.992  0.00  0.00    +0.000 A 
ATOM      7  C   UNL     1       2.291   2.679  17.697  0.00  0.00    +0.000 A 
ATOM      8  C   UNL     1       3.622   3.045  17.489  0.00  0.00    +0.000 A 
ATOM      9  C   UNL     1       3.996   4.392  17.554  0.00  0.00    +0.000 A 
ATOM     10  C   UNL     1       5.373   4.788  17.214  0.00  0.00    +0.000 A 
ATOM     11  O   UNL     1       6.197   3.920  16.930  0.00  0.00    +0.000 OA
ENDROOT
BRANCH   3  12
ATOM     12  C   UNL     1       2.569   7.816  18.182  0.00  0.00    +0.000 A 
ATOM     13  N   UNL     1       2.155   8.787  17.397  0.00  0.00    +0.000 NA
ATOM     14  N   UNL     1       1.340   9.577  18.160  0.00  0.00    +0.000 NA
ATOM     15  C   UNL     1       1.296   9.056  19.382  0.00  0.00    +0.000 A 
ATOM     16  O   UNL     1       2.061   7.906  19.442  0.00  0.00    +0.000 OA
BRANCH  15  17
ATOM     17  C   UNL     1       0.598   9.565  20.520  0.00  0.00    +0.000 C 
ATOM     18  C   UNL     1      -0.238  10.611  20.310  0.00  0.00    +0.000 C 
ATOM     19  C   UNL     1      -1.058  11.258  21.383  0.00  0.00    +0.000 C 
ATOM     20  C   UNL     1      -0.618  10.879  22.794  0.00  0.00    +0.000 C 
ATOM     21  C   UNL     1      -0.327   9.387  22.894  0.00  0.00    +0.000 C 
ATOM     22  C   UNL     1       0.761   8.971  21.903  0.00  0.00    +0.000 C 
ENDBRANCH  15  17
ENDBRANCH   3  12
BRANCH   1  23
ATOM     23  C   UNL     1       6.968   6.609  16.788  0.00  0.00    +0.000 C 
BRANCH  23  25
ATOM     24  C   UNL     1       7.986   6.202  19.060  0.00  0.00    +0.000 C 
ATOM     25  C   UNL     1       7.770   7.214  17.943  0.00  0.00    +0.000 C 
ENDBRANCH  23  25
ENDBRANCH   1  23
TORSDOF 4
ENDMDL
MODEL 3
REMARK VINA RESULT:      -8.4      1.592      1.712
REMARK  Name = 
REMARK  5 active torsions:
REMARK  status: ('A' for Active; 'I' for Inactive)
REMARK    1  A    between atoms: C_1  and  C_2
REMARK    2  A    between atoms: C_2  and  C_3
REMARK    3  A    between atoms: C_3  and  N_4
REMARK    4  A    between atoms: C_6  and  C_7
REMARK    5  A    between atoms: C_10  and  C_11
REMARK                            x       y       z     vdW  Elec       q    Type
REMARK                         _______ _______ _______ _____ _____    ______ ____
ROOT
ATOM      1  N   UNL     1       5.150   5.363  18.583  0.00  0.00    +0.000 N 
ATOM      2  N   UNL     1       4.298   6.443  18.597  0.00  0.00    +0.000 NA
ATOM      3  C   UNL     1       3.133   6.339  19.184  0.00  0.00    +0.000 A 
ATOM      4  C   UNL     1       2.658   5.078  19.790  0.00  0.00    +0.000 A 
ATOM      5  C   UNL     1       1.357   4.909  20.292  0.00  0.00    +0.000 A 
ATOM      6  C   UNL     1       0.932   3.665  20.750  0.00  0.00    +0.000 A 
ATOM      7  C   UNL     1       1.809   2.585  20.742  0.00  0.00    +0.000 A 
ATOM      8  C   UNL     1       3.108   2.748  20.261  0.00  0.00    +0.000 A 
ATOM      9  C   UNL     1       3.522   3.990  19.766  0.00  0.00    +0.000 A 
ATOM     10  C   UNL     1       4.851   4.127  19.148  0.00  0.00    +0.000 A 
ATOM     11  O   UNL     1       5.608   3.158  19.124  0.00  0.00    +0.000 OA
ENDROOT
BRANCH   3  12
ATOM     12  C   UNL     1       2.278   7.496  19.201  0.00  0.00    +0.000 A 
ATOM     13  N   UNL     1       1.975   8.268  18.181  0.00  0.00    +0.000 NA
ATOM     14  N   UNL     1       1.203   9.279  18.681  0.00  0.00    +0.000 NA
ATOM     15  C   UNL     1       1.071   9.084  19.989  0.00  0.00    +0.000 A 
ATOM     16  O   UNL     1       1.733   7.932  20.371  0.00  0.00    +0.000 OA
BRANCH  15  17
ATOM     17  C   UNL     1       0.377   9.909  20.927  0.00  0.00    +0.000 C 
ATOM     18  C   UNL     1       0.006   9.333  22.095  0.00  0.00    +0.000 C 
ATOM     19  C   UNL     1      -0.712  10.052  23.194  0.00  0.00    +0.000 C 
ATOM     20  C   UNL     1      -1.306  11.389  22.758  0.00  0.00    +0.000 C 
ATOM     21  C   UNL     1      -0.323  12.168  21.893  0.00  0.00    +0.000 C 
ATOM     22  C   UNL     1       0.072  11.366  20.652  0.00  0.00    +0.000 C 
ENDBRANCH  15  17
ENDBRANCH   3  12
BRANCH   1  23
ATOM     23  C   UNL     1       6.421   5.535  17.883  0.00  0.00    +0.000 C 
BRANCH  23  25
ATOM     24  C   UNL     1       7.733   7.680  17.679  0.00  0.00    +0.000 C 
ATOM     25  C   UNL     1       6.532   6.889  17.179  0.00  0.00    +0.000 C 
ENDBRANCH  23  25
ENDBRANCH   1  23
TORSDOF 4
ENDMDL
MODEL 4
REMARK VINA RESULT:      -8.4      1.564      1.938
REMARK  Name = 
REMARK  5 active torsions:
REMARK  status: ('A' for Active; 'I' for Inactive)
REMARK    1  A    between atoms: C_1  and  C_2
REMARK    2  A    between atoms: C_2  and  C_3
REMARK    3  A    between atoms: C_3  and  N_4
REMARK    4  A    between atoms: C_6  and  C_7
REMARK    5  A    between atoms: C_10  and  C_11
REMARK                            x       y       z     vdW  Elec       q    Type
REMARK                         _______ _______ _______ _____ _____    ______ ____
ROOT
ATOM      1  N   UNL     1       5.174   5.394  18.352  0.00  0.00    +0.000 N 
ATOM      2  N   UNL     1       4.317   6.469  18.397  0.00  0.00    +0.000 NA
ATOM      3  C   UNL     1       3.207   6.382  19.083  0.00  0.00    +0.000 A 
ATOM      4  C   UNL     1       2.794   5.142  19.774  0.00  0.00    +0.000 A 
ATOM      5  C   UNL     1       1.541   4.986  20.390  0.00  0.00    +0.000 A 
ATOM      6  C   UNL     1       1.166   3.759  20.929  0.00  0.00    +0.000 A 
ATOM      7  C   UNL     1       2.048   2.684  20.887  0.00  0.00    +0.000 A 
ATOM      8  C   UNL     1       3.301   2.835  20.293  0.00  0.00    +0.000 A 
ATOM      9  C   UNL     1       3.662   4.058  19.719  0.00  0.00    +0.000 A 
ATOM     10  C   UNL     1       4.933   4.179  18.986  0.00  0.00    +0.000 A 
ATOM     11  O   UNL     1       5.693   3.213  18.935  0.00  0.00    +0.000 OA
ENDROOT
BRANCH   3  12
ATOM     12  C   UNL     1       2.346   7.534  19.129  0.00  0.00    +0.000 A 
ATOM     13  N   UNL     1       2.105   8.379  18.150  0.00  0.00    +0.000 NA
ATOM     14  N   UNL     1       1.298   9.351  18.671  0.00  0.00    +0.000 NA
ATOM     15  C   UNL     1       1.083   9.061  19.950  0.00  0.00    +0.000 A 
ATOM     16  O   UNL     1       1.725   7.884  20.290  0.00  0.00    +0.000 OA
BRANCH  15  17
ATOM     17  C   UNL     1       0.327   9.816  20.898  0.00  0.00    +0.000 C 
ATOM     18  C   UNL     1      -0.462  10.802  20.409  0.00  0.00    +0.000 C 
ATOM     19  C   UNL     1      -1.331  11.679  21.255  0.00  0.00    +0.000 C 
ATOM     20  C   UNL     1      -0.996  11.611  22.743  0.00  0.00    +0.000 C 
ATOM     21  C   UNL     1      -0.756  10.173  23.184  0.00  0.00    +0.000 C 
ATOM     22  C   UNL     1       0.382   9.535  22.385  0.00  0.00    +0.000 C 
ENDBRANCH  15  17
ENDBRANCH   3  12
BRANCH   1  23
ATOM     23  C   UNL     1       6.380   5.545  17.542  0.00  0.00    +0.000 C 
BRANCH  23  25
ATOM     24  C   UNL     1       7.604   7.751  17.543  0.00  0.00    +0.000 C 
ATOM     25  C   UNL     1       7.451   6.399  18.226  0.00  0.00    +0.000 C 
ENDBRANCH  23  25
ENDBRANCH   1  23
TORSDOF 4
ENDMDL
MODEL 5
REMARK VINA RESULT:      -8.4      2.840      7.585
REMARK  Name = 
REMARK  5 active torsions:
REMARK  status: ('A' for Active; 'I' for Inactive)
REMARK    1  A    between atoms: C_1  and  C_2
REMARK    2  A    between atoms: C_2  and  C_3
REMARK    3  A    between atoms: C_3  and  N_4
REMARK    4  A    between atoms: C_6  and  C_7
REMARK    5  A    between atoms: C_10  and  C_11
REMARK                            x       y       z     vdW  Elec       q    Type
REMARK                         _______ _______ _______ _____ _____    ______ ____
ROOT
ATOM      1  N   UNL     1       2.462   6.959  19.226  0.00  0.00    +0.000 N 
ATOM      2  N   UNL     1       3.512   6.805  18.351  0.00  0.00    +0.000 NA
ATOM      3  C   UNL     1       4.123   5.651  18.272  0.00  0.00    +0.000 A 
ATOM      4  C   UNL     1       3.771   4.504  19.136  0.00  0.00    +0.000 A 
ATOM      5  C   UNL     1       4.510   3.310  19.167  0.00  0.00    +0.000 A 
ATOM      6  C   UNL     1       4.196   2.308  20.081  0.00  0.00    +0.000 A 
ATOM      7  C   UNL     1       3.124   2.473  20.951  0.00  0.00    +0.000 A 
ATOM      8  C   UNL     1       2.374   3.648  20.915  0.00  0.00    +0.000 A 
ATOM      9  C   UNL     1       2.714   4.670  20.022  0.00  0.00    +0.000 A 
ATOM     10  C   UNL     1       1.998   5.956  20.071  0.00  0.00    +0.000 A 
ATOM     11  O   UNL     1       1.068   6.098  20.863  0.00  0.00    +0.000 OA
ENDROOT
BRANCH   3  12
ATOM     12  C   UNL     1       5.200   5.517  17.328  0.00  0.00    +0.000 A 
ATOM     13  N   UNL     1       6.432   5.957  17.469  0.00  0.00    +0.000 NA
ATOM     14  N   UNL     1       7.077   5.675  16.297  0.00  0.00    +0.000 NA
ATOM     15  C   UNL     1       6.209   5.077  15.487  0.00  0.00    +0.000 A 
ATOM     16  O   UNL     1       4.985   4.935  16.115  0.00  0.00    +0.000 OA
BRANCH  15  17
ATOM     17  C   UNL     1       6.432   4.636  14.147  0.00  0.00    +0.000 C 
ATOM     18  C   UNL     1       5.541   3.754  13.634  0.00  0.00    +0.000 C 
ATOM     19  C   UNL     1       5.612   3.201  12.245  0.00  0.00    +0.000 C 
ATOM     20  C   UNL     1       6.960   3.433  11.568  0.00  0.00    +0.000 C 
ATOM     21  C   UNL     1       7.460   4.850  11.818  0.00  0.00    +0.000 C 
ATOM     22  C   UNL     1       7.598   5.128  13.316  0.00  0.00    +0.000 C 
ENDBRANCH  15  17
ENDBRANCH   3  12
BRANCH   1  23
ATOM     23  C   UNL     1       1.844   8.281  19.288  0.00  0.00    +0.000 C 
BRANCH  23  25
ATOM     24  C   UNL     1       1.690  10.519  18.133  0.00  0.00    +0.000 C 
ATOM     25  C   UNL     1       1.889   9.021  17.948  0.00  0.00    +0.000 C 
ENDBRANCH  23  25
ENDBRANCH   1  23
TORSDOF 4
ENDMDL
MODEL 6
REMARK VINA RESULT:      -8.2      1.523      1.867
REMARK  Name = 
REMARK  5 active torsions:
REMARK  status: ('A' for Active; 'I' for Inactive)
REMARK    1  A    between atoms: C_1  and  C_2
REMARK    2  A    between atoms: C_2  and  C_3
REMARK    3  A    between atoms: C_3  and  N_4
REMARK    4  A    between atoms: C_6  and  C_7
REMARK    5  A    between atoms: C_10  and  C_11
REMARK                            x       y       z     vdW  Elec       q    Type
REMARK                         _______ _______ _______ _____ _____    ______ ____
ROOT
ATOM      1  N   UNL     1       4.930   5.854  17.623  0.00  0.00    +0.000 N 
ATOM      2  N   UNL     1       4.023   6.875  17.783  0.00  0.00    +0.000 NA
ATOM      3  C   UNL     1       3.058   6.752  18.658  0.00  0.00    +0.000 A 
ATOM      4  C   UNL     1       2.860   5.522  19.453  0.00  0.00    +0.000 A 
ATOM      5  C   UNL     1       1.747   5.317  20.287  0.00  0.00    +0.000 A 
ATOM      6  C   UNL     1       1.558   4.095  20.926  0.00  0.00    +0.000 A 
ATOM      7  C   UNL     1       2.490   3.076  20.765  0.00  0.00    +0.000 A 
ATOM      8  C   UNL     1       3.607   3.277  19.953  0.00  0.00    +0.000 A 
ATOM      9  C   UNL     1       3.776   4.492  19.282  0.00  0.00    +0.000 A 
ATOM     10  C   UNL     1       4.889   4.657  18.331  0.00  0.00    +0.000 A 
ATOM     11  O   UNL     1       5.692   3.739  18.179  0.00  0.00    +0.000 OA
ENDROOT
BRANCH   3  12
ATOM     12  C   UNL     1       2.142   7.849  18.816  0.00  0.00    +0.000 A 
ATOM     13  N   UNL     1       1.690   8.643  17.870  0.00  0.00    +0.000 NA
ATOM     14  N   UNL     1       0.915   9.581  18.492  0.00  0.00    +0.000 NA
ATOM     15  C   UNL     1       0.931   9.323  19.796  0.00  0.00    +0.000 A 
ATOM     16  O   UNL     1       1.696   8.201  20.054  0.00  0.00    +0.000 OA
BRANCH  15  17
ATOM     17  C   UNL     1       0.290  10.063  20.837  0.00  0.00    +0.000 C 
ATOM     18  C   UNL     1       0.021   9.399  21.987  0.00  0.00    +0.000 C 
ATOM     19  C   UNL     1      -0.630  10.021  23.183  0.00  0.00    +0.000 C 
ATOM     20  C   UNL     1      -1.287  11.367  22.884  0.00  0.00    +0.000 C 
ATOM     21  C   UNL     1      -0.390  12.230  22.006  0.00  0.00    +0.000 C 
ATOM     22  C   UNL     1      -0.070  11.526  20.687  0.00  0.00    +0.000 C 
ENDBRANCH  15  17
ENDBRANCH   3  12
BRANCH   1  23
ATOM     23  C   UNL     1       5.963   6.042  16.607  0.00  0.00    +0.000 C 
BRANCH  23  25
ATOM     24  C   UNL     1       6.264   4.328  14.780  0.00  0.00    +0.000 C 
ATOM     25  C   UNL     1       5.517   5.581  15.216  0.00  0.00    +0.000 C 
ENDBRANCH  23  25
ENDBRANCH   1  23
TORSDOF 4
ENDMDL
MODEL 7
REMARK VINA RESULT:      -8.1      1.715      3.548
REMARK  Name = 
REMARK  5 active torsions:
REMARK  status: ('A' for Active; 'I' for Inactive)
REMARK    1  A    between atoms: C_1  and  C_2
REMARK    2  A    between atoms: C_2  and  C_3
REMARK    3  A    between atoms: C_3  and  N_4
REMARK    4  A    between atoms: C_6  and  C_7
REMARK    5  A    between atoms: C_10  and  C_11
REMARK                            x       y       z     vdW  Elec       q    Type
REMARK                         _______ _______ _______ _____ _____    ______ ____
ROOT
ATOM      1  N   UNL     1       2.460   3.626  18.567  0.00  0.00    +0.000 N 
ATOM      2  N   UNL     1       2.036   4.902  18.854  0.00  0.00    +0.000 NA
ATOM      3  C   UNL     1       2.692   5.925  18.369  0.00  0.00    +0.000 A 
ATOM      4  C   UNL     1       3.921   5.771  17.562  0.00  0.00    +0.000 A 
ATOM      5  C   UNL     1       4.717   6.856  17.158  0.00  0.00    +0.000 A 
ATOM      6  C   UNL     1       5.921   6.641  16.494  0.00  0.00    +0.000 A 
ATOM      7  C   UNL     1       6.330   5.345  16.199  0.00  0.00    +0.000 A 
ATOM      8  C   UNL     1       5.538   4.262  16.581  0.00  0.00    +0.000 A 
ATOM      9  C   UNL     1       4.346   4.478  17.282  0.00  0.00    +0.000 A 
ATOM     10  C   UNL     1       3.575   3.331  17.790  0.00  0.00    +0.000 A 
ATOM     11  O   UNL     1       3.961   2.189  17.544  0.00  0.00    +0.000 OA
ENDROOT
BRANCH   3  12
ATOM     12  C   UNL     1       2.207   7.246  18.669  0.00  0.00    +0.000 A 
ATOM     13  N   UNL     1       2.407   8.338  17.964  0.00  0.00    +0.000 NA
ATOM     14  N   UNL     1       1.832   9.360  18.667  0.00  0.00    +0.000 NA
ATOM     15  C   UNL     1       1.310   8.848  19.777  0.00  0.00    +0.000 A 
ATOM     16  O   UNL     1       1.511   7.480  19.815  0.00  0.00    +0.000 OA
BRANCH  15  17
ATOM     17  C   UNL     1       0.642   9.548  20.828  0.00  0.00    +0.000 C 
ATOM     18  C   UNL     1       0.614   8.952  22.044  0.00  0.00    +0.000 C 
ATOM     19  C   UNL     1      -0.027   9.548  23.257  0.00  0.00    +0.000 C 
ATOM     20  C   UNL     1      -0.953  10.720  22.940  0.00  0.00    +0.000 C 
ATOM     21  C   UNL     1      -0.324  11.650  21.911  0.00  0.00    +0.000 C 
ATOM     22  C   UNL     1      -0.003  10.902  20.616  0.00  0.00    +0.000 C 
ENDBRANCH  15  17
ENDBRANCH   3  12
BRANCH   1  23
ATOM     23  C   UNL     1       1.703   2.529  19.167  0.00  0.00    +0.000 C 
BRANCH  23  25
ATOM     24  C   UNL     1       1.737   2.697  21.684  0.00  0.00    +0.000 C 
ATOM     25  C   UNL     1       0.931   2.956  20.418  0.00  0.00    +0.000 C 
ENDBRANCH  23  25
ENDBRANCH   1  23
TORSDOF 4
ENDMDL
MODEL 8
REMARK VINA RESULT:      -8.1      1.771      2.194
REMARK  Name = 
REMARK  5 active torsions:
REMARK  status: ('A' for Active; 'I' for Inactive)
REMARK    1  A    between atoms: C_1  and  C_2
REMARK    2  A    between atoms: C_2  and  C_3
REMARK    3  A    between atoms: C_3  and  N_4
REMARK    4  A    between atoms: C_6  and  C_7
REMARK    5  A    between atoms: C_10  and  C_11
REMARK                            x       y       z     vdW  Elec       q    Type
REMARK                         _______ _______ _______ _____ _____    ______ ____
ROOT
ATOM      1  N   UNL     1       5.211   5.954  17.102  0.00  0.00    +0.000 N 
ATOM      2  N   UNL     1       4.397   6.874  17.722  0.00  0.00    +0.000 NA
ATOM      3  C   UNL     1       3.295   6.474  18.302  0.00  0.00    +0.000 A 
ATOM      4  C   UNL     1       2.847   5.066  18.272  0.00  0.00    +0.000 A 
ATOM      5  C   UNL     1       1.599   4.647  18.762  0.00  0.00    +0.000 A 
ATOM      6  C   UNL     1       1.186   3.327  18.607  0.00  0.00    +0.000 A 
ATOM      7  C   UNL     1       2.024   2.404  17.990  0.00  0.00    +0.000 A 
ATOM      8  C   UNL     1       3.273   2.808  17.516  0.00  0.00    +0.000 A 
ATOM      9  C   UNL     1       3.671   4.144  17.639  0.00  0.00    +0.000 A 
ATOM     10  C   UNL     1       4.934   4.593  17.031  0.00  0.00    +0.000 A 
ATOM     11  O   UNL     1       5.656   3.772  16.465  0.00  0.00    +0.000 OA
ENDROOT
BRANCH   3  12
ATOM     12  C   UNL     1       2.480   7.459  18.962  0.00  0.00    +0.000 A 
ATOM     13  N   UNL     1       2.061   7.430  20.208  0.00  0.00    +0.000 NA
ATOM     14  N   UNL     1       1.258   8.524  20.370  0.00  0.00    +0.000 NA
ATOM     15  C   UNL     1       1.217   9.174  19.211  0.00  0.00    +0.000 A 
ATOM     16  O   UNL     1       2.007   8.534  18.273  0.00  0.00    +0.000 OA
BRANCH  15  17
ATOM     17  C   UNL     1       0.474  10.355  18.901  0.00  0.00    +0.000 C 
ATOM     18  C   UNL     1       1.150  11.528  18.918  0.00  0.00    +0.000 C 
ATOM     19  C   UNL     1       0.535  12.856  18.605  0.00  0.00    +0.000 C 
ATOM     20  C   UNL     1      -0.991  12.834  18.608  0.00  0.00    +0.000 C 
ATOM     21  C   UNL     1      -1.521  11.594  17.897  0.00  0.00    +0.000 C 
ATOM     22  C   UNL     1      -1.000  10.317  18.557  0.00  0.00    +0.000 C 
ENDBRANCH  15  17
ENDBRANCH   3  12
BRANCH   1  23
ATOM     23  C   UNL     1       6.409   6.470  16.445  0.00  0.00    +0.000 C 
BRANCH  23  25
ATOM     24  C   UNL     1       7.796   6.348  18.550  0.00  0.00    +0.000 C 
ATOM     25  C   UNL     1       7.329   7.234  17.402  0.00  0.00    +0.000 C 
ENDBRANCH  23  25
ENDBRANCH   1  23
TORSDOF 4
ENDMDL
MODEL 9
REMARK VINA RESULT:      -8.0      1.622      2.171
REMARK  Name = 
REMARK  5 active torsions:
REMARK  status: ('A' for Active; 'I' for Inactive)
REMARK    1  A    between atoms: C_1  and  C_2
REMARK    2  A    between atoms: C_2  and  C_3
REMARK    3  A    between atoms: C_3  and  N_4
REMARK    4  A    between atoms: C_6  and  C_7
REMARK    5  A    between atoms: C_10  and  C_11
REMARK                            x       y       z     vdW  Elec       q    Type
REMARK                         _______ _______ _______ _____ _____    ______ ____
ROOT
ATOM      1  N   UNL     1       4.844   5.813  17.114  0.00  0.00    +0.000 N 
ATOM      2  N   UNL     1       4.104   6.735  17.816  0.00  0.00    +0.000 NA
ATOM      3  C   UNL     1       3.065   6.339  18.506  0.00  0.00    +0.000 A 
ATOM      4  C   UNL     1       2.607   4.934  18.517  0.00  0.00    +0.000 A 
ATOM      5  C   UNL     1       1.413   4.520  19.132  0.00  0.00    +0.000 A 
ATOM      6  C   UNL     1       0.979   3.203  19.016  0.00  0.00    +0.000 A 
ATOM      7  C   UNL     1       1.744   2.278  18.313  0.00  0.00    +0.000 A 
ATOM      8  C   UNL     1       2.939   2.677  17.715  0.00  0.00    +0.000 A 
ATOM      9  C   UNL     1       3.356   4.010  17.800  0.00  0.00    +0.000 A 
ATOM     10  C   UNL     1       4.553   4.453  17.067  0.00  0.00    +0.000 A 
ATOM     11  O   UNL     1       5.208   3.631  16.427  0.00  0.00    +0.000 OA
ENDROOT
BRANCH   3  12
ATOM     12  C   UNL     1       2.328   7.327  19.249  0.00  0.00    +0.000 A 
ATOM     13  N   UNL     1       2.028   7.289  20.529  0.00  0.00    +0.000 NA
ATOM     14  N   UNL     1       1.258   8.390  20.776  0.00  0.00    +0.000 NA
ATOM     15  C   UNL     1       1.115   9.053  19.632  0.00  0.00    +0.000 A 
ATOM     16  O   UNL     1       1.805   8.415  18.618  0.00  0.00    +0.000 OA
BRANCH  15  17
ATOM     17  C   UNL     1       0.362  10.246  19.406  0.00  0.00    +0.000 C 
ATOM     18  C   UNL     1      -0.550  10.215  18.405  0.00  0.00    +0.000 C 
ATOM     19  C   UNL     1      -1.435  11.366  18.040  0.00  0.00    +0.000 C 
ATOM     20  C   UNL     1      -0.989  12.692  18.651  0.00  0.00    +0.000 C 
ATOM     21  C   UNL     1      -0.583  12.512  20.109  0.00  0.00    +0.000 C 
ATOM     22  C   UNL     1       0.549  11.493  20.243  0.00  0.00    +0.000 C 
ENDBRANCH  15  17
ENDBRANCH   3  12
BRANCH   1  23
ATOM     23  C   UNL     1       5.971   6.325  16.338  0.00  0.00    +0.000 C 
BRANCH  23  25
ATOM     24  C   UNL     1       7.618   7.826  17.521  0.00  0.00    +0.000 C 
ATOM     25  C   UNL     1       7.268   6.392  17.150  0.00  0.00    +0.000 C 
ENDBRANCH  23  25
ENDBRANCH   1  23
TORSDOF 4
ENDMDL
