MODEL 1
REMARK VINA RESULT:      -9.1      0.000      0.000
REMARK  Name = 
REMARK  6 active torsions:
REMARK  status: ('A' for Active; 'I' for Inactive)
REMARK    1  A    between atoms: C_1  and  N_2
REMARK    2  A    between atoms: C_9  and  C_10
REMARK    3  A    between atoms: N_12  and  C_13
REMARK    4  A    between atoms: C_17  and  N_18
REMARK    5  A    between atoms: C_22  and  C_23
REMARK    6  A    between atoms: C_22  and  C_24
REMARK                            x       y       z     vdW  Elec       q    Type
REMARK                         _______ _______ _______ _____ _____    ______ ____
ROOT
ATOM      1  C   UNL     1       8.142   8.498  18.179  0.00  0.00    +0.000 C 
ATOM      2  O   UNL     1       8.698   7.749  18.977  0.00  0.00    +0.000 OA
ATOM      3  N   UNL     1       7.186   8.138  17.241  0.00  0.00    +0.000 N 
ATOM      4  H   UNL     1       6.928   8.818  16.537  0.00  0.00    +0.000 HD
ENDROOT
BRANCH   1  13
ATOM      5  C   UNL     1      12.333  11.850  19.856  0.00  0.00    +0.000 C 
ATOM      6  N   UNL     1      11.237  12.384  19.102  0.00  0.00    +0.000 N 
ATOM      7  C   UNL     1      11.125  13.723  18.671  0.00  0.00    +0.000 A 
ATOM      8  O   UNL     1      11.901  14.644  18.864  0.00  0.00    +0.000 OA
ATOM      9  N   UNL     1       9.920  13.808  17.958  0.00  0.00    +0.000 N 
ATOM     10  C   UNL     1       9.314  12.560  17.941  0.00  0.00    +0.000 A 
ATOM     11  C   UNL     1       8.140  12.183  17.340  0.00  0.00    +0.000 A 
ATOM     12  C   UNL     1       7.781  10.840  17.469  0.00  0.00    +0.000 A 
ATOM     13  C   UNL     1       8.588   9.917  18.191  0.00  0.00    +0.000 A 
ATOM     14  C   UNL     1       9.786  10.330  18.795  0.00  0.00    +0.000 A 
ATOM     15  C   UNL     1      10.122  11.664  18.651  0.00  0.00    +0.000 A 
ATOM     16  H   UNL     1       9.589  14.655  17.522  0.00  0.00    +0.000 HD
ENDBRANCH   1  13
BRANCH   3  17
ATOM     17  C   UNL     1       6.657   6.827  17.075  0.00  0.00    +0.000 A 
ATOM     18  C   UNL     1       7.230   5.890  16.213  0.00  0.00    +0.000 A 
ATOM     19  C   UNL     1       6.666   4.631  16.051  0.00  0.00    +0.000 A 
ATOM     20  C   UNL     1       5.523   4.284  16.761  0.00  0.00    +0.000 A 
ATOM     21  C   UNL     1       4.942   5.173  17.677  0.00  0.00    +0.000 A 
ATOM     22  C   UNL     1       5.523   6.451  17.820  0.00  0.00    +0.000 A 
BRANCH  21  23
ATOM     23  N   UNL     1       3.880   4.713  18.506  0.00  0.00    +0.000 N 
ATOM     24  C   UNL     1       2.574   5.152  18.447  0.00  0.00    +0.000 C 
ATOM     25  O   UNL     1       2.095   6.137  17.906  0.00  0.00    +0.000 OA
ATOM     26  N   UNL     1       1.781   4.266  19.154  0.00  0.00    +0.000 N 
ATOM     27  C   UNL     1       2.507   3.066  19.459  0.00  0.00    +0.000 C 
ATOM     28  C   UNL     1       2.153   2.495  20.816  0.00  0.00    +0.000 C 
ATOM     29  C   UNL     1       2.321   2.030  18.339  0.00  0.00    +0.000 C 
ATOM     30  C   UNL     1       3.943   3.604  19.333  0.00  0.00    +0.000 C 
ATOM     31  O   UNL     1       4.928   3.011  19.753  0.00  0.00    +0.000 OA
ATOM     32  H   UNL     1       0.774   4.347  19.081  0.00  0.00    +0.000 HD
ENDBRANCH  21  23
ENDBRANCH   3  17
TORSDOF 3
ENDMDL
MODEL 2
REMARK VINA RESULT:      -9.0      0.869      1.713
REMARK  Name = 
REMARK  6 active torsions:
REMARK  status: ('A' for Active; 'I' for Inactive)
REMARK    1  A    between atoms: C_1  and  N_2
REMARK    2  A    between atoms: C_9  and  C_10
REMARK    3  A    between atoms: N_12  and  C_13
REMARK    4  A    between atoms: C_17  and  N_18
REMARK    5  A    between atoms: C_22  and  C_23
REMARK    6  A    between atoms: C_22  and  C_24
REMARK                            x       y       z     vdW  Elec       q    Type
REMARK                         _______ _______ _______ _____ _____    ______ ____
ROOT
ATOM      1  C   UNL     1       7.928   8.193  18.060  0.00  0.00    +0.000 C 
ATOM      2  O   UNL     1       8.519   7.430  18.819  0.00  0.00    +0.000 OA
ATOM      3  N   UNL     1       6.969   7.841  17.122  0.00  0.00    +0.000 N 
ATOM      4  H   UNL     1       6.680   8.539  16.449  0.00  0.00    +0.000 HD
ENDROOT
BRANCH   1  13
ATOM      5  C   UNL     1      12.020  11.607  19.852  0.00  0.00    +0.000 C 
ATOM      6  N   UNL     1      10.909  12.134  19.116  0.00  0.00    +0.000 N 
ATOM      7  C   UNL     1      10.757  13.484  18.732  0.00  0.00    +0.000 A 
ATOM      8  O   UNL     1      11.506  14.419  18.957  0.00  0.00    +0.000 OA
ATOM      9  N   UNL     1       9.550  13.557  18.021  0.00  0.00    +0.000 N 
ATOM     10  C   UNL     1       8.981  12.293  17.961  0.00  0.00    +0.000 A 
ATOM     11  C   UNL     1       7.818  11.903  17.347  0.00  0.00    +0.000 A 
ATOM     12  C   UNL     1       7.499  10.546  17.429  0.00  0.00    +0.000 A 
ATOM     13  C   UNL     1       8.333   9.623  18.121  0.00  0.00    +0.000 A 
ATOM     14  C   UNL     1       9.518  10.051  18.739  0.00  0.00    +0.000 A 
ATOM     15  C   UNL     1       9.815  11.398  18.641  0.00  0.00    +0.000 A 
ATOM     16  H   UNL     1       9.194  14.409  17.613  0.00  0.00    +0.000 HD
ENDBRANCH   1  13
BRANCH   3  17
ATOM     17  C   UNL     1       6.476   6.522  16.914  0.00  0.00    +0.000 A 
ATOM     18  C   UNL     1       6.997   5.672  15.936  0.00  0.00    +0.000 A 
ATOM     19  C   UNL     1       6.467   4.403  15.737  0.00  0.00    +0.000 A 
ATOM     20  C   UNL     1       5.413   3.958  16.526  0.00  0.00    +0.000 A 
ATOM     21  C   UNL     1       4.891   4.756  17.555  0.00  0.00    +0.000 A 
ATOM     22  C   UNL     1       5.435   6.046  17.734  0.00  0.00    +0.000 A 
BRANCH  21  23
ATOM     23  N   UNL     1       3.934   4.193  18.445  0.00  0.00    +0.000 N 
ATOM     24  C   UNL     1       4.228   3.419  19.548  0.00  0.00    +0.000 C 
ATOM     25  O   UNL     1       5.264   2.852  19.862  0.00  0.00    +0.000 OA
ATOM     26  N   UNL     1       3.097   3.334  20.339  0.00  0.00    +0.000 N 
ATOM     27  C   UNL     1       2.109   4.287  19.918  0.00  0.00    +0.000 C 
ATOM     28  C   UNL     1       0.695   3.761  20.045  0.00  0.00    +0.000 C 
ATOM     29  C   UNL     1       2.293   5.614  20.668  0.00  0.00    +0.000 C 
ATOM     30  C   UNL     1       2.589   4.522  18.475  0.00  0.00    +0.000 C 
ATOM     31  O   UNL     1       1.911   5.072  17.616  0.00  0.00    +0.000 OA
ATOM     32  H   UNL     1       3.179   2.937  21.267  0.00  0.00    +0.000 HD
ENDBRANCH  21  23
ENDBRANCH   3  17
TORSDOF 3
ENDMDL
MODEL 3
REMARK VINA RESULT:      -8.9      5.497      7.727
REMARK  Name = 
REMARK  6 active torsions:
REMARK  status: ('A' for Active; 'I' for Inactive)
REMARK    1  A    between atoms: C_1  and  N_2
REMARK    2  A    between atoms: C_9  and  C_10
REMARK    3  A    between atoms: N_12  and  C_13
REMARK    4  A    between atoms: C_17  and  N_18
REMARK    5  A    between atoms: C_22  and  C_23
REMARK    6  A    between atoms: C_22  and  C_24
REMARK                            x       y       z     vdW  Elec       q    Type
REMARK                         _______ _______ _______ _____ _____    ______ ____
ROOT
ATOM      1  C   UNL     1       1.800   8.897  18.431  0.00  0.00    +0.000 C 
ATOM      2  O   UNL     1       1.807   8.957  17.205  0.00  0.00    +0.000 OA
ATOM      3  N   UNL     1       2.173   7.806  19.202  0.00  0.00    +0.000 N 
ATOM      4  H   UNL     1       1.967   7.829  20.192  0.00  0.00    +0.000 HD
ENDROOT
BRANCH   1  13
ATOM      5  C   UNL     1      -0.957  10.498  23.061  0.00  0.00    +0.000 C 
ATOM      6  N   UNL     1      -0.442  11.478  22.151  0.00  0.00    +0.000 N 
ATOM      7  C   UNL     1      -0.516  12.875  22.335  0.00  0.00    +0.000 A 
ATOM      8  O   UNL     1      -1.023  13.486  23.260  0.00  0.00    +0.000 OA
ATOM      9  N   UNL     1       0.121  13.453  21.227  0.00  0.00    +0.000 N 
ATOM     10  C   UNL     1       0.580  12.445  20.391  0.00  0.00    +0.000 A 
ATOM     11  C   UNL     1       1.275  12.556  19.214  0.00  0.00    +0.000 A 
ATOM     12  C   UNL     1       1.632  11.359  18.590  0.00  0.00    +0.000 A 
ATOM     13  C   UNL     1       1.285  10.095  19.144  0.00  0.00    +0.000 A 
ATOM     14  C   UNL     1       0.574  10.012  20.351  0.00  0.00    +0.000 A 
ATOM     15  C   UNL     1       0.234  11.210  20.952  0.00  0.00    +0.000 A 
ATOM     16  H   UNL     1       0.227  14.448  21.102  0.00  0.00    +0.000 HD
ENDBRANCH   1  13
BRANCH   3  17
ATOM     17  C   UNL     1       2.671   6.574  18.690  0.00  0.00    +0.000 A 
ATOM     18  C   UNL     1       1.951   5.381  18.774  0.00  0.00    +0.000 A 
ATOM     19  C   UNL     1       2.484   4.191  18.295  0.00  0.00    +0.000 A 
ATOM     20  C   UNL     1       3.744   4.179  17.709  0.00  0.00    +0.000 A 
ATOM     21  C   UNL     1       4.482   5.361  17.555  0.00  0.00    +0.000 A 
ATOM     22  C   UNL     1       3.930   6.559  18.058  0.00  0.00    +0.000 A 
BRANCH  21  23
ATOM     23  N   UNL     1       5.686   5.328  16.796  0.00  0.00    +0.000 N 
ATOM     24  C   UNL     1       6.847   4.682  17.168  0.00  0.00    +0.000 C 
ATOM     25  O   UNL     1       7.192   4.240  18.253  0.00  0.00    +0.000 OA
ATOM     26  N   UNL     1       7.671   4.590  16.061  0.00  0.00    +0.000 N 
ATOM     27  C   UNL     1       6.954   4.923  14.863  0.00  0.00    +0.000 C 
ATOM     28  C   UNL     1       7.805   5.670  13.858  0.00  0.00    +0.000 C 
ATOM     29  C   UNL     1       6.322   3.663  14.251  0.00  0.00    +0.000 C 
ATOM     30  C   UNL     1       5.805   5.741  15.480  0.00  0.00    +0.000 C 
ATOM     31  O   UNL     1       5.061   6.462  14.828  0.00  0.00    +0.000 OA
ATOM     32  H   UNL     1       8.496   4.004  16.114  0.00  0.00    +0.000 HD
ENDBRANCH  21  23
ENDBRANCH   3  17
TORSDOF 3
ENDMDL
MODEL 4
REMARK VINA RESULT:      -8.8      5.530      8.240
REMARK  Name = 
REMARK  6 active torsions:
REMARK  status: ('A' for Active; 'I' for Inactive)
REMARK    1  A    between atoms: C_1  and  N_2
REMARK    2  A    between atoms: C_9  and  C_10
REMARK    3  A    between atoms: N_12  and  C_13
REMARK    4  A    between atoms: C_17  and  N_18
REMARK    5  A    between atoms: C_22  and  C_23
REMARK    6  A    between atoms: C_22  and  C_24
REMARK                            x       y       z     vdW  Elec       q    Type
REMARK                         _______ _______ _______ _____ _____    ______ ____
ROOT
ATOM      1  C   UNL     1       1.565   7.673  20.492  0.00  0.00    +0.000 C 
ATOM      2  O   UNL     1       2.178   7.861  19.445  0.00  0.00    +0.000 OA
ATOM      3  N   UNL     1       1.477   6.477  21.189  0.00  0.00    +0.000 N 
ATOM      4  H   UNL     1       0.809   6.415  21.948  0.00  0.00    +0.000 HD
ENDROOT
BRANCH   1  13
ATOM      5  C   UNL     1      -1.366  12.198  18.899  0.00  0.00    +0.000 C 
ATOM      6  N   UNL     1      -1.262  11.856  20.287  0.00  0.00    +0.000 N 
ATOM      7  C   UNL     1      -1.895  12.545  21.343  0.00  0.00    +0.000 A 
ATOM      8  O   UNL     1      -2.611  13.530  21.276  0.00  0.00    +0.000 OA
ATOM      9  N   UNL     1      -1.542  11.872  22.521  0.00  0.00    +0.000 N 
ATOM     10  C   UNL     1      -0.725  10.797  22.202  0.00  0.00    +0.000 A 
ATOM     11  C   UNL     1      -0.171   9.861  23.038  0.00  0.00    +0.000 A 
ATOM     12  C   UNL     1       0.599   8.866  22.431  0.00  0.00    +0.000 A 
ATOM     13  C   UNL     1       0.801   8.833  21.023  0.00  0.00    +0.000 A 
ATOM     14  C   UNL     1       0.220   9.803  20.191  0.00  0.00    +0.000 A 
ATOM     15  C   UNL     1      -0.540  10.776  20.814  0.00  0.00    +0.000 A 
ATOM     16  H   UNL     1      -1.867  12.143  23.437  0.00  0.00    +0.000 HD
ENDBRANCH   1  13
BRANCH   3  17
ATOM     17  C   UNL     1       2.125   5.265  20.819  0.00  0.00    +0.000 A 
ATOM     18  C   UNL     1       1.952   4.075  21.529  0.00  0.00    +0.000 A 
ATOM     19  C   UNL     1       2.630   2.920  21.160  0.00  0.00    +0.000 A 
ATOM     20  C   UNL     1       3.483   2.934  20.063  0.00  0.00    +0.000 A 
ATOM     21  C   UNL     1       3.648   4.091  19.289  0.00  0.00    +0.000 A 
ATOM     22  C   UNL     1       2.960   5.259  19.686  0.00  0.00    +0.000 A 
BRANCH  21  23
ATOM     23  N   UNL     1       4.392   4.011  18.078  0.00  0.00    +0.000 N 
ATOM     24  C   UNL     1       3.866   3.731  16.834  0.00  0.00    +0.000 C 
ATOM     25  O   UNL     1       2.780   3.267  16.522  0.00  0.00    +0.000 OA
ATOM     26  N   UNL     1       4.808   4.058  15.876  0.00  0.00    +0.000 N 
ATOM     27  C   UNL     1       5.873   4.828  16.452  0.00  0.00    +0.000 C 
ATOM     28  C   UNL     1       7.224   4.504  15.847  0.00  0.00    +0.000 C 
ATOM     29  C   UNL     1       5.556   6.328  16.367  0.00  0.00    +0.000 C 
ATOM     30  C   UNL     1       5.706   4.421  17.926  0.00  0.00    +0.000 C 
ATOM     31  O   UNL     1       6.554   4.623  18.786  0.00  0.00    +0.000 OA
ATOM     32  H   UNL     1       4.530   4.067  14.901  0.00  0.00    +0.000 HD
ENDBRANCH  21  23
ENDBRANCH   3  17
TORSDOF 3
ENDMDL
MODEL 5
REMARK VINA RESULT:      -8.8      6.543     10.080
REMARK  Name = 
REMARK  6 active torsions:
REMARK  status: ('A' for Active; 'I' for Inactive)
REMARK    1  A    between atoms: C_1  and  N_2
REMARK    2  A    between atoms: C_9  and  C_10
REMARK    3  A    between atoms: N_12  and  C_13
REMARK    4  A    between atoms: C_17  and  N_18
REMARK    5  A    between atoms: C_22  and  C_23
REMARK    6  A    between atoms: C_22  and  C_24
REMARK                            x       y       z     vdW  Elec       q    Type
REMARK                         _______ _______ _______ _____ _____    ______ ____
ROOT
ATOM      1  C   UNL     1       1.815   9.013  18.373  0.00  0.00    +0.000 C 
ATOM      2  O   UNL     1       2.103   9.742  17.428  0.00  0.00    +0.000 OA
ATOM      3  N   UNL     1       0.899   9.291  19.377  0.00  0.00    +0.000 N 
ATOM      4  H   UNL     1       0.874   8.679  20.183  0.00  0.00    +0.000 HD
ENDROOT
BRANCH   1  13
ATOM      5  C   UNL     1       2.111   4.206  21.273  0.00  0.00    +0.000 C 
ATOM      6  N   UNL     1       2.970   4.425  20.147  0.00  0.00    +0.000 N 
ATOM      7  C   UNL     1       3.892   3.487  19.635  0.00  0.00    +0.000 A 
ATOM      8  O   UNL     1       4.132   2.365  20.047  0.00  0.00    +0.000 OA
ATOM      9  N   UNL     1       4.504   4.099  18.531  0.00  0.00    +0.000 N 
ATOM     10  C   UNL     1       3.969   5.368  18.361  0.00  0.00    +0.000 A 
ATOM     11  C   UNL     1       4.258   6.300  17.397  0.00  0.00    +0.000 A 
ATOM     12  C   UNL     1       3.542   7.497  17.458  0.00  0.00    +0.000 A 
ATOM     13  C   UNL     1       2.572   7.736  18.471  0.00  0.00    +0.000 A 
ATOM     14  C   UNL     1       2.296   6.764  19.444  0.00  0.00    +0.000 A 
ATOM     15  C   UNL     1       3.015   5.585  19.362  0.00  0.00    +0.000 A 
ATOM     16  H   UNL     1       5.203   3.648  17.960  0.00  0.00    +0.000 HD
ENDBRANCH   1  13
BRANCH   3  17
ATOM     17  C   UNL     1       0.101  10.467  19.452  0.00  0.00    +0.000 A 
ATOM     18  C   UNL     1       0.536  11.628  20.095  0.00  0.00    +0.000 A 
ATOM     19  C   UNL     1      -0.284  12.746  20.180  0.00  0.00    +0.000 A 
ATOM     20  C   UNL     1      -1.551  12.725  19.609  0.00  0.00    +0.000 A 
ATOM     21  C   UNL     1      -2.010  11.601  18.908  0.00  0.00    +0.000 A 
ATOM     22  C   UNL     1      -1.168  10.470  18.842  0.00  0.00    +0.000 A 
BRANCH  21  23
ATOM     23  N   UNL     1      -3.239  11.689  18.194  0.00  0.00    +0.000 N 
ATOM     24  C   UNL     1      -3.440  11.265  16.897  0.00  0.00    +0.000 C 
ATOM     25  O   UNL     1      -2.633  10.979  16.025  0.00  0.00    +0.000 OA
ATOM     26  N   UNL     1      -4.801  11.205  16.661  0.00  0.00    +0.000 N 
ATOM     27  C   UNL     1      -5.535  11.315  17.890  0.00  0.00    +0.000 C 
ATOM     28  C   UNL     1      -6.825  12.094  17.734  0.00  0.00    +0.000 C 
ATOM     29  C   UNL     1      -5.778   9.925  18.494  0.00  0.00    +0.000 C 
ATOM     30  C   UNL     1      -4.464  11.997  18.759  0.00  0.00    +0.000 C 
ATOM     31  O   UNL     1      -4.704  12.535  19.833  0.00  0.00    +0.000 OA
ATOM     32  H   UNL     1      -5.130  10.760  15.812  0.00  0.00    +0.000 HD
ENDBRANCH  21  23
ENDBRANCH   3  17
TORSDOF 3
ENDMDL
MODEL 6
REMARK VINA RESULT:      -8.7      5.956      9.287
REMARK  Name = 
REMARK  6 active torsions:
REMARK  status: ('A' for Active; 'I' for Inactive)
REMARK    1  A    between atoms: C_1  and  N_2
REMARK    2  A    between atoms: C_9  and  C_10
REMARK    3  A    between atoms: N_12  and  C_13
REMARK    4  A    between atoms: C_17  and  N_18
REMARK    5  A    between atoms: C_22  and  C_23
REMARK    6  A    between atoms: C_22  and  C_24
REMARK                            x       y       z     vdW  Elec       q    Type
REMARK                         _______ _______ _______ _____ _____    ______ ____
ROOT
ATOM      1  C   UNL     1       2.084   7.881  18.569  0.00  0.00    +0.000 C 
ATOM      2  O   UNL     1       1.538   8.542  17.690  0.00  0.00    +0.000 OA
ATOM      3  N   UNL     1       1.923   8.041  19.937  0.00  0.00    +0.000 N 
ATOM      4  H   UNL     1       2.552   7.542  20.553  0.00  0.00    +0.000 HD
ENDROOT
BRANCH   1  13
ATOM      5  C   UNL     1       7.518   7.079  17.373  0.00  0.00    +0.000 C 
ATOM      6  N   UNL     1       6.597   5.982  17.322  0.00  0.00    +0.000 N 
ATOM      7  C   UNL     1       6.943   4.644  17.038  0.00  0.00    +0.000 A 
ATOM      8  O   UNL     1       8.046   4.190  16.780  0.00  0.00    +0.000 OA
ATOM      9  N   UNL     1       5.753   3.905  17.109  0.00  0.00    +0.000 N 
ATOM     10  C   UNL     1       4.709   4.758  17.435  0.00  0.00    +0.000 A 
ATOM     11  C   UNL     1       3.384   4.459  17.629  0.00  0.00    +0.000 A 
ATOM     12  C   UNL     1       2.552   5.526  17.975  0.00  0.00    +0.000 A 
ATOM     13  C   UNL     1       3.054   6.851  18.110  0.00  0.00    +0.000 A 
ATOM     14  C   UNL     1       4.414   7.127  17.907  0.00  0.00    +0.000 A 
ATOM     15  C   UNL     1       5.219   6.055  17.568  0.00  0.00    +0.000 A 
ATOM     16  H   UNL     1       5.706   2.908  16.961  0.00  0.00    +0.000 HD
ENDBRANCH   1  13
BRANCH   3  17
ATOM     17  C   UNL     1       1.053   8.985  20.553  0.00  0.00    +0.000 A 
ATOM     18  C   UNL     1       0.343   8.701  21.721  0.00  0.00    +0.000 A 
ATOM     19  C   UNL     1      -0.524   9.634  22.274  0.00  0.00    +0.000 A 
ATOM     20  C   UNL     1      -0.684  10.877  21.672  0.00  0.00    +0.000 A 
ATOM     21  C   UNL     1       0.047  11.227  20.528  0.00  0.00    +0.000 A 
ATOM     22  C   UNL     1       0.915  10.261  19.974  0.00  0.00    +0.000 A 
BRANCH  21  23
ATOM     23  N   UNL     1      -0.019  12.567  20.051  0.00  0.00    +0.000 N 
ATOM     24  C   UNL     1      -0.796  13.001  18.997  0.00  0.00    +0.000 C 
ATOM     25  O   UNL     1      -1.367  12.368  18.123  0.00  0.00    +0.000 OA
ATOM     26  N   UNL     1      -0.855  14.382  19.036  0.00  0.00    +0.000 N 
ATOM     27  C   UNL     1      -0.350  14.878  20.285  0.00  0.00    +0.000 C 
ATOM     28  C   UNL     1       0.411  16.178  20.135  0.00  0.00    +0.000 C 
ATOM     29  C   UNL     1      -1.486  14.998  21.311  0.00  0.00    +0.000 C 
ATOM     30  C   UNL     1       0.503  13.669  20.706  0.00  0.00    +0.000 C 
ATOM     31  O   UNL     1       1.346  13.709  21.594  0.00  0.00    +0.000 OA
ATOM     32  H   UNL     1      -1.514  14.860  18.432  0.00  0.00    +0.000 HD
ENDBRANCH  21  23
ENDBRANCH   3  17
TORSDOF 3
ENDMDL
MODEL 7
REMARK VINA RESULT:      -8.6      1.060      1.533
REMARK  Name = 
REMARK  6 active torsions:
REMARK  status: ('A' for Active; 'I' for Inactive)
REMARK    1  A    between atoms: C_1  and  N_2
REMARK    2  A    between atoms: C_9  and  C_10
REMARK    3  A    between atoms: N_12  and  C_13
REMARK    4  A    between atoms: C_17  and  N_18
REMARK    5  A    between atoms: C_22  and  C_23
REMARK    6  A    between atoms: C_22  and  C_24
REMARK                            x       y       z     vdW  Elec       q    Type
REMARK                         _______ _______ _______ _____ _____    ______ ____
ROOT
ATOM      1  C   UNL     1       7.963   8.916  17.819  0.00  0.00    +0.000 C 
ATOM      2  O   UNL     1       7.162   9.359  17.001  0.00  0.00    +0.000 OA
ATOM      3  N   UNL     1       8.060   7.599  18.243  0.00  0.00    +0.000 N 
ATOM      4  H   UNL     1       8.652   7.397  19.039  0.00  0.00    +0.000 HD
ENDROOT
BRANCH   1  13
ATOM      5  C   UNL     1      11.235  13.343  16.678  0.00  0.00    +0.000 C 
ATOM      6  N   UNL     1      11.053  12.909  18.031  0.00  0.00    +0.000 N 
ATOM      7  C   UNL     1      11.597  13.544  19.168  0.00  0.00    +0.000 A 
ATOM      8  O   UNL     1      12.307  14.534  19.209  0.00  0.00    +0.000 OA
ATOM      9  N   UNL     1      11.159  12.808  20.278  0.00  0.00    +0.000 N 
ATOM     10  C   UNL     1      10.363  11.758  19.841  0.00  0.00    +0.000 A 
ATOM     11  C   UNL     1       9.710  10.808  20.585  0.00  0.00    +0.000 A 
ATOM     12  C   UNL     1       8.953   9.876  19.873  0.00  0.00    +0.000 A 
ATOM     13  C   UNL     1       8.872   9.908  18.452  0.00  0.00    +0.000 A 
ATOM     14  C   UNL     1       9.550  10.893  17.717  0.00  0.00    +0.000 A 
ATOM     15  C   UNL     1      10.290  11.807  18.444  0.00  0.00    +0.000 A 
ATOM     16  H   UNL     1      11.389  13.046  21.231  0.00  0.00    +0.000 HD
ENDBRANCH   1  13
BRANCH   3  17
ATOM     17  C   UNL     1       7.262   6.524  17.761  0.00  0.00    +0.000 A 
ATOM     18  C   UNL     1       7.635   5.747  16.662  0.00  0.00    +0.000 A 
ATOM     19  C   UNL     1       6.813   4.729  16.196  0.00  0.00    +0.000 A 
ATOM     20  C   UNL     1       5.608   4.460  16.835  0.00  0.00    +0.000 A 
ATOM     21  C   UNL     1       5.216   5.179  17.973  0.00  0.00    +0.000 A 
ATOM     22  C   UNL     1       6.059   6.218  18.424  0.00  0.00    +0.000 A 
BRANCH  21  23
ATOM     23  N   UNL     1       4.063   4.755  18.693  0.00  0.00    +0.000 N 
ATOM     24  C   UNL     1       2.819   5.347  18.627  0.00  0.00    +0.000 C 
ATOM     25  O   UNL     1       2.484   6.436  18.184  0.00  0.00    +0.000 OA
ATOM     26  N   UNL     1       1.894   4.487  19.188  0.00  0.00    +0.000 N 
ATOM     27  C   UNL     1       2.463   3.183  19.381  0.00  0.00    +0.000 C 
ATOM     28  C   UNL     1       1.970   2.509  20.644  0.00  0.00    +0.000 C 
ATOM     29  C   UNL     1       2.231   2.308  18.140  0.00  0.00    +0.000 C 
ATOM     30  C   UNL     1       3.955   3.561  19.385  0.00  0.00    +0.000 C 
ATOM     31  O   UNL     1       4.843   2.815  19.777  0.00  0.00    +0.000 OA
ATOM     32  H   UNL     1       0.907   4.692  19.079  0.00  0.00    +0.000 HD
ENDBRANCH  21  23
ENDBRANCH   3  17
TORSDOF 3
ENDMDL
MODEL 8
REMARK VINA RESULT:      -8.6      6.429     10.121
REMARK  Name = 
REMARK  6 active torsions:
REMARK  status: ('A' for Active; 'I' for Inactive)
REMARK    1  A    between atoms: C_1  and  N_2
REMARK    2  A    between atoms: C_9  and  C_10
REMARK    3  A    between atoms: N_12  and  C_13
REMARK    4  A    between atoms: C_17  and  N_18
REMARK    5  A    between atoms: C_22  and  C_23
REMARK    6  A    between atoms: C_22  and  C_24
REMARK                            x       y       z     vdW  Elec       q    Type
REMARK                         _______ _______ _______ _____ _____    ______ ____
ROOT
ATOM      1  C   UNL     1       1.514   8.510  19.536  0.00  0.00    +0.000 C 
ATOM      2  O   UNL     1       1.174   8.708  20.699  0.00  0.00    +0.000 OA
ATOM      3  N   UNL     1       1.192   9.298  18.441  0.00  0.00    +0.000 N 
ATOM      4  H   UNL     1       1.396   8.938  17.518  0.00  0.00    +0.000 HD
ENDROOT
BRANCH   1  13
ATOM      5  C   UNL     1       2.354   3.286  21.436  0.00  0.00    +0.000 C 
ATOM      6  N   UNL     1       3.016   3.739  20.248  0.00  0.00    +0.000 N 
ATOM      7  C   UNL     1       3.859   2.949  19.437  0.00  0.00    +0.000 A 
ATOM      8  O   UNL     1       4.181   1.784  19.597  0.00  0.00    +0.000 OA
ATOM      9  N   UNL     1       4.274   3.772  18.381  0.00  0.00    +0.000 N 
ATOM     10  C   UNL     1       3.699   5.026  18.529  0.00  0.00    +0.000 A 
ATOM     11  C   UNL     1       3.813   6.126  17.717  0.00  0.00    +0.000 A 
ATOM     12  C   UNL     1       3.096   7.259  18.104  0.00  0.00    +0.000 A 
ATOM     13  C   UNL     1       2.298   7.272  19.283  0.00  0.00    +0.000 A 
ATOM     14  C   UNL     1       2.198   6.132  20.094  0.00  0.00    +0.000 A 
ATOM     15  C   UNL     1       2.915   5.020  19.689  0.00  0.00    +0.000 A 
ATOM     16  H   UNL     1       4.880   3.461  17.636  0.00  0.00    +0.000 HD
ENDBRANCH   1  13
BRANCH   3  17
ATOM     17  C   UNL     1       0.437  10.504  18.495  0.00  0.00    +0.000 A 
ATOM     18  C   UNL     1       1.002  11.726  18.864  0.00  0.00    +0.000 A 
ATOM     19  C   UNL     1       0.227  12.876  18.940  0.00  0.00    +0.000 A 
ATOM     20  C   UNL     1      -1.128  12.824  18.633  0.00  0.00    +0.000 A 
ATOM     21  C   UNL     1      -1.728  11.630  18.207  0.00  0.00    +0.000 A 
ATOM     22  C   UNL     1      -0.927  10.470  18.147  0.00  0.00    +0.000 A 
BRANCH  21  23
ATOM     23  N   UNL     1      -3.072  11.663  17.739  0.00  0.00    +0.000 N 
ATOM     24  C   UNL     1      -3.494  11.240  16.495  0.00  0.00    +0.000 C 
ATOM     25  O   UNL     1      -2.854  11.000  15.483  0.00  0.00    +0.000 OA
ATOM     26  N   UNL     1      -4.871  11.116  16.519  0.00  0.00    +0.000 N 
ATOM     27  C   UNL     1      -5.365  11.181  17.865  0.00  0.00    +0.000 C 
ATOM     28  C   UNL     1      -6.695  11.897  17.968  0.00  0.00    +0.000 C 
ATOM     29  C   UNL     1      -5.425   9.776  18.482  0.00  0.00    +0.000 C 
ATOM     30  C   UNL     1      -4.181  11.907  18.529  0.00  0.00    +0.000 C 
ATOM     31  O   UNL     1      -4.239  12.425  19.638  0.00  0.00    +0.000 OA
ATOM     32  H   UNL     1      -5.334  10.662  15.740  0.00  0.00    +0.000 HD
ENDBRANCH  21  23
ENDBRANCH   3  17
TORSDOF 3
ENDMDL
MODEL 9
REMARK VINA RESULT:      -8.5      5.939      9.280
REMARK  Name = 
REMARK  6 active torsions:
REMARK  status: ('A' for Active; 'I' for Inactive)
REMARK    1  A    between atoms: C_1  and  N_2
REMARK    2  A    between atoms: C_9  and  C_10
REMARK    3  A    between atoms: N_12  and  C_13
REMARK    4  A    between atoms: C_17  and  N_18
REMARK    5  A    between atoms: C_22  and  C_23
REMARK    6  A    between atoms: C_22  and  C_24
REMARK                            x       y       z     vdW  Elec       q    Type
REMARK                         _______ _______ _______ _____ _____    ______ ____
ROOT
ATOM      1  C   UNL     1       2.129   6.482  19.800  0.00  0.00    +0.000 C 
ATOM      2  O   UNL     1       1.451   5.749  20.513  0.00  0.00    +0.000 OA
ATOM      3  N   UNL     1       2.080   7.868  19.764  0.00  0.00    +0.000 N 
ATOM      4  H   UNL     1       2.572   8.344  19.019  0.00  0.00    +0.000 HD
ENDROOT
BRANCH   1  13
ATOM      5  C   UNL     1       7.189   6.920  17.389  0.00  0.00    +0.000 C 
ATOM      6  N   UNL     1       6.371   5.769  17.149  0.00  0.00    +0.000 N 
ATOM      7  C   UNL     1       6.748   4.653  16.371  0.00  0.00    +0.000 A 
ATOM      8  O   UNL     1       7.793   4.474  15.769  0.00  0.00    +0.000 OA
ATOM      9  N   UNL     1       5.668   3.759  16.415  0.00  0.00    +0.000 N 
ATOM     10  C   UNL     1       4.662   4.301  17.202  0.00  0.00    +0.000 A 
ATOM     11  C   UNL     1       3.446   3.760  17.533  0.00  0.00    +0.000 A 
ATOM     12  C   UNL     1       2.634   4.528  18.370  0.00  0.00    +0.000 A 
ATOM     13  C   UNL     1       3.046   5.805  18.845  0.00  0.00    +0.000 A 
ATOM     14  C   UNL     1       4.297   6.333  18.490  0.00  0.00    +0.000 A 
ATOM     15  C   UNL     1       5.085   5.553  17.663  0.00  0.00    +0.000 A 
ATOM     16  H   UNL     1       5.667   2.863  15.952  0.00  0.00    +0.000 HD
ENDBRANCH   1  13
BRANCH   3  17
ATOM     17  C   UNL     1       1.252   8.678  20.591  0.00  0.00    +0.000 A 
ATOM     18  C   UNL     1       0.958   8.344  21.915  0.00  0.00    +0.000 A 
ATOM     19  C   UNL     1       0.116   9.140  22.682  0.00  0.00    +0.000 A 
ATOM     20  C   UNL     1      -0.435  10.295  22.139  0.00  0.00    +0.000 A 
ATOM     21  C   UNL     1      -0.127  10.698  20.832  0.00  0.00    +0.000 A 
ATOM     22  C   UNL     1       0.721   9.871  20.064  0.00  0.00    +0.000 A 
BRANCH  21  23
ATOM     23  N   UNL     1      -0.573  11.973  20.380  0.00  0.00    +0.000 N 
ATOM     24  C   UNL     1      -1.619  12.188  19.506  0.00  0.00    +0.000 C 
ATOM     25  O   UNL     1      -2.201  11.412  18.764  0.00  0.00    +0.000 OA
ATOM     26  N   UNL     1      -1.965  13.526  19.559  0.00  0.00    +0.000 N 
ATOM     27  C   UNL     1      -1.343  14.169  20.681  0.00  0.00    +0.000 C 
ATOM     28  C   UNL     1      -0.925  15.594  20.383  0.00  0.00    +0.000 C 
ATOM     29  C   UNL     1      -2.252  14.088  21.917  0.00  0.00    +0.000 C 
ATOM     30  C   UNL     1      -0.182  13.186  20.919  0.00  0.00    +0.000 C 
ATOM     31  O   UNL     1       0.790  13.441  21.618  0.00  0.00    +0.000 OA
ATOM     32  H   UNL     1      -2.817  13.828  19.101  0.00  0.00    +0.000 HD
ENDBRANCH  21  23
ENDBRANCH   3  17
TORSDOF 3
ENDMDL
