MODEL 1
REMARK VINA RESULT:      -7.3      0.000      0.000
REMARK  Name = 
REMARK  4 active torsions:
REMARK  status: ('A' for Active; 'I' for Inactive)
REMARK    1  A    between atoms: C_1  and  C_2
REMARK    2  A    between atoms: N_4  and  C_5
REMARK    3  A    between atoms: C_8  and  C_9
REMARK    4  A    between atoms: C_15  and  C_16
REMARK                            x       y       z     vdW  Elec       q    Type
REMARK                         _______ _______ _______ _____ _____    ______ ____
ROOT
ATOM      1  C   UNL     1       0.268  15.389  19.665  0.00  0.00    +0.000 C 
ATOM      2  C   UNL     1      -1.137  15.548  20.118  0.00  0.00    +0.000 A 
ATOM      3  N   UNL     1      -1.741  16.733  19.945  0.00  0.00    +0.000 NA
ATOM      4  N   UNL     1      -2.960  16.568  20.496  0.00  0.00    +0.000 N 
ATOM      5  C   UNL     1      -3.884  17.670  20.550  0.00  0.00    +0.000 C 
ATOM      6  C   UNL     1      -3.169  15.314  21.008  0.00  0.00    +0.000 A 
ATOM      7  N   UNL     1      -4.289  14.871  21.613  0.00  0.00    +0.000 NA
ATOM      8  C   UNL     1      -4.211  13.586  22.045  0.00  0.00    +0.000 A 
ATOM      9  C   UNL     1      -3.080  12.787  21.924  0.00  0.00    +0.000 A 
ATOM     10  C   UNL     1      -1.933  13.319  21.320  0.00  0.00    +0.000 A 
ATOM     11  C   UNL     1      -1.984  14.620  20.792  0.00  0.00    +0.000 A 
ENDROOT
BRANCH  10  12
ATOM     12  C   UNL     1      -0.776  12.449  21.143  0.00  0.00    +0.000 C 
ATOM     13  O   UNL     1       0.103  12.643  21.988  0.00  0.00    +0.000 OA
ATOM     14  N   UNL     1      -0.644  11.477  20.118  0.00  0.00    +0.000 N 
ATOM     15  C   UNL     1       0.446  10.534  20.389  0.00  0.00    +0.000 C 
ATOM     16  C   UNL     1       1.104   9.852  19.212  0.00  0.00    +0.000 C 
ATOM     17  C   UNL     1       0.175   9.480  18.086  0.00  0.00    +0.000 C 
ATOM     18  C   UNL     1      -1.107  10.250  18.022  0.00  0.00    +0.000 A 
ATOM     19  C   UNL     1      -1.929   9.965  16.908  0.00  0.00    +0.000 A 
ATOM     20  C   UNL     1      -3.150  10.588  16.741  0.00  0.00    +0.000 A 
ATOM     21  F   UNL     1      -3.918  10.294  15.688  0.00  0.00    +0.000 F 
ATOM     22  C   UNL     1      -3.552  11.521  17.671  0.00  0.00    +0.000 A 
ATOM     23  F   UNL     1      -4.746  12.121  17.555  0.00  0.00    +0.000 F 
ATOM     24  C   UNL     1      -2.723  11.856  18.745  0.00  0.00    +0.000 A 
ATOM     25  C   UNL     1      -1.498  11.214  18.982  0.00  0.00    +0.000 A 
ENDBRANCH  10  12
BRANCH   8  26
ATOM     26  C   UNL     1      -5.443  13.084  22.656  0.00  0.00    +0.000 A 
ATOM     27  C   UNL     1      -5.847  12.873  23.961  0.00  0.00    +0.000 A 
ATOM     28  C   UNL     1      -7.167  12.377  23.908  0.00  0.00    +0.000 A 
ATOM     29  C   UNL     1      -7.498  12.314  22.572  0.00  0.00    +0.000 A 
ATOM     30  O   UNL     1      -6.456  12.736  21.810  0.00  0.00    +0.000 OA
ENDBRANCH   8  26
TORSDOF 2
ENDMDL
MODEL 2
REMARK VINA RESULT:      -7.3      2.280      5.655
REMARK  Name = 
REMARK  4 active torsions:
REMARK  status: ('A' for Active; 'I' for Inactive)
REMARK    1  A    between atoms: C_1  and  C_2
REMARK    2  A    between atoms: N_4  and  C_5
REMARK    3  A    between atoms: C_8  and  C_9
REMARK    4  A    between atoms: C_15  and  C_16
REMARK                            x       y       z     vdW  Elec       q    Type
REMARK                         _______ _______ _______ _____ _____    ______ ____
ROOT
ATOM      1  C   UNL     1      -0.925  15.671  19.879  0.00  0.00    +0.000 C 
ATOM      2  C   UNL     1       0.089  14.605  19.679  0.00  0.00    +0.000 A 
ATOM      3  N   UNL     1       1.262  14.929  19.114  0.00  0.00    +0.000 NA
ATOM      4  N   UNL     1       1.924  13.757  19.029  0.00  0.00    +0.000 N 
ATOM      5  C   UNL     1       3.221  13.703  18.409  0.00  0.00    +0.000 C 
ATOM      6  C   UNL     1       1.223  12.691  19.529  0.00  0.00    +0.000 A 
ATOM      7  N   UNL     1       1.638  11.408  19.573  0.00  0.00    +0.000 NA
ATOM      8  C   UNL     1       0.727  10.553  20.104  0.00  0.00    +0.000 A 
ATOM      9  C   UNL     1      -0.540  10.928  20.536  0.00  0.00    +0.000 A 
ATOM     10  C   UNL     1      -0.926  12.270  20.428  0.00  0.00    +0.000 A 
ATOM     11  C   UNL     1       0.004  13.209  19.951  0.00  0.00    +0.000 A 
ENDROOT
BRANCH  10  12
ATOM     12  C   UNL     1      -2.234  12.659  20.943  0.00  0.00    +0.000 C 
ATOM     13  O   UNL     1      -2.187  13.065  22.109  0.00  0.00    +0.000 OA
ATOM     14  N   UNL     1      -3.446  12.587  20.210  0.00  0.00    +0.000 N 
ATOM     15  C   UNL     1      -4.522  13.352  20.848  0.00  0.00    +0.000 C 
ATOM     16  C   UNL     1      -5.948  12.931  20.581  0.00  0.00    +0.000 C 
ATOM     17  C   UNL     1      -6.222  12.451  19.179  0.00  0.00    +0.000 C 
ATOM     18  C   UNL     1      -5.029  11.969  18.415  0.00  0.00    +0.000 A 
ATOM     19  C   UNL     1      -5.307  11.428  17.138  0.00  0.00    +0.000 A 
ATOM     20  C   UNL     1      -4.294  10.969  16.320  0.00  0.00    +0.000 A 
ATOM     21  F   UNL     1      -4.576  10.476  15.110  0.00  0.00    +0.000 F 
ATOM     22  C   UNL     1      -2.995  11.020  16.777  0.00  0.00    +0.000 A 
ATOM     23  F   UNL     1      -1.986  10.612  15.995  0.00  0.00    +0.000 F 
ATOM     24  C   UNL     1      -2.713  11.496  18.061  0.00  0.00    +0.000 A 
ATOM     25  C   UNL     1      -3.703  12.018  18.907  0.00  0.00    +0.000 A 
ENDBRANCH  10  12
BRANCH   8  26
ATOM     26  C   UNL     1       1.193   9.169  20.202  0.00  0.00    +0.000 A 
ATOM     27  C   UNL     1       1.074   8.186  21.167  0.00  0.00    +0.000 A 
ATOM     28  C   UNL     1       1.736   7.041  20.672  0.00  0.00    +0.000 A 
ATOM     29  C   UNL     1       2.221   7.388  19.429  0.00  0.00    +0.000 A 
ATOM     30  O   UNL     1       1.899   8.676  19.143  0.00  0.00    +0.000 OA
ENDBRANCH   8  26
TORSDOF 2
ENDMDL
MODEL 3
REMARK VINA RESULT:      -7.1      2.099      5.553
REMARK  Name = 
REMARK  4 active torsions:
REMARK  status: ('A' for Active; 'I' for Inactive)
REMARK    1  A    between atoms: C_1  and  C_2
REMARK    2  A    between atoms: N_4  and  C_5
REMARK    3  A    between atoms: C_8  and  C_9
REMARK    4  A    between atoms: C_15  and  C_16
REMARK                            x       y       z     vdW  Elec       q    Type
REMARK                         _______ _______ _______ _____ _____    ______ ____
ROOT
ATOM      1  C   UNL     1      -3.076  16.376  21.738  0.00  0.00    +0.000 C 
ATOM      2  C   UNL     1      -2.005  15.503  21.194  0.00  0.00    +0.000 A 
ATOM      3  N   UNL     1      -1.143  16.018  20.305  0.00  0.00    +0.000 NA
ATOM      4  N   UNL     1      -0.347  14.981  19.975  0.00  0.00    +0.000 N 
ATOM      5  C   UNL     1       0.680  15.145  18.981  0.00  0.00    +0.000 C 
ATOM      6  C   UNL     1      -0.659  13.818  20.630  0.00  0.00    +0.000 A 
ATOM      7  N   UNL     1      -0.033  12.630  20.496  0.00  0.00    +0.000 NA
ATOM      8  C   UNL     1      -0.568  11.638  21.252  0.00  0.00    +0.000 A 
ATOM      9  C   UNL     1      -1.681  11.791  22.070  0.00  0.00    +0.000 A 
ATOM     10  C   UNL     1      -2.311  13.041  22.137  0.00  0.00    +0.000 A 
ATOM     11  C   UNL     1      -1.755  14.120  21.428  0.00  0.00    +0.000 A 
ENDROOT
BRANCH  10  12
ATOM     12  C   UNL     1      -3.439  13.202  23.047  0.00  0.00    +0.000 C 
ATOM     13  O   UNL     1      -3.087  13.450  24.205  0.00  0.00    +0.000 OA
ATOM     14  N   UNL     1      -4.802  13.089  22.674  0.00  0.00    +0.000 N 
ATOM     15  C   UNL     1      -5.701  13.631  23.698  0.00  0.00    +0.000 C 
ATOM     16  C   UNL     1      -7.109  13.087  23.767  0.00  0.00    +0.000 C 
ATOM     17  C   UNL     1      -7.740  12.771  22.436  0.00  0.00    +0.000 C 
ATOM     18  C   UNL     1      -6.787  12.538  21.306  0.00  0.00    +0.000 A 
ATOM     19  C   UNL     1      -7.381  12.146  20.085  0.00  0.00    +0.000 A 
ATOM     20  C   UNL     1      -6.617  11.922  18.956  0.00  0.00    +0.000 A 
ATOM     21  F   UNL     1      -7.199  11.567  17.808  0.00  0.00    +0.000 F 
ATOM     22  C   UNL     1      -5.249  12.062  19.042  0.00  0.00    +0.000 A 
ATOM     23  F   UNL     1      -4.482  11.883  17.957  0.00  0.00    +0.000 F 
ATOM     24  C   UNL     1      -4.643  12.390  20.258  0.00  0.00    +0.000 A 
ATOM     25  C   UNL     1      -5.382  12.675  21.416  0.00  0.00    +0.000 A 
ENDBRANCH  10  12
BRANCH   8  26
ATOM     26  C   UNL     1       0.140  10.361  21.150  0.00  0.00    +0.000 A 
ATOM     27  C   UNL     1       0.380   9.327  22.036  0.00  0.00    +0.000 A 
ATOM     28  C   UNL     1       1.121   8.350  21.338  0.00  0.00    +0.000 A 
ATOM     29  C   UNL     1       1.292   8.841  20.061  0.00  0.00    +0.000 A 
ATOM     30  O   UNL     1       0.704  10.059  19.945  0.00  0.00    +0.000 OA
ENDBRANCH   8  26
TORSDOF 2
ENDMDL
MODEL 4
REMARK VINA RESULT:      -7.1      2.173      5.766
REMARK  Name = 
REMARK  4 active torsions:
REMARK  status: ('A' for Active; 'I' for Inactive)
REMARK    1  A    between atoms: C_1  and  C_2
REMARK    2  A    between atoms: N_4  and  C_5
REMARK    3  A    between atoms: C_8  and  C_9
REMARK    4  A    between atoms: C_15  and  C_16
REMARK                            x       y       z     vdW  Elec       q    Type
REMARK                         _______ _______ _______ _____ _____    ______ ____
ROOT
ATOM      1  C   UNL     1      -1.098  15.434  20.675  0.00  0.00    +0.000 C 
ATOM      2  C   UNL     1      -0.173  14.388  20.171  0.00  0.00    +0.000 A 
ATOM      3  N   UNL     1       0.757  14.731  19.267  0.00  0.00    +0.000 NA
ATOM      4  N   UNL     1       1.386  13.573  18.981  0.00  0.00    +0.000 N 
ATOM      5  C   UNL     1       2.425  13.541  17.987  0.00  0.00    +0.000 C 
ATOM      6  C   UNL     1       0.901  12.496  19.678  0.00  0.00    +0.000 A 
ATOM      7  N   UNL     1       1.338  11.224  19.593  0.00  0.00    +0.000 NA
ATOM      8  C   UNL     1       0.658  10.354  20.383  0.00  0.00    +0.000 A 
ATOM      9  C   UNL     1      -0.419  10.706  21.188  0.00  0.00    +0.000 A 
ATOM     10  C   UNL     1      -0.850  12.039  21.204  0.00  0.00    +0.000 A 
ATOM     11  C   UNL     1      -0.137  12.993  20.458  0.00  0.00    +0.000 A 
ENDROOT
BRANCH  10  12
ATOM     12  C   UNL     1      -1.940  12.405  22.101  0.00  0.00    +0.000 C 
ATOM     13  O   UNL     1      -1.573  12.530  23.273  0.00  0.00    +0.000 OA
ATOM     14  N   UNL     1      -3.287  12.599  21.701  0.00  0.00    +0.000 N 
ATOM     15  C   UNL     1      -4.075  13.283  22.731  0.00  0.00    +0.000 C 
ATOM     16  C   UNL     1      -5.567  13.051  22.755  0.00  0.00    +0.000 C 
ATOM     17  C   UNL     1      -6.218  12.925  21.402  0.00  0.00    +0.000 C 
ATOM     18  C   UNL     1      -5.309  12.534  20.280  0.00  0.00    +0.000 A 
ATOM     19  C   UNL     1      -5.942  12.321  19.034  0.00  0.00    +0.000 A 
ATOM     20  C   UNL     1      -5.216  11.980  17.911  0.00  0.00    +0.000 A 
ATOM     21  F   UNL     1      -5.832  11.798  16.739  0.00  0.00    +0.000 F 
ATOM     22  C   UNL     1      -3.852  11.821  18.024  0.00  0.00    +0.000 A 
ATOM     23  F   UNL     1      -3.114  11.521  16.946  0.00  0.00    +0.000 F 
ATOM     24  C   UNL     1      -3.221  11.969  19.262  0.00  0.00    +0.000 A 
ATOM     25  C   UNL     1      -3.911  12.364  20.419  0.00  0.00    +0.000 A 
ENDBRANCH  10  12
BRANCH   8  26
ATOM     26  C   UNL     1       1.163   8.981  20.333  0.00  0.00    +0.000 A 
ATOM     27  C   UNL     1       1.095   7.905  21.199  0.00  0.00    +0.000 A 
ATOM     28  C   UNL     1       1.774   6.834  20.578  0.00  0.00    +0.000 A 
ATOM     29  C   UNL     1       2.218   7.315  19.366  0.00  0.00    +0.000 A 
ATOM     30  O   UNL     1       1.854   8.615  19.215  0.00  0.00    +0.000 OA
ENDBRANCH   8  26
TORSDOF 2
ENDMDL
MODEL 5
REMARK VINA RESULT:      -7.0      3.125      5.428
REMARK  Name = 
REMARK  4 active torsions:
REMARK  status: ('A' for Active; 'I' for Inactive)
REMARK    1  A    between atoms: C_1  and  C_2
REMARK    2  A    between atoms: N_4  and  C_5
REMARK    3  A    between atoms: C_8  and  C_9
REMARK    4  A    between atoms: C_15  and  C_16
REMARK                            x       y       z     vdW  Elec       q    Type
REMARK                         _______ _______ _______ _____ _____    ______ ____
ROOT
ATOM      1  C   UNL     1      -7.159   9.677  19.750  0.00  0.00    +0.000 C 
ATOM      2  C   UNL     1      -7.093  10.924  20.553  0.00  0.00    +0.000 A 
ATOM      3  N   UNL     1      -7.595  10.918  21.797  0.00  0.00    +0.000 NA
ATOM      4  N   UNL     1      -7.432  12.185  22.228  0.00  0.00    +0.000 N 
ATOM      5  C   UNL     1      -7.916  12.576  23.525  0.00  0.00    +0.000 C 
ATOM      6  C   UNL     1      -6.833  13.007  21.308  0.00  0.00    +0.000 A 
ATOM      7  N   UNL     1      -6.547  14.315  21.468  0.00  0.00    +0.000 NA
ATOM      8  C   UNL     1      -5.970  14.889  20.381  0.00  0.00    +0.000 A 
ATOM      9  C   UNL     1      -5.720  14.225  19.186  0.00  0.00    +0.000 A 
ATOM     10  C   UNL     1      -6.076  12.875  19.069  0.00  0.00    +0.000 A 
ATOM     11  C   UNL     1      -6.611  12.214  20.188  0.00  0.00    +0.000 A 
ENDROOT
BRANCH  10  12
ATOM     12  C   UNL     1      -5.749  12.176  17.831  0.00  0.00    +0.000 C 
ATOM     13  O   UNL     1      -6.709  12.095  17.060  0.00  0.00    +0.000 OA
ATOM     14  N   UNL     1      -4.475  11.636  17.521  0.00  0.00    +0.000 N 
ATOM     15  C   UNL     1      -4.348  11.305  16.097  0.00  0.00    +0.000 C 
ATOM     16  C   UNL     1      -3.368  10.225  15.703  0.00  0.00    +0.000 C 
ATOM     17  C   UNL     1      -2.092  10.196  16.503  0.00  0.00    +0.000 C 
ATOM     18  C   UNL     1      -2.157  10.842  17.851  0.00  0.00    +0.000 A 
ATOM     19  C   UNL     1      -0.986  10.725  18.635  0.00  0.00    +0.000 A 
ATOM     20  C   UNL     1      -0.904  11.297  19.889  0.00  0.00    +0.000 A 
ATOM     21  F   UNL     1       0.217  11.188  20.608  0.00  0.00    +0.000 F 
ATOM     22  C   UNL     1      -1.999  11.970  20.385  0.00  0.00    +0.000 A 
ATOM     23  F   UNL     1      -1.942  12.564  21.585  0.00  0.00    +0.000 F 
ATOM     24  C   UNL     1      -3.183  12.043  19.645  0.00  0.00    +0.000 A 
ATOM     25  C   UNL     1      -3.295  11.520  18.348  0.00  0.00    +0.000 A 
ENDBRANCH  10  12
BRANCH   8  26
ATOM     26  C   UNL     1      -5.610  16.295  20.568  0.00  0.00    +0.000 A 
ATOM     27  C   UNL     1      -6.277  17.394  21.078  0.00  0.00    +0.000 A 
ATOM     28  C   UNL     1      -5.388  18.488  21.002  0.00  0.00    +0.000 A 
ATOM     29  C   UNL     1      -4.224  17.996  20.451  0.00  0.00    +0.000 A 
ATOM     30  O   UNL     1      -4.356  16.671  20.183  0.00  0.00    +0.000 OA
ENDBRANCH   8  26
TORSDOF 2
ENDMDL
MODEL 6
REMARK VINA RESULT:      -7.0      1.145      1.383
REMARK  Name = 
REMARK  4 active torsions:
REMARK  status: ('A' for Active; 'I' for Inactive)
REMARK    1  A    between atoms: C_1  and  C_2
REMARK    2  A    between atoms: N_4  and  C_5
REMARK    3  A    between atoms: C_8  and  C_9
REMARK    4  A    between atoms: C_15  and  C_16
REMARK                            x       y       z     vdW  Elec       q    Type
REMARK                         _______ _______ _______ _____ _____    ______ ____
ROOT
ATOM      1  C   UNL     1       1.201  14.898  18.952  0.00  0.00    +0.000 C 
ATOM      2  C   UNL     1      -0.069  15.192  19.663  0.00  0.00    +0.000 A 
ATOM      3  N   UNL     1      -0.591  16.424  19.569  0.00  0.00    +0.000 NA
ATOM      4  N   UNL     1      -1.688  16.381  20.352  0.00  0.00    +0.000 N 
ATOM      5  C   UNL     1      -2.485  17.562  20.545  0.00  0.00    +0.000 C 
ATOM      6  C   UNL     1      -1.898  15.160  20.939  0.00  0.00    +0.000 A 
ATOM      7  N   UNL     1      -2.911  14.831  21.765  0.00  0.00    +0.000 NA
ATOM      8  C   UNL     1      -2.860  13.553  22.220  0.00  0.00    +0.000 A 
ATOM      9  C   UNL     1      -1.847  12.653  21.910  0.00  0.00    +0.000 A 
ATOM     10  C   UNL     1      -0.800  13.067  21.076  0.00  0.00    +0.000 A 
ATOM     11  C   UNL     1      -0.842  14.358  20.521  0.00  0.00    +0.000 A 
ENDROOT
BRANCH  10  12
ATOM     12  C   UNL     1       0.220  12.092  20.708  0.00  0.00    +0.000 C 
ATOM     13  O   UNL     1       1.245  12.191  21.391  0.00  0.00    +0.000 OA
ATOM     14  N   UNL     1       0.081  11.124  19.681  0.00  0.00    +0.000 N 
ATOM     15  C   UNL     1       1.106  10.078  19.767  0.00  0.00    +0.000 C 
ATOM     16  C   UNL     1       1.485   9.349  18.499  0.00  0.00    +0.000 C 
ATOM     17  C   UNL     1       0.347   9.080  17.549  0.00  0.00    +0.000 C 
ATOM     18  C   UNL     1      -0.847   9.970  17.701  0.00  0.00    +0.000 A 
ATOM     19  C   UNL     1      -1.870   9.778  16.745  0.00  0.00    +0.000 A 
ATOM     20  C   UNL     1      -3.036  10.517  16.785  0.00  0.00    +0.000 A 
ATOM     21  F   UNL     1      -3.997  10.309  15.881  0.00  0.00    +0.000 F 
ATOM     22  C   UNL     1      -3.182  11.474  17.765  0.00  0.00    +0.000 A 
ATOM     23  F   UNL     1      -4.315  12.186  17.852  0.00  0.00    +0.000 F 
ATOM     24  C   UNL     1      -2.154  11.716  18.681  0.00  0.00    +0.000 A 
ATOM     25  C   UNL     1      -0.974  10.956  18.708  0.00  0.00    +0.000 A 
ENDBRANCH  10  12
BRANCH   8  26
ATOM     26  C   UNL     1      -3.986  13.177  23.075  0.00  0.00    +0.000 A 
ATOM     27  C   UNL     1      -5.357  13.325  22.973  0.00  0.00    +0.000 A 
ATOM     28  C   UNL     1      -5.922  12.739  24.126  0.00  0.00    +0.000 A 
ATOM     29  C   UNL     1      -4.864  12.263  24.870  0.00  0.00    +0.000 A 
ATOM     30  O   UNL     1      -3.690  12.530  24.240  0.00  0.00    +0.000 OA
ENDBRANCH   8  26
TORSDOF 2
ENDMDL
MODEL 7
REMARK VINA RESULT:      -6.9      2.028      4.044
REMARK  Name = 
REMARK  4 active torsions:
REMARK  status: ('A' for Active; 'I' for Inactive)
REMARK    1  A    between atoms: C_1  and  C_2
REMARK    2  A    between atoms: N_4  and  C_5
REMARK    3  A    between atoms: C_8  and  C_9
REMARK    4  A    between atoms: C_15  and  C_16
REMARK                            x       y       z     vdW  Elec       q    Type
REMARK                         _______ _______ _______ _____ _____    ______ ____
ROOT
ATOM      1  C   UNL     1      -1.215  10.539  23.158  0.00  0.00    +0.000 C 
ATOM      2  C   UNL     1      -1.859  11.869  23.017  0.00  0.00    +0.000 A 
ATOM      3  N   UNL     1      -2.885  12.177  23.825  0.00  0.00    +0.000 NA
ATOM      4  N   UNL     1      -3.271  13.403  23.418  0.00  0.00    +0.000 N 
ATOM      5  C   UNL     1      -4.406  14.043  24.028  0.00  0.00    +0.000 C 
ATOM      6  C   UNL     1      -2.523  13.901  22.383  0.00  0.00    +0.000 A 
ATOM      7  N   UNL     1      -2.684  15.097  21.780  0.00  0.00    +0.000 NA
ATOM      8  C   UNL     1      -1.813  15.324  20.764  0.00  0.00    +0.000 A 
ATOM      9  C   UNL     1      -0.855  14.410  20.336  0.00  0.00    +0.000 A 
ATOM     10  C   UNL     1      -0.764  13.169  20.979  0.00  0.00    +0.000 A 
ATOM     11  C   UNL     1      -1.595  12.911  22.083  0.00  0.00    +0.000 A 
ENDROOT
BRANCH  10  12
ATOM     12  C   UNL     1       0.287  12.248  20.561  0.00  0.00    +0.000 C 
ATOM     13  O   UNL     1       1.346  12.420  21.172  0.00  0.00    +0.000 OA
ATOM     14  N   UNL     1       0.139  11.253  19.561  0.00  0.00    +0.000 N 
ATOM     15  C   UNL     1       1.227  10.270  19.595  0.00  0.00    +0.000 C 
ATOM     16  C   UNL     1       1.565   9.539  18.317  0.00  0.00    +0.000 C 
ATOM     17  C   UNL     1       0.384   9.186  17.450  0.00  0.00    +0.000 C 
ATOM     18  C   UNL     1      -0.847  10.007  17.666  0.00  0.00    +0.000 A 
ATOM     19  C   UNL     1      -1.918   9.737  16.783  0.00  0.00    +0.000 A 
ATOM     20  C   UNL     1      -3.120  10.407  16.889  0.00  0.00    +0.000 A 
ATOM     21  F   UNL     1      -4.125  10.126  16.054  0.00  0.00    +0.000 F 
ATOM     22  C   UNL     1      -3.259  11.373  17.861  0.00  0.00    +0.000 A 
ATOM     23  F   UNL     1      -4.423  12.020  18.012  0.00  0.00    +0.000 F 
ATOM     24  C   UNL     1      -2.189  11.693  18.702  0.00  0.00    +0.000 A 
ATOM     25  C   UNL     1      -0.967  11.004  18.663  0.00  0.00    +0.000 A 
ENDBRANCH  10  12
BRANCH   8  26
ATOM     26  C   UNL     1      -1.950  16.641  20.141  0.00  0.00    +0.000 A 
ATOM     27  C   UNL     1      -3.030  17.445  19.831  0.00  0.00    +0.000 A 
ATOM     28  C   UNL     1      -2.515  18.620  19.243  0.00  0.00    +0.000 A 
ATOM     29  C   UNL     1      -1.145  18.469  19.227  0.00  0.00    +0.000 A 
ATOM     30  O   UNL     1      -0.799  17.271  19.765  0.00  0.00    +0.000 OA
ENDBRANCH   8  26
TORSDOF 2
ENDMDL
MODEL 8
REMARK VINA RESULT:      -6.9      2.441      5.914
REMARK  Name = 
REMARK  4 active torsions:
REMARK  status: ('A' for Active; 'I' for Inactive)
REMARK    1  A    between atoms: C_1  and  C_2
REMARK    2  A    between atoms: N_4  and  C_5
REMARK    3  A    between atoms: C_8  and  C_9
REMARK    4  A    between atoms: C_15  and  C_16
REMARK                            x       y       z     vdW  Elec       q    Type
REMARK                         _______ _______ _______ _____ _____    ______ ____
ROOT
ATOM      1  C   UNL     1      -1.976  11.464  23.443  0.00  0.00    +0.000 C 
ATOM      2  C   UNL     1      -1.263  12.214  22.377  0.00  0.00    +0.000 A 
ATOM      3  N   UNL     1      -0.095  11.735  21.922  0.00  0.00    +0.000 NA
ATOM      4  N   UNL     1       0.310  12.651  21.019  0.00  0.00    +0.000 N 
ATOM      5  C   UNL     1       1.578  12.500  20.356  0.00  0.00    +0.000 C 
ATOM      6  C   UNL     1      -0.561  13.698  20.868  0.00  0.00    +0.000 A 
ATOM      7  N   UNL     1      -0.413  14.751  20.038  0.00  0.00    +0.000 NA
ATOM      8  C   UNL     1      -1.423  15.655  20.109  0.00  0.00    +0.000 A 
ATOM      9  C   UNL     1      -2.506  15.552  20.975  0.00  0.00    +0.000 A 
ATOM     10  C   UNL     1      -2.584  14.453  21.840  0.00  0.00    +0.000 A 
ATOM     11  C   UNL     1      -1.600  13.452  21.757  0.00  0.00    +0.000 A 
ENDROOT
BRANCH  10  12
ATOM     12  C   UNL     1      -3.757  14.326  22.696  0.00  0.00    +0.000 C 
ATOM     13  O   UNL     1      -3.611  14.874  23.793  0.00  0.00    +0.000 OA
ATOM     14  N   UNL     1      -4.951  13.650  22.337  0.00  0.00    +0.000 N 
ATOM     15  C   UNL     1      -6.062  13.975  23.238  0.00  0.00    +0.000 C 
ATOM     16  C   UNL     1      -7.172  12.962  23.391  0.00  0.00    +0.000 C 
ATOM     17  C   UNL     1      -7.540  12.219  22.133  0.00  0.00    +0.000 C 
ATOM     18  C   UNL     1      -6.485  12.179  21.073  0.00  0.00    +0.000 A 
ATOM     19  C   UNL     1      -6.798  11.398  19.937  0.00  0.00    +0.000 A 
ATOM     20  C   UNL     1      -5.922  11.295  18.875  0.00  0.00    +0.000 A 
ATOM     21  F   UNL     1      -6.244  10.564  17.804  0.00  0.00    +0.000 F 
ATOM     22  C   UNL     1      -4.712  11.950  18.946  0.00  0.00    +0.000 A 
ATOM     23  F   UNL     1      -3.852  11.896  17.919  0.00  0.00    +0.000 F 
ATOM     24  C   UNL     1      -4.363  12.676  20.088  0.00  0.00    +0.000 A 
ATOM     25  C   UNL     1      -5.242  12.849  21.170  0.00  0.00    +0.000 A 
ENDBRANCH  10  12
BRANCH   8  26
ATOM     26  C   UNL     1      -1.292  16.773  19.173  0.00  0.00    +0.000 A 
ATOM     27  C   UNL     1      -1.999  17.945  18.979  0.00  0.00    +0.000 A 
ATOM     28  C   UNL     1      -1.374  18.631  17.915  0.00  0.00    +0.000 A 
ATOM     29  C   UNL     1      -0.317  17.839  17.519  0.00  0.00    +0.000 A 
ATOM     30  O   UNL     1      -0.267  16.712  18.275  0.00  0.00    +0.000 OA
ENDBRANCH   8  26
TORSDOF 2
ENDMDL
MODEL 9
REMARK VINA RESULT:      -6.8      2.548      6.277
REMARK  Name = 
REMARK  4 active torsions:
REMARK  status: ('A' for Active; 'I' for Inactive)
REMARK    1  A    between atoms: C_1  and  C_2
REMARK    2  A    between atoms: N_4  and  C_5
REMARK    3  A    between atoms: C_8  and  C_9
REMARK    4  A    between atoms: C_15  and  C_16
REMARK                            x       y       z     vdW  Elec       q    Type
REMARK                         _______ _______ _______ _____ _____    ______ ____
ROOT
ATOM      1  C   UNL     1      -0.757  10.105  22.535  0.00  0.00    +0.000 C 
ATOM      2  C   UNL     1      -0.207  10.821  21.355  0.00  0.00    +0.000 A 
ATOM      3  N   UNL     1       0.480  10.123  20.439  0.00  0.00    +0.000 NA
ATOM      4  N   UNL     1       0.878  11.050  19.545  0.00  0.00    +0.000 N 
ATOM      5  C   UNL     1       1.706  10.672  18.431  0.00  0.00    +0.000 C 
ATOM      6  C   UNL     1       0.462  12.321  19.847  0.00  0.00    +0.000 A 
ATOM      7  N   UNL     1       0.712  13.437  19.133  0.00  0.00    +0.000 NA
ATOM      8  C   UNL     1       0.195  14.568  19.678  0.00  0.00    +0.000 A 
ATOM      9  C   UNL     1      -0.502  14.608  20.881  0.00  0.00    +0.000 A 
ATOM     10  C   UNL     1      -0.696  13.419  21.596  0.00  0.00    +0.000 A 
ATOM     11  C   UNL     1      -0.242  12.210  21.041  0.00  0.00    +0.000 A 
ENDROOT
BRANCH  10  12
ATOM     12  C   UNL     1      -1.482  13.468  22.823  0.00  0.00    +0.000 C 
ATOM     13  O   UNL     1      -0.796  13.699  23.823  0.00  0.00    +0.000 OA
ATOM     14  N   UNL     1      -2.885  13.273  22.892  0.00  0.00    +0.000 N 
ATOM     15  C   UNL     1      -3.441  13.713  24.176  0.00  0.00    +0.000 C 
ATOM     16  C   UNL     1      -4.721  13.070  24.655  0.00  0.00    +0.000 C 
ATOM     17  C   UNL     1      -5.724  12.757  23.575  0.00  0.00    +0.000 C 
ATOM     18  C   UNL     1      -5.168  12.632  22.191  0.00  0.00    +0.000 A 
ATOM     19  C   UNL     1      -6.097  12.242  21.199  0.00  0.00    +0.000 A 
ATOM     20  C   UNL     1      -5.720  12.113  19.877  0.00  0.00    +0.000 A 
ATOM     21  F   UNL     1      -6.617  11.758  18.952  0.00  0.00    +0.000 F 
ATOM     22  C   UNL     1      -4.406  12.345  19.535  0.00  0.00    +0.000 A 
ATOM     23  F   UNL     1      -4.015  12.259  18.256  0.00  0.00    +0.000 F 
ATOM     24  C   UNL     1      -3.464  12.672  20.514  0.00  0.00    +0.000 A 
ATOM     25  C   UNL     1      -3.812  12.863  21.861  0.00  0.00    +0.000 A 
ENDBRANCH  10  12
BRANCH   8  26
ATOM     26  C   UNL     1       0.419  15.774  18.880  0.00  0.00    +0.000 A 
ATOM     27  C   UNL     1      -0.417  16.741  18.353  0.00  0.00    +0.000 A 
ATOM     28  C   UNL     1       0.404  17.671  17.679  0.00  0.00    +0.000 A 
ATOM     29  C   UNL     1       1.697  17.222  17.834  0.00  0.00    +0.000 A 
ATOM     30  O   UNL     1       1.710  16.071  18.557  0.00  0.00    +0.000 OA
ENDBRANCH   8  26
TORSDOF 2
ENDMDL
