MODEL 1
REMARK VINA RESULT:      -8.4      0.000      0.000
REMARK  Name = 
REMARK  7 active torsions:
REMARK  status: ('A' for Active; 'I' for Inactive)
REMARK    1  A    between atoms: C_1  and  N_2
REMARK    2  A    between atoms: C_6  and  C_7
REMARK    3  A    between atoms: C_7  and  C_8
REMARK    4  A    between atoms: C_8  and  C_9
REMARK    5  A    between atoms: C_9  and  N_12
REMARK    6  A    between atoms: C_19  and  C_20
REMARK    7  A    between atoms: C_20  and  C_21
REMARK                            x       y       z     vdW  Elec       q    Type
REMARK                         _______ _______ _______ _____ _____    ______ ____
ROOT
ATOM      1  N   UNL     1       3.244   4.215  19.016  0.00  0.00    +0.000 N 
ATOM      2  C   UNL     1       4.572   4.760  19.322  0.00  0.00    +0.000 C 
ATOM      3  C   UNL     1       5.307   4.665  18.026  0.00  0.00    +0.000 A 
ATOM      4  C   UNL     1       4.472   4.110  17.062  0.00  0.00    +0.000 A 
ATOM      5  C   UNL     1       4.850   3.937  15.744  0.00  0.00    +0.000 A 
ATOM      6  C   UNL     1       6.133   4.346  15.388  0.00  0.00    +0.000 A 
ATOM      7  C   UNL     1       7.003   4.887  16.353  0.00  0.00    +0.000 A 
ATOM      8  C   UNL     1       6.606   5.046  17.697  0.00  0.00    +0.000 A 
ATOM      9  C   UNL     1       3.185   3.790  17.684  0.00  0.00    +0.000 C 
ATOM     10  O   UNL     1       2.296   3.244  17.051  0.00  0.00    +0.000 OA
ENDROOT
BRANCH   8  11
ATOM     11  C   UNL     1       7.565   5.597  18.725  0.00  0.00    +0.000 C 
ATOM     12  C   UNL     1       7.997   7.015  18.378  0.00  0.00    +0.000 C 
ATOM     13  F   UNL     1       7.023   5.621  19.976  0.00  0.00    +0.000 F 
ATOM     14  F   UNL     1       8.695   4.839  18.836  0.00  0.00    +0.000 F 
ENDBRANCH   8  11
BRANCH   1  15
ATOM     15  C   UNL     1       2.217   4.138  19.969  0.00  0.00    +0.000 C 
ATOM     16  C   UNL     1       1.956   2.984  20.606  0.00  0.00    +0.000 C 
ATOM     17  F   UNL     1       0.935   2.833  21.465  0.00  0.00    +0.000 F 
BRANCH  15  18
ATOM     18  C   UNL     1       1.399   5.402  20.232  0.00  0.00    +0.000 C 
BRANCH  18  19
ATOM     19  C   UNL     1       2.091   6.746  20.490  0.00  0.00    +0.000 C 
BRANCH  19  25
ATOM     20  C   UNL     1       0.625   9.600  20.433  0.00  0.00    +0.000 C 
ATOM     21  N   UNL     1       1.376   8.962  19.385  0.00  0.00    +0.000 N 
ATOM     22  C   UNL     1       1.629   9.522  18.169  0.00  0.00    +0.000 A 
ATOM     23  N   UNL     1       2.362   8.711  17.450  0.00  0.00    +0.000 NA
ATOM     24  N   UNL     1       2.593   7.589  18.204  0.00  0.00    +0.000 NA
ATOM     25  C   UNL     1       1.999   7.736  19.377  0.00  0.00    +0.000 A 
ENDBRANCH  19  25
ENDBRANCH  18  19
ENDBRANCH  15  18
ENDBRANCH   1  15
TORSDOF 5
ENDMDL
MODEL 2
REMARK VINA RESULT:      -8.4      2.833      6.975
REMARK  Name = 
REMARK  7 active torsions:
REMARK  status: ('A' for Active; 'I' for Inactive)
REMARK    1  A    between atoms: C_1  and  N_2
REMARK    2  A    between atoms: C_6  and  C_7
REMARK    3  A    between atoms: C_7  and  C_8
REMARK    4  A    between atoms: C_8  and  C_9
REMARK    5  A    between atoms: C_9  and  N_12
REMARK    6  A    between atoms: C_19  and  C_20
REMARK    7  A    between atoms: C_20  and  C_21
REMARK                            x       y       z     vdW  Elec       q    Type
REMARK                         _______ _______ _______ _____ _____    ______ ____
ROOT
ATOM      1  N   UNL     1       2.324   7.368  19.076  0.00  0.00    +0.000 N 
ATOM      2  C   UNL     1       1.622   7.652  20.333  0.00  0.00    +0.000 C 
ATOM      3  C   UNL     1       1.026   9.002  20.115  0.00  0.00    +0.000 A 
ATOM      4  C   UNL     1       1.361   9.454  18.843  0.00  0.00    +0.000 A 
ATOM      5  C   UNL     1       0.914  10.656  18.326  0.00  0.00    +0.000 A 
ATOM      6  C   UNL     1       0.092  11.435  19.137  0.00  0.00    +0.000 A 
ATOM      7  C   UNL     1      -0.240  11.007  20.437  0.00  0.00    +0.000 A 
ATOM      8  C   UNL     1       0.233   9.784  20.953  0.00  0.00    +0.000 A 
ATOM      9  C   UNL     1       2.208   8.449  18.196  0.00  0.00    +0.000 C 
ATOM     10  O   UNL     1       2.675   8.639  17.085  0.00  0.00    +0.000 OA
ENDROOT
BRANCH   8  11
ATOM     11  C   UNL     1      -0.105   9.358  22.362  0.00  0.00    +0.000 C 
ATOM     12  C   UNL     1      -0.872  10.445  23.102  0.00  0.00    +0.000 C 
ATOM     13  F   UNL     1      -0.858   8.222  22.393  0.00  0.00    +0.000 F 
ATOM     14  F   UNL     1       1.010   9.071  23.097  0.00  0.00    +0.000 F 
ENDBRANCH   8  11
BRANCH   1  15
ATOM     15  C   UNL     1       3.017   6.169  18.846  0.00  0.00    +0.000 C 
ATOM     16  C   UNL     1       4.225   5.957  19.396  0.00  0.00    +0.000 C 
ATOM     17  F   UNL     1       4.965   4.866  19.144  0.00  0.00    +0.000 F 
BRANCH  15  18
ATOM     18  C   UNL     1       2.357   5.135  17.934  0.00  0.00    +0.000 C 
BRANCH  18  19
ATOM     19  C   UNL     1       1.412   4.072  18.507  0.00  0.00    +0.000 C 
BRANCH  19  25
ATOM     20  C   UNL     1       3.672   1.876  19.118  0.00  0.00    +0.000 C 
ATOM     21  N   UNL     1       2.812   2.555  20.051  0.00  0.00    +0.000 N 
ATOM     22  C   UNL     1       2.864   2.394  21.403  0.00  0.00    +0.000 A 
ATOM     23  N   UNL     1       1.981   3.170  21.977  0.00  0.00    +0.000 NA
ATOM     24  N   UNL     1       1.328   3.854  20.984  0.00  0.00    +0.000 NA
ATOM     25  C   UNL     1       1.827   3.485  19.816  0.00  0.00    +0.000 A 
ENDBRANCH  19  25
ENDBRANCH  18  19
ENDBRANCH  15  18
ENDBRANCH   1  15
TORSDOF 5
ENDMDL
MODEL 3
REMARK VINA RESULT:      -8.1      1.850      3.777
REMARK  Name = 
REMARK  7 active torsions:
REMARK  status: ('A' for Active; 'I' for Inactive)
REMARK    1  A    between atoms: C_1  and  N_2
REMARK    2  A    between atoms: C_6  and  C_7
REMARK    3  A    between atoms: C_7  and  C_8
REMARK    4  A    between atoms: C_8  and  C_9
REMARK    5  A    between atoms: C_9  and  N_12
REMARK    6  A    between atoms: C_19  and  C_20
REMARK    7  A    between atoms: C_20  and  C_21
REMARK                            x       y       z     vdW  Elec       q    Type
REMARK                         _______ _______ _______ _____ _____    ______ ____
ROOT
ATOM      1  N   UNL     1       3.124   5.626  19.101  0.00  0.00    +0.000 N 
ATOM      2  C   UNL     1       4.557   5.792  19.371  0.00  0.00    +0.000 C 
ATOM      3  C   UNL     1       5.218   5.271  18.139  0.00  0.00    +0.000 A 
ATOM      4  C   UNL     1       4.246   4.841  17.242  0.00  0.00    +0.000 A 
ATOM      5  C   UNL     1       4.544   4.350  15.984  0.00  0.00    +0.000 A 
ATOM      6  C   UNL     1       5.888   4.292  15.621  0.00  0.00    +0.000 A 
ATOM      7  C   UNL     1       6.888   4.701  16.524  0.00  0.00    +0.000 A 
ATOM      8  C   UNL     1       6.569   5.188  17.808  0.00  0.00    +0.000 A 
ATOM      9  C   UNL     1       2.928   5.026  17.852  0.00  0.00    +0.000 C 
ATOM     10  O   UNL     1       1.911   4.673  17.278  0.00  0.00    +0.000 OA
ENDROOT
BRANCH   8  11
ATOM     11  C   UNL     1       7.657   5.589  18.774  0.00  0.00    +0.000 C 
ATOM     12  C   UNL     1       8.128   7.015  18.521  0.00  0.00    +0.000 C 
ATOM     13  F   UNL     1       7.250   5.510  20.073  0.00  0.00    +0.000 F 
ATOM     14  F   UNL     1       8.750   4.775  18.688  0.00  0.00    +0.000 F 
ENDBRANCH   8  11
BRANCH   1  15
ATOM     15  C   UNL     1       2.128   6.016  20.011  0.00  0.00    +0.000 C 
ATOM     16  C   UNL     1       1.918   7.315  20.284  0.00  0.00    +0.000 C 
ATOM     17  F   UNL     1       1.037   7.739  21.204  0.00  0.00    +0.000 F 
BRANCH  15  18
ATOM     18  C   UNL     1       1.318   4.912  20.690  0.00  0.00    +0.000 C 
BRANCH  18  19
ATOM     19  C   UNL     1       2.017   3.718  21.350  0.00  0.00    +0.000 C 
BRANCH  19  25
ATOM     20  C   UNL     1       0.786   2.051  18.899  0.00  0.00    +0.000 C 
ATOM     21  N   UNL     1       2.149   2.088  19.358  0.00  0.00    +0.000 N 
ATOM     22  C   UNL     1       3.181   1.425  18.762  0.00  0.00    +0.000 A 
ATOM     23  N   UNL     1       4.298   1.683  19.391  0.00  0.00    +0.000 NA
ATOM     24  N   UNL     1       3.999   2.530  20.428  0.00  0.00    +0.000 NA
ATOM     25  C   UNL     1       2.700   2.778  20.412  0.00  0.00    +0.000 A 
ENDBRANCH  19  25
ENDBRANCH  18  19
ENDBRANCH  15  18
ENDBRANCH   1  15
TORSDOF 5
ENDMDL
MODEL 4
REMARK VINA RESULT:      -8.1      0.824      1.449
REMARK  Name = 
REMARK  7 active torsions:
REMARK  status: ('A' for Active; 'I' for Inactive)
REMARK    1  A    between atoms: C_1  and  N_2
REMARK    2  A    between atoms: C_6  and  C_7
REMARK    3  A    between atoms: C_7  and  C_8
REMARK    4  A    between atoms: C_8  and  C_9
REMARK    5  A    between atoms: C_9  and  N_12
REMARK    6  A    between atoms: C_19  and  C_20
REMARK    7  A    between atoms: C_20  and  C_21
REMARK                            x       y       z     vdW  Elec       q    Type
REMARK                         _______ _______ _______ _____ _____    ______ ____
ROOT
ATOM      1  N   UNL     1       3.273   4.333  19.046  0.00  0.00    +0.000 N 
ATOM      2  C   UNL     1       4.618   4.842  19.341  0.00  0.00    +0.000 C 
ATOM      3  C   UNL     1       5.349   4.697  18.048  0.00  0.00    +0.000 A 
ATOM      4  C   UNL     1       4.496   4.147  17.096  0.00  0.00    +0.000 A 
ATOM      5  C   UNL     1       4.869   3.935  15.782  0.00  0.00    +0.000 A 
ATOM      6  C   UNL     1       6.164   4.295  15.418  0.00  0.00    +0.000 A 
ATOM      7  C   UNL     1       7.050   4.830  16.372  0.00  0.00    +0.000 A 
ATOM      8  C   UNL     1       6.659   5.030  17.711  0.00  0.00    +0.000 A 
ATOM      9  C   UNL     1       3.200   3.881  17.724  0.00  0.00    +0.000 C 
ATOM     10  O   UNL     1       2.295   3.350  17.102  0.00  0.00    +0.000 OA
ENDROOT
BRANCH   8  11
ATOM     11  C   UNL     1       7.634   5.573  18.728  0.00  0.00    +0.000 C 
ATOM     12  C   UNL     1       8.045   7.001  18.397  0.00  0.00    +0.000 C 
ATOM     13  F   UNL     1       7.120   5.570  19.991  0.00  0.00    +0.000 F 
ATOM     14  F   UNL     1       8.775   4.824  18.801  0.00  0.00    +0.000 F 
ENDBRANCH   8  11
BRANCH   1  15
ATOM     15  C   UNL     1       2.244   4.308  20.000  0.00  0.00    +0.000 C 
ATOM     16  C   UNL     1       1.772   3.142  20.473  0.00  0.00    +0.000 C 
ATOM     17  F   UNL     1       0.737   3.058  21.322  0.00  0.00    +0.000 F 
BRANCH  15  18
ATOM     18  C   UNL     1       1.670   5.649  20.457  0.00  0.00    +0.000 C 
BRANCH  18  19
ATOM     19  C   UNL     1       2.150   6.964  19.830  0.00  0.00    +0.000 C 
BRANCH  19  25
ATOM     20  C   UNL     1       1.200   9.610  18.282  0.00  0.00    +0.000 C 
ATOM     21  N   UNL     1       1.106   9.316  19.687  0.00  0.00    +0.000 N 
ATOM     22  C   UNL     1       0.529  10.138  20.609  0.00  0.00    +0.000 A 
ATOM     23  N   UNL     1       0.569   9.579  21.791  0.00  0.00    +0.000 NA
ATOM     24  N   UNL     1       1.192   8.365  21.649  0.00  0.00    +0.000 NA
ATOM     25  C   UNL     1       1.518   8.201  20.378  0.00  0.00    +0.000 A 
ENDBRANCH  19  25
ENDBRANCH  18  19
ENDBRANCH  15  18
ENDBRANCH   1  15
TORSDOF 5
ENDMDL
MODEL 5
REMARK VINA RESULT:      -8.0      2.622      6.164
REMARK  Name = 
REMARK  7 active torsions:
REMARK  status: ('A' for Active; 'I' for Inactive)
REMARK    1  A    between atoms: C_1  and  N_2
REMARK    2  A    between atoms: C_6  and  C_7
REMARK    3  A    between atoms: C_7  and  C_8
REMARK    4  A    between atoms: C_8  and  C_9
REMARK    5  A    between atoms: C_9  and  N_12
REMARK    6  A    between atoms: C_19  and  C_20
REMARK    7  A    between atoms: C_20  and  C_21
REMARK                            x       y       z     vdW  Elec       q    Type
REMARK                         _______ _______ _______ _____ _____    ______ ____
ROOT
ATOM      1  N   UNL     1       2.163   5.745  19.751  0.00  0.00    +0.000 N 
ATOM      2  C   UNL     1       1.486   6.606  20.728  0.00  0.00    +0.000 C 
ATOM      3  C   UNL     1       1.442   7.941  20.061  0.00  0.00    +0.000 A 
ATOM      4  C   UNL     1       2.047   7.852  18.812  0.00  0.00    +0.000 A 
ATOM      5  C   UNL     1       2.120   8.915  17.931  0.00  0.00    +0.000 A 
ATOM      6  C   UNL     1       1.554  10.122  18.336  0.00  0.00    +0.000 A 
ATOM      7  C   UNL     1       0.959  10.239  19.606  0.00  0.00    +0.000 A 
ATOM      8  C   UNL     1       0.903   9.149  20.498  0.00  0.00    +0.000 A 
ATOM      9  C   UNL     1       2.536   6.485  18.623  0.00  0.00    +0.000 C 
ATOM     10  O   UNL     1       3.152   6.168  17.619  0.00  0.00    +0.000 OA
ENDROOT
BRANCH   8  11
ATOM     11  C   UNL     1       0.291   9.304  21.870  0.00  0.00    +0.000 C 
ATOM     12  C   UNL     1      -0.251  10.711  22.081  0.00  0.00    +0.000 C 
ATOM     13  F   UNL     1      -0.732   8.428  22.082  0.00  0.00    +0.000 F 
ATOM     14  F   UNL     1       1.191   9.057  22.868  0.00  0.00    +0.000 F 
ENDBRANCH   8  11
BRANCH   1  15
ATOM     15  C   UNL     1       2.396   4.380  19.975  0.00  0.00    +0.000 C 
ATOM     16  C   UNL     1       1.374   3.511  20.050  0.00  0.00    +0.000 C 
ATOM     17  F   UNL     1       1.533   2.211  20.343  0.00  0.00    +0.000 F 
BRANCH  15  18
ATOM     18  C   UNL     1       3.846   3.929  20.152  0.00  0.00    +0.000 C 
BRANCH  18  19
ATOM     19  C   UNL     1       4.705   3.549  18.940  0.00  0.00    +0.000 C 
BRANCH  19  25
ATOM     20  C   UNL     1       6.166   4.253  16.171  0.00  0.00    +0.000 C 
ATOM     21  N   UNL     1       6.485   4.723  17.493  0.00  0.00    +0.000 N 
ATOM     22  C   UNL     1       7.474   5.618  17.775  0.00  0.00    +0.000 A 
ATOM     23  N   UNL     1       7.494   5.870  19.058  0.00  0.00    +0.000 NA
ATOM     24  N   UNL     1       6.501   5.122  19.638  0.00  0.00    +0.000 NA
ATOM     25  C   UNL     1       5.888   4.426  18.695  0.00  0.00    +0.000 A 
ENDBRANCH  19  25
ENDBRANCH  18  19
ENDBRANCH  15  18
ENDBRANCH   1  15
TORSDOF 5
ENDMDL
MODEL 6
REMARK VINA RESULT:      -8.0      1.149      1.330
REMARK  Name = 
REMARK  7 active torsions:
REMARK  status: ('A' for Active; 'I' for Inactive)
REMARK    1  A    between atoms: C_1  and  N_2
REMARK    2  A    between atoms: C_6  and  C_7
REMARK    3  A    between atoms: C_7  and  C_8
REMARK    4  A    between atoms: C_8  and  C_9
REMARK    5  A    between atoms: C_9  and  N_12
REMARK    6  A    between atoms: C_19  and  C_20
REMARK    7  A    between atoms: C_20  and  C_21
REMARK                            x       y       z     vdW  Elec       q    Type
REMARK                         _______ _______ _______ _____ _____    ______ ____
ROOT
ATOM      1  N   UNL     1       3.741   4.342  18.885  0.00  0.00    +0.000 N 
ATOM      2  C   UNL     1       4.782   5.373  18.798  0.00  0.00    +0.000 C 
ATOM      3  C   UNL     1       5.483   5.070  17.517  0.00  0.00    +0.000 A 
ATOM      4  C   UNL     1       4.896   3.958  16.922  0.00  0.00    +0.000 A 
ATOM      5  C   UNL     1       5.294   3.458  15.696  0.00  0.00    +0.000 A 
ATOM      6  C   UNL     1       6.334   4.117  15.044  0.00  0.00    +0.000 A 
ATOM      7  C   UNL     1       6.958   5.230  15.639  0.00  0.00    +0.000 A 
ATOM      8  C   UNL     1       6.548   5.719  16.896  0.00  0.00    +0.000 A 
ATOM      9  C   UNL     1       3.824   3.471  17.793  0.00  0.00    +0.000 C 
ATOM     10  O   UNL     1       3.188   2.468  17.512  0.00  0.00    +0.000 OA
ENDROOT
BRANCH   8  11
ATOM     11  C   UNL     1       7.252   6.893  17.534  0.00  0.00    +0.000 C 
ATOM     12  C   UNL     1       7.989   6.478  18.800  0.00  0.00    +0.000 C 
ATOM     13  F   UNL     1       8.159   7.471  16.696  0.00  0.00    +0.000 F 
ATOM     14  F   UNL     1       6.386   7.893  17.873  0.00  0.00    +0.000 F 
ENDBRANCH   8  11
BRANCH   1  15
ATOM     15  C   UNL     1       2.826   4.273  19.947  0.00  0.00    +0.000 C 
ATOM     16  C   UNL     1       2.921   3.306  20.875  0.00  0.00    +0.000 C 
ATOM     17  F   UNL     1       2.027   3.145  21.863  0.00  0.00    +0.000 F 
BRANCH  15  18
ATOM     18  C   UNL     1       1.712   5.320  19.990  0.00  0.00    +0.000 C 
BRANCH  18  19
ATOM     19  C   UNL     1       2.000   6.755  20.445  0.00  0.00    +0.000 C 
BRANCH  19  25
ATOM     20  C   UNL     1       0.729   9.697  20.605  0.00  0.00    +0.000 C 
ATOM     21  N   UNL     1       1.359   9.058  19.481  0.00  0.00    +0.000 N 
ATOM     22  C   UNL     1       1.562   9.652  18.272  0.00  0.00    +0.000 A 
ATOM     23  N   UNL     1       2.186   8.828  17.470  0.00  0.00    +0.000 NA
ATOM     24  N   UNL     1       2.395   7.662  18.163  0.00  0.00    +0.000 NA
ATOM     25  C   UNL     1       1.896   7.797  19.380  0.00  0.00    +0.000 A 
ENDBRANCH  19  25
ENDBRANCH  18  19
ENDBRANCH  15  18
ENDBRANCH   1  15
TORSDOF 5
ENDMDL
MODEL 7
REMARK VINA RESULT:      -7.8      2.936      6.879
REMARK  Name = 
REMARK  7 active torsions:
REMARK  status: ('A' for Active; 'I' for Inactive)
REMARK    1  A    between atoms: C_1  and  N_2
REMARK    2  A    between atoms: C_6  and  C_7
REMARK    3  A    between atoms: C_7  and  C_8
REMARK    4  A    between atoms: C_8  and  C_9
REMARK    5  A    between atoms: C_9  and  N_12
REMARK    6  A    between atoms: C_19  and  C_20
REMARK    7  A    between atoms: C_20  and  C_21
REMARK                            x       y       z     vdW  Elec       q    Type
REMARK                         _______ _______ _______ _____ _____    ______ ____
ROOT
ATOM      1  N   UNL     1       2.151   6.986  19.815  0.00  0.00    +0.000 N 
ATOM      2  C   UNL     1       1.399   7.526  20.953  0.00  0.00    +0.000 C 
ATOM      3  C   UNL     1       0.980   8.884  20.497  0.00  0.00    +0.000 A 
ATOM      4  C   UNL     1       1.455   9.103  19.208  0.00  0.00    +0.000 A 
ATOM      5  C   UNL     1       1.189  10.255  18.491  0.00  0.00    +0.000 A 
ATOM      6  C   UNL     1       0.407  11.227  19.110  0.00  0.00    +0.000 A 
ATOM      7  C   UNL     1      -0.064  11.035  20.423  0.00  0.00    +0.000 A 
ATOM      8  C   UNL     1       0.226   9.860  21.145  0.00  0.00    +0.000 A 
ATOM      9  C   UNL     1       2.223   7.930  18.784  0.00  0.00    +0.000 C 
ATOM     10  O   UNL     1       2.787   7.902  17.703  0.00  0.00    +0.000 OA
ENDROOT
BRANCH   8  11
ATOM     11  C   UNL     1      -0.258   9.687  22.565  0.00  0.00    +0.000 C 
ATOM     12  C   UNL     1      -1.082  10.883  23.020  0.00  0.00    +0.000 C 
ATOM     13  F   UNL     1      -1.026   8.570  22.717  0.00  0.00    +0.000 F 
ATOM     14  F   UNL     1       0.773   9.538  23.448  0.00  0.00    +0.000 F 
ENDBRANCH   8  11
BRANCH   1  15
ATOM     15  C   UNL     1       2.714   5.700  19.816  0.00  0.00    +0.000 C 
ATOM     16  C   UNL     1       2.335   4.785  20.725  0.00  0.00    +0.000 C 
ATOM     17  F   UNL     1       2.898   3.571  20.824  0.00  0.00    +0.000 F 
BRANCH  15  18
ATOM     18  C   UNL     1       3.783   5.394  18.768  0.00  0.00    +0.000 C 
BRANCH  18  19
ATOM     19  C   UNL     1       5.269   5.611  19.075  0.00  0.00    +0.000 C 
BRANCH  19  25
ATOM     20  C   UNL     1       5.183   6.130  15.909  0.00  0.00    +0.000 C 
ATOM     21  N   UNL     1       6.162   5.396  16.666  0.00  0.00    +0.000 N 
ATOM     22  C   UNL     1       7.278   4.824  16.133  0.00  0.00    +0.000 A 
ATOM     23  N   UNL     1       7.984   4.260  17.078  0.00  0.00    +0.000 NA
ATOM     24  N   UNL     1       7.318   4.457  18.261  0.00  0.00    +0.000 NA
ATOM     25  C   UNL     1       6.215   5.145  18.017  0.00  0.00    +0.000 A 
ENDBRANCH  19  25
ENDBRANCH  18  19
ENDBRANCH  15  18
ENDBRANCH   1  15
TORSDOF 5
ENDMDL
MODEL 8
REMARK VINA RESULT:      -7.8      2.627      6.496
REMARK  Name = 
REMARK  7 active torsions:
REMARK  status: ('A' for Active; 'I' for Inactive)
REMARK    1  A    between atoms: C_1  and  N_2
REMARK    2  A    between atoms: C_6  and  C_7
REMARK    3  A    between atoms: C_7  and  C_8
REMARK    4  A    between atoms: C_8  and  C_9
REMARK    5  A    between atoms: C_9  and  N_12
REMARK    6  A    between atoms: C_19  and  C_20
REMARK    7  A    between atoms: C_20  and  C_21
REMARK                            x       y       z     vdW  Elec       q    Type
REMARK                         _______ _______ _______ _____ _____    ______ ____
ROOT
ATOM      1  N   UNL     1       2.360   6.424  19.672  0.00  0.00    +0.000 N 
ATOM      2  C   UNL     1       1.613   7.099  20.739  0.00  0.00    +0.000 C 
ATOM      3  C   UNL     1       1.335   8.455  20.182  0.00  0.00    +0.000 A 
ATOM      4  C   UNL     1       1.880   8.549  18.906  0.00  0.00    +0.000 A 
ATOM      5  C   UNL     1       1.746   9.670  18.108  0.00  0.00    +0.000 A 
ATOM      6  C   UNL     1       1.028  10.744  18.629  0.00  0.00    +0.000 A 
ATOM      7  C   UNL     1       0.490  10.678  19.928  0.00  0.00    +0.000 A 
ATOM      8  C   UNL     1       0.645   9.532  20.734  0.00  0.00    +0.000 A 
ATOM      9  C   UNL     1       2.558   7.289  18.591  0.00  0.00    +0.000 C 
ATOM     10  O   UNL     1       3.161   7.143  17.540  0.00  0.00    +0.000 OA
ENDROOT
BRANCH   8  11
ATOM     11  C   UNL     1       0.089   9.494  22.137  0.00  0.00    +0.000 C 
ATOM     12  C   UNL     1      -0.602  10.801  22.497  0.00  0.00    +0.000 C 
ATOM     13  F   UNL     1      -0.812   8.485  22.310  0.00  0.00    +0.000 F 
ATOM     14  F   UNL     1       1.061   9.272  23.072  0.00  0.00    +0.000 F 
ENDBRANCH   8  11
BRANCH   1  15
ATOM     15  C   UNL     1       2.807   5.097  19.778  0.00  0.00    +0.000 C 
ATOM     16  C   UNL     1       1.956   4.110  20.106  0.00  0.00    +0.000 C 
ATOM     17  F   UNL     1       2.344   2.840  20.301  0.00  0.00    +0.000 F 
BRANCH  15  18
ATOM     18  C   UNL     1       4.291   4.828  19.533  0.00  0.00    +0.000 C 
BRANCH  18  19
ATOM     19  C   UNL     1       4.741   3.723  18.570  0.00  0.00    +0.000 C 
BRANCH  19  25
ATOM     20  C   UNL     1       7.727   4.677  17.884  0.00  0.00    +0.000 C 
ATOM     21  N   UNL     1       6.595   4.586  17.001  0.00  0.00    +0.000 N 
ATOM     22  C   UNL     1       6.636   4.860  15.667  0.00  0.00    +0.000 A 
ATOM     23  N   UNL     1       5.458   4.653  15.135  0.00  0.00    +0.000 NA
ATOM     24  N   UNL     1       4.621   4.240  16.139  0.00  0.00    +0.000 NA
ATOM     25  C   UNL     1       5.304   4.197  17.271  0.00  0.00    +0.000 A 
ENDBRANCH  19  25
ENDBRANCH  18  19
ENDBRANCH  15  18
ENDBRANCH   1  15
TORSDOF 5
ENDMDL
MODEL 9
REMARK VINA RESULT:      -7.7      2.930      5.938
REMARK  Name = 
REMARK  7 active torsions:
REMARK  status: ('A' for Active; 'I' for Inactive)
REMARK    1  A    between atoms: C_1  and  N_2
REMARK    2  A    between atoms: C_6  and  C_7
REMARK    3  A    between atoms: C_7  and  C_8
REMARK    4  A    between atoms: C_8  and  C_9
REMARK    5  A    between atoms: C_9  and  N_12
REMARK    6  A    between atoms: C_19  and  C_20
REMARK    7  A    between atoms: C_20  and  C_21
REMARK                            x       y       z     vdW  Elec       q    Type
REMARK                         _______ _______ _______ _____ _____    ______ ____
ROOT
ATOM      1  N   UNL     1       4.531   4.714  16.756  0.00  0.00    +0.000 N 
ATOM      2  C   UNL     1       4.049   3.692  17.692  0.00  0.00    +0.000 C 
ATOM      3  C   UNL     1       3.266   4.467  18.699  0.00  0.00    +0.000 A 
ATOM      4  C   UNL     1       3.300   5.818  18.369  0.00  0.00    +0.000 A 
ATOM      5  C   UNL     1       2.624   6.788  19.086  0.00  0.00    +0.000 A 
ATOM      6  C   UNL     1       1.883   6.368  20.188  0.00  0.00    +0.000 A 
ATOM      7  C   UNL     1       1.855   5.009  20.553  0.00  0.00    +0.000 A 
ATOM      8  C   UNL     1       2.559   4.033  19.819  0.00  0.00    +0.000 A 
ATOM      9  C   UNL     1       4.123   5.987  17.169  0.00  0.00    +0.000 C 
ATOM     10  O   UNL     1       4.347   7.095  16.709  0.00  0.00    +0.000 OA
ENDROOT
BRANCH   8  11
ATOM     11  C   UNL     1       2.545   2.585  20.246  0.00  0.00    +0.000 C 
ATOM     12  C   UNL     1       3.924   2.126  20.699  0.00  0.00    +0.000 C 
ATOM     13  F   UNL     1       1.674   2.357  21.270  0.00  0.00    +0.000 F 
ATOM     14  F   UNL     1       2.145   1.753  19.240  0.00  0.00    +0.000 F 
ENDBRANCH   8  11
BRANCH   1  15
ATOM     15  C   UNL     1       5.305   4.406  15.626  0.00  0.00    +0.000 C 
ATOM     16  C   UNL     1       4.740   4.314  14.410  0.00  0.00    +0.000 C 
ATOM     17  F   UNL     1       5.417   3.943  13.312  0.00  0.00    +0.000 F 
BRANCH  15  18
ATOM     18  C   UNL     1       6.798   4.157  15.838  0.00  0.00    +0.000 C 
BRANCH  18  19
ATOM     19  C   UNL     1       7.459   4.451  17.190  0.00  0.00    +0.000 C 
BRANCH  19  25
ATOM     20  C   UNL     1       8.152   5.834  20.002  0.00  0.00    +0.000 C 
ATOM     21  N   UNL     1       7.961   6.462  18.722  0.00  0.00    +0.000 N 
ATOM     22  C   UNL     1       8.099   7.799  18.492  0.00  0.00    +0.000 A 
ATOM     23  N   UNL     1       7.893   8.055  17.225  0.00  0.00    +0.000 NA
ATOM     24  N   UNL     1       7.608   6.865  16.606  0.00  0.00    +0.000 NA
ATOM     25  C   UNL     1       7.648   5.898  17.508  0.00  0.00    +0.000 A 
ENDBRANCH  19  25
ENDBRANCH  18  19
ENDBRANCH  15  18
ENDBRANCH   1  15
TORSDOF 5
ENDMDL
