MODEL 1
REMARK VINA RESULT:      -9.9      0.000      0.000
REMARK  Name = 
REMARK  4 active torsions:
REMARK  status: ('A' for Active; 'I' for Inactive)
REMARK    1  A    between atoms: C_1  and  C_2
REMARK    2  A    between atoms: C_5  and  N_6
REMARK    3  A    between atoms: C_7  and  C_9
REMARK    4  A    between atoms: C_16  and  C_17
REMARK                            x       y       z     vdW  Elec       q    Type
REMARK                         _______ _______ _______ _____ _____    ______ ____
ROOT
ATOM      1  C   UNL     1       1.109   8.776  20.880  0.00  0.00    +0.000 A 
ATOM      2  C   UNL     1       0.397   8.549  22.069  0.00  0.00    +0.000 A 
ATOM      3  C   UNL     1      -0.431   9.553  22.584  0.00  0.00    +0.000 A 
ATOM      4  C   UNL     1      -0.575  10.755  21.884  0.00  0.00    +0.000 A 
ATOM      5  C   UNL     1       0.197  11.002  20.744  0.00  0.00    +0.000 A 
ATOM      6  C   UNL     1       1.071  10.029  20.268  0.00  0.00    +0.000 A 
ATOM      7  C   UNL     1      -0.018  12.268  19.975  0.00  0.00    +0.000 C 
ATOM      8  C   UNL     1      -1.521  12.537  19.922  0.00  0.00    +0.000 C 
ATOM      9  O   UNL     1      -2.127  12.486  21.244  0.00  0.00    +0.000 OA
ATOM     10  C   UNL     1      -1.642  11.719  22.263  0.00  0.00    +0.000 C 
ATOM     11  O   UNL     1      -2.105  11.743  23.392  0.00  0.00    +0.000 OA
ENDROOT
BRANCH   8  12
ATOM     12  C   UNL     1      -2.210  11.666  18.878  0.00  0.00    +0.000 A 
ATOM     13  C   UNL     1      -1.505  10.857  17.972  0.00  0.00    +0.000 A 
ATOM     14  C   UNL     1      -2.185  10.145  16.978  0.00  0.00    +0.000 A 
ATOM     15  C   UNL     1      -3.572  10.227  16.875  0.00  0.00    +0.000 A 
ATOM     16  C   UNL     1      -4.284  11.030  17.758  0.00  0.00    +0.000 A 
ATOM     17  C   UNL     1      -3.608  11.744  18.749  0.00  0.00    +0.000 A 
ENDBRANCH   8  12
BRANCH   1  19
ATOM     18  N   UNL     1       1.700   6.456  20.722  0.00  0.00    +0.000 N 
ATOM     19  C   UNL     1       1.783   7.693  20.112  0.00  0.00    +0.000 C 
ATOM     20  O   UNL     1       2.236   7.952  19.006  0.00  0.00    +0.000 OA
ATOM     21  H   UNL     1       1.202   6.426  21.598  0.00  0.00    +0.000 HD
BRANCH  18  26
ATOM     22  C   UNL     1       3.463   1.339  18.686  0.00  0.00    +0.000 C 
ATOM     23  C   UNL     1       3.004   2.684  19.170  0.00  0.00    +0.000 A 
ATOM     24  C   UNL     1       1.676   2.870  19.592  0.00  0.00    +0.000 A 
ATOM     25  C   UNL     1       1.223   4.101  20.085  0.00  0.00    +0.000 A 
ATOM     26  C   UNL     1       2.073   5.208  20.186  0.00  0.00    +0.000 A 
ATOM     27  C   UNL     1       3.389   5.016  19.733  0.00  0.00    +0.000 A 
ATOM     28  N   UNL     1       4.464   5.865  19.653  0.00  0.00    +0.000 N 
ATOM     29  N   UNL     1       5.579   5.315  19.150  0.00  0.00    +0.000 NA
ATOM     30  C   UNL     1       5.209   4.059  18.894  0.00  0.00    +0.000 A 
ATOM     31  C   UNL     1       3.859   3.803  19.233  0.00  0.00    +0.000 A 
ATOM     32  H   UNL     1       4.501   6.840  19.919  0.00  0.00    +0.000 HD
ENDBRANCH  18  26
ENDBRANCH   1  19
TORSDOF 3
ENDMDL
MODEL 2
REMARK VINA RESULT:      -9.5      2.969      9.016
REMARK  Name = 
REMARK  4 active torsions:
REMARK  status: ('A' for Active; 'I' for Inactive)
REMARK    1  A    between atoms: C_1  and  C_2
REMARK    2  A    between atoms: C_5  and  N_6
REMARK    3  A    between atoms: C_7  and  C_9
REMARK    4  A    between atoms: C_16  and  C_17
REMARK                            x       y       z     vdW  Elec       q    Type
REMARK                         _______ _______ _______ _____ _____    ______ ____
ROOT
ATOM      1  C   UNL     1       1.952   7.006  19.754  0.00  0.00    +0.000 A 
ATOM      2  C   UNL     1       1.916   6.027  20.761  0.00  0.00    +0.000 A 
ATOM      3  C   UNL     1       2.439   4.753  20.509  0.00  0.00    +0.000 A 
ATOM      4  C   UNL     1       3.032   4.484  19.270  0.00  0.00    +0.000 A 
ATOM      5  C   UNL     1       2.992   5.438  18.250  0.00  0.00    +0.000 A 
ATOM      6  C   UNL     1       2.413   6.683  18.478  0.00  0.00    +0.000 A 
ATOM      7  C   UNL     1       3.687   5.153  16.955  0.00  0.00    +0.000 C 
ATOM      8  C   UNL     1       5.014   4.466  17.274  0.00  0.00    +0.000 C 
ATOM      9  O   UNL     1       4.835   3.328  18.163  0.00  0.00    +0.000 OA
ATOM     10  C   UNL     1       3.825   3.241  19.075  0.00  0.00    +0.000 C 
ATOM     11  O   UNL     1       3.631   2.249  19.760  0.00  0.00    +0.000 OA
ENDROOT
BRANCH   8  12
ATOM     12  C   UNL     1       6.067   5.468  17.735  0.00  0.00    +0.000 A 
ATOM     13  C   UNL     1       6.338   6.662  17.048  0.00  0.00    +0.000 A 
ATOM     14  C   UNL     1       7.374   7.503  17.468  0.00  0.00    +0.000 A 
ATOM     15  C   UNL     1       8.151   7.168  18.575  0.00  0.00    +0.000 A 
ATOM     16  C   UNL     1       7.901   5.985  19.261  0.00  0.00    +0.000 A 
ATOM     17  C   UNL     1       6.869   5.142  18.843  0.00  0.00    +0.000 A 
ENDBRANCH   8  12
BRANCH   1  19
ATOM     18  N   UNL     1       1.575   9.198  18.852  0.00  0.00    +0.000 N 
ATOM     19  C   UNL     1       1.685   8.448  20.008  0.00  0.00    +0.000 C 
ATOM     20  O   UNL     1       1.485   8.815  21.158  0.00  0.00    +0.000 OA
ATOM     21  H   UNL     1       1.684   8.695  17.986  0.00  0.00    +0.000 HD
BRANCH  18  26
ATOM     22  C   UNL     1      -0.327  14.650  18.565  0.00  0.00    +0.000 C 
ATOM     23  C   UNL     1       0.160  13.231  18.592  0.00  0.00    +0.000 A 
ATOM     24  C   UNL     1       1.533  12.954  18.709  0.00  0.00    +0.000 A 
ATOM     25  C   UNL     1       2.019  11.642  18.776  0.00  0.00    +0.000 A 
ATOM     26  C   UNL     1       1.160  10.539  18.735  0.00  0.00    +0.000 A 
ATOM     27  C   UNL     1      -0.207  10.829  18.588  0.00  0.00    +0.000 A 
ATOM     28  N   UNL     1      -1.310  10.020  18.482  0.00  0.00    +0.000 N 
ATOM     29  N   UNL     1      -2.474  10.670  18.345  0.00  0.00    +0.000 NA
ATOM     30  C   UNL     1      -2.109  11.953  18.363  0.00  0.00    +0.000 A 
ATOM     31  C   UNL     1      -0.712  12.125  18.512  0.00  0.00    +0.000 A 
ATOM     32  H   UNL     1      -1.336   9.008  18.487  0.00  0.00    +0.000 HD
ENDBRANCH  18  26
ENDBRANCH   1  19
TORSDOF 3
ENDMDL
MODEL 3
REMARK VINA RESULT:      -9.5      1.772      2.326
REMARK  Name = 
REMARK  4 active torsions:
REMARK  status: ('A' for Active; 'I' for Inactive)
REMARK    1  A    between atoms: C_1  and  C_2
REMARK    2  A    between atoms: C_5  and  N_6
REMARK    3  A    between atoms: C_7  and  C_9
REMARK    4  A    between atoms: C_16  and  C_17
REMARK                            x       y       z     vdW  Elec       q    Type
REMARK                         _______ _______ _______ _____ _____    ______ ____
ROOT
ATOM      1  C   UNL     1       1.202   8.393  20.888  0.00  0.00    +0.000 A 
ATOM      2  C   UNL     1       0.471   8.314  22.085  0.00  0.00    +0.000 A 
ATOM      3  C   UNL     1      -0.275   9.418  22.516  0.00  0.00    +0.000 A 
ATOM      4  C   UNL     1      -0.318  10.572  21.726  0.00  0.00    +0.000 A 
ATOM      5  C   UNL     1       0.474  10.668  20.578  0.00  0.00    +0.000 A 
ATOM      6  C   UNL     1       1.267   9.595  20.184  0.00  0.00    +0.000 A 
ATOM      7  C   UNL     1       0.365  11.886  19.714  0.00  0.00    +0.000 C 
ATOM      8  C   UNL     1      -1.112  12.271  19.629  0.00  0.00    +0.000 C 
ATOM      9  O   UNL     1      -1.723  12.370  20.945  0.00  0.00    +0.000 OA
ATOM     10  C   UNL     1      -1.305  11.645  22.023  0.00  0.00    +0.000 C 
ATOM     11  O   UNL     1      -1.767  11.792  23.143  0.00  0.00    +0.000 OA
ENDROOT
BRANCH   8  12
ATOM     12  C   UNL     1      -1.867  11.382  18.647  0.00  0.00    +0.000 A 
ATOM     13  C   UNL     1      -1.224  10.484  17.780  0.00  0.00    +0.000 A 
ATOM     14  C   UNL     1      -1.960   9.756  16.839  0.00  0.00    +0.000 A 
ATOM     15  C   UNL     1      -3.342   9.910  16.750  0.00  0.00    +0.000 A 
ATOM     16  C   UNL     1      -3.992  10.802  17.596  0.00  0.00    +0.000 A 
ATOM     17  C   UNL     1      -3.260  11.532  18.534  0.00  0.00    +0.000 A 
ENDBRANCH   8  12
BRANCH   1  19
ATOM     18  N   UNL     1       2.414   7.507  19.016  0.00  0.00    +0.000 N 
ATOM     19  C   UNL     1       1.787   7.204  20.210  0.00  0.00    +0.000 C 
ATOM     20  O   UNL     1       1.762   6.127  20.789  0.00  0.00    +0.000 OA
ATOM     21  H   UNL     1       2.407   8.478  18.746  0.00  0.00    +0.000 HD
BRANCH  18  26
ATOM     22  C   UNL     1       5.442   3.944  15.615  0.00  0.00    +0.000 C 
ATOM     23  C   UNL     1       4.672   4.844  16.536  0.00  0.00    +0.000 A 
ATOM     24  C   UNL     1       5.134   6.143  16.810  0.00  0.00    +0.000 A 
ATOM     25  C   UNL     1       4.422   7.023  17.633  0.00  0.00    +0.000 A 
ATOM     26  C   UNL     1       3.208   6.655  18.224  0.00  0.00    +0.000 A 
ATOM     27  C   UNL     1       2.772   5.344  17.966  0.00  0.00    +0.000 A 
ATOM     28  N   UNL     1       1.671   4.644  18.392  0.00  0.00    +0.000 N 
ATOM     29  N   UNL     1       1.592   3.387  17.933  0.00  0.00    +0.000 NA
ATOM     30  C   UNL     1       2.688   3.269  17.181  0.00  0.00    +0.000 A 
ATOM     31  C   UNL     1       3.468   4.450  17.156  0.00  0.00    +0.000 A 
ATOM     32  H   UNL     1       0.935   4.966  19.007  0.00  0.00    +0.000 HD
ENDBRANCH  18  26
ENDBRANCH   1  19
TORSDOF 3
ENDMDL
MODEL 4
REMARK VINA RESULT:      -9.4      3.020      9.095
REMARK  Name = 
REMARK  4 active torsions:
REMARK  status: ('A' for Active; 'I' for Inactive)
REMARK    1  A    between atoms: C_1  and  C_2
REMARK    2  A    between atoms: C_5  and  N_6
REMARK    3  A    between atoms: C_7  and  C_9
REMARK    4  A    between atoms: C_16  and  C_17
REMARK                            x       y       z     vdW  Elec       q    Type
REMARK                         _______ _______ _______ _____ _____    ______ ____
ROOT
ATOM      1  C   UNL     1       2.254   7.048  18.902  0.00  0.00    +0.000 A 
ATOM      2  C   UNL     1       2.151   6.356  20.120  0.00  0.00    +0.000 A 
ATOM      3  C   UNL     1       2.780   5.114  20.268  0.00  0.00    +0.000 A 
ATOM      4  C   UNL     1       3.542   4.598  19.214  0.00  0.00    +0.000 A 
ATOM      5  C   UNL     1       3.573   5.256  17.981  0.00  0.00    +0.000 A 
ATOM      6  C   UNL     1       2.894   6.459  17.812  0.00  0.00    +0.000 A 
ATOM      7  C   UNL     1       4.444   4.719  16.888  0.00  0.00    +0.000 C 
ATOM      8  C   UNL     1       5.760   4.262  17.517  0.00  0.00    +0.000 C 
ATOM      9  O   UNL     1       5.540   3.373  18.647  0.00  0.00    +0.000 OA
ATOM     10  C   UNL     1       4.429   3.425  19.437  0.00  0.00    +0.000 C 
ATOM     11  O   UNL     1       4.211   2.625  20.332  0.00  0.00    +0.000 OA
ENDROOT
BRANCH   8  12
ATOM     12  C   UNL     1       6.681   5.440  17.810  0.00  0.00    +0.000 A 
ATOM     13  C   UNL     1       7.517   5.495  18.936  0.00  0.00    +0.000 A 
ATOM     14  C   UNL     1       8.278   6.640  19.201  0.00  0.00    +0.000 A 
ATOM     15  C   UNL     1       8.216   7.740  18.350  0.00  0.00    +0.000 A 
ATOM     16  C   UNL     1       7.386   7.706  17.235  0.00  0.00    +0.000 A 
ATOM     17  C   UNL     1       6.624   6.567  16.969  0.00  0.00    +0.000 A 
ENDBRANCH   8  12
BRANCH   1  19
ATOM     18  N   UNL     1       0.915   8.894  19.650  0.00  0.00    +0.000 N 
ATOM     19  C   UNL     1       1.868   8.477  18.740  0.00  0.00    +0.000 C 
ATOM     20  O   UNL     1       2.475   9.161  17.928  0.00  0.00    +0.000 OA
ATOM     21  H   UNL     1       0.597   8.200  20.308  0.00  0.00    +0.000 HD
BRANCH  18  26
ATOM     22  C   UNL     1      -1.195  14.200  20.558  0.00  0.00    +0.000 C 
ATOM     23  C   UNL     1      -0.620  12.841  20.287  0.00  0.00    +0.000 A 
ATOM     24  C   UNL     1       0.336  12.289  21.158  0.00  0.00    +0.000 A 
ATOM     25  C   UNL     1       0.866  11.007  20.958  0.00  0.00    +0.000 A 
ATOM     26  C   UNL     1       0.466  10.209  19.881  0.00  0.00    +0.000 A 
ATOM     27  C   UNL     1      -0.468  10.784  19.002  0.00  0.00    +0.000 A 
ATOM     28  N   UNL     1      -1.050  10.319  17.850  0.00  0.00    +0.000 N 
ATOM     29  N   UNL     1      -1.906  11.171  17.268  0.00  0.00    +0.000 NA
ATOM     30  C   UNL     1      -1.876  12.231  18.078  0.00  0.00    +0.000 A 
ATOM     31  C   UNL     1      -1.002  12.059  19.178  0.00  0.00    +0.000 A 
ATOM     32  H   UNL     1      -0.898   9.427  17.398  0.00  0.00    +0.000 HD
ENDBRANCH  18  26
ENDBRANCH   1  19
TORSDOF 3
ENDMDL
MODEL 5
REMARK VINA RESULT:      -9.4      3.276      9.145
REMARK  Name = 
REMARK  4 active torsions:
REMARK  status: ('A' for Active; 'I' for Inactive)
REMARK    1  A    between atoms: C_1  and  C_2
REMARK    2  A    between atoms: C_5  and  N_6
REMARK    3  A    between atoms: C_7  and  C_9
REMARK    4  A    between atoms: C_16  and  C_17
REMARK                            x       y       z     vdW  Elec       q    Type
REMARK                         _______ _______ _______ _____ _____    ______ ____
ROOT
ATOM      1  C   UNL     1       2.401   7.175  18.538  0.00  0.00    +0.000 A 
ATOM      2  C   UNL     1       2.305   6.399  19.704  0.00  0.00    +0.000 A 
ATOM      3  C   UNL     1       3.094   5.251  19.841  0.00  0.00    +0.000 A 
ATOM      4  C   UNL     1       4.003   4.916  18.832  0.00  0.00    +0.000 A 
ATOM      5  C   UNL     1       4.036   5.650  17.642  0.00  0.00    +0.000 A 
ATOM      6  C   UNL     1       3.204   6.753  17.478  0.00  0.00    +0.000 A 
ATOM      7  C   UNL     1       5.059   5.312  16.603  0.00  0.00    +0.000 C 
ATOM      8  C   UNL     1       6.374   5.005  17.319  0.00  0.00    +0.000 C 
ATOM      9  O   UNL     1       6.197   4.023  18.378  0.00  0.00    +0.000 OA
ATOM     10  C   UNL     1       5.031   3.868  19.070  0.00  0.00    +0.000 C 
ATOM     11  O   UNL     1       4.863   2.989  19.899  0.00  0.00    +0.000 OA
ENDROOT
BRANCH   8  12
ATOM     12  C   UNL     1       7.087   6.280  17.753  0.00  0.00    +0.000 A 
ATOM     13  C   UNL     1       7.043   7.471  17.009  0.00  0.00    +0.000 A 
ATOM     14  C   UNL     1       7.787   8.586  17.410  0.00  0.00    +0.000 A 
ATOM     15  C   UNL     1       8.581   8.531  18.553  0.00  0.00    +0.000 A 
ATOM     16  C   UNL     1       8.643   7.357  19.295  0.00  0.00    +0.000 A 
ATOM     17  C   UNL     1       7.904   6.242  18.897  0.00  0.00    +0.000 A 
ENDBRANCH   8  12
BRANCH   1  19
ATOM     18  N   UNL     1       1.062   8.914  19.508  0.00  0.00    +0.000 N 
ATOM     19  C   UNL     1       1.825   8.543  18.418  0.00  0.00    +0.000 C 
ATOM     20  O   UNL     1       2.148   9.235  17.462  0.00  0.00    +0.000 OA
ATOM     21  H   UNL     1       0.984   8.233  20.247  0.00  0.00    +0.000 HD
BRANCH  18  26
ATOM     22  C   UNL     1      -1.393  14.030  20.620  0.00  0.00    +0.000 C 
ATOM     23  C   UNL     1      -0.730  12.723  20.297  0.00  0.00    +0.000 A 
ATOM     24  C   UNL     1       0.270  12.207  21.139  0.00  0.00    +0.000 A 
ATOM     25  C   UNL     1       0.883  10.973  20.890  0.00  0.00    +0.000 A 
ATOM     26  C   UNL     1       0.527  10.187  19.788  0.00  0.00    +0.000 A 
ATOM     27  C   UNL     1      -0.453  10.727  18.938  0.00  0.00    +0.000 A 
ATOM     28  N   UNL     1      -1.013  10.264  17.775  0.00  0.00    +0.000 N 
ATOM     29  N   UNL     1      -1.932  11.075  17.231  0.00  0.00    +0.000 NA
ATOM     30  C   UNL     1      -1.966  12.106  18.077  0.00  0.00    +0.000 A 
ATOM     31  C   UNL     1      -1.070  11.955  19.163  0.00  0.00    +0.000 A 
ATOM     32  H   UNL     1      -0.806   9.400  17.291  0.00  0.00    +0.000 HD
ENDBRANCH  18  26
ENDBRANCH   1  19
TORSDOF 3
ENDMDL
MODEL 6
REMARK VINA RESULT:      -9.3      3.337      9.073
REMARK  Name = 
REMARK  4 active torsions:
REMARK  status: ('A' for Active; 'I' for Inactive)
REMARK    1  A    between atoms: C_1  and  C_2
REMARK    2  A    between atoms: C_5  and  N_6
REMARK    3  A    between atoms: C_7  and  C_9
REMARK    4  A    between atoms: C_16  and  C_17
REMARK                            x       y       z     vdW  Elec       q    Type
REMARK                         _______ _______ _______ _____ _____    ______ ____
ROOT
ATOM      1  C   UNL     1       2.202   7.234  18.816  0.00  0.00    +0.000 A 
ATOM      2  C   UNL     1       2.058   6.580  20.051  0.00  0.00    +0.000 A 
ATOM      3  C   UNL     1       2.637   5.319  20.239  0.00  0.00    +0.000 A 
ATOM      4  C   UNL     1       3.390   4.745  19.208  0.00  0.00    +0.000 A 
ATOM      5  C   UNL     1       3.461   5.368  17.959  0.00  0.00    +0.000 A 
ATOM      6  C   UNL     1       2.830   6.591  17.750  0.00  0.00    +0.000 A 
ATOM      7  C   UNL     1       4.323   4.770  16.891  0.00  0.00    +0.000 C 
ATOM      8  C   UNL     1       5.613   4.279  17.548  0.00  0.00    +0.000 C 
ATOM      9  O   UNL     1       5.346   3.430  18.699  0.00  0.00    +0.000 OA
ATOM     10  C   UNL     1       4.228   3.546  19.473  0.00  0.00    +0.000 C 
ATOM     11  O   UNL     1       3.970   2.779  20.387  0.00  0.00    +0.000 OA
ENDROOT
BRANCH   8  12
ATOM     12  C   UNL     1       6.575   5.429  17.821  0.00  0.00    +0.000 A 
ATOM     13  C   UNL     1       7.440   5.455  18.927  0.00  0.00    +0.000 A 
ATOM     14  C   UNL     1       8.241   6.576  19.175  0.00  0.00    +0.000 A 
ATOM     15  C   UNL     1       8.191   7.681  18.329  0.00  0.00    +0.000 A 
ATOM     16  C   UNL     1       7.332   7.675  17.235  0.00  0.00    +0.000 A 
ATOM     17  C   UNL     1       6.531   6.559  16.985  0.00  0.00    +0.000 A 
ENDBRANCH   8  12
BRANCH   1  19
ATOM     18  N   UNL     1       1.151   9.223  19.653  0.00  0.00    +0.000 N 
ATOM     19  C   UNL     1       1.873   8.672  18.612  0.00  0.00    +0.000 C 
ATOM     20  O   UNL     1       2.340   9.248  17.639  0.00  0.00    +0.000 OA
ATOM     21  H   UNL     1       0.934   8.603  20.418  0.00  0.00    +0.000 HD
BRANCH  18  26
ATOM     22  C   UNL     1      -0.043  14.775  20.735  0.00  0.00    +0.000 C 
ATOM     23  C   UNL     1       0.220  13.327  20.444  0.00  0.00    +0.000 A 
ATOM     24  C   UNL     1       0.842  12.947  19.243  0.00  0.00    +0.000 A 
ATOM     25  C   UNL     1       1.138  11.608  18.955  0.00  0.00    +0.000 A 
ATOM     26  C   UNL     1       0.833  10.580  19.854  0.00  0.00    +0.000 A 
ATOM     27  C   UNL     1       0.185  10.971  21.038  0.00  0.00    +0.000 A 
ATOM     28  N   UNL     1      -0.283  10.250  22.108  0.00  0.00    +0.000 N 
ATOM     29  N   UNL     1      -0.863  10.982  23.069  0.00  0.00    +0.000 NA
ATOM     30  C   UNL     1      -0.767  12.228  22.601  0.00  0.00    +0.000 A 
ATOM     31  C   UNL     1      -0.125  12.295  21.341  0.00  0.00    +0.000 A 
ATOM     32  H   UNL     1      -0.245   9.248  22.241  0.00  0.00    +0.000 HD
ENDBRANCH  18  26
ENDBRANCH   1  19
TORSDOF 3
ENDMDL
MODEL 7
REMARK VINA RESULT:      -9.3      1.220      1.620
REMARK  Name = 
REMARK  4 active torsions:
REMARK  status: ('A' for Active; 'I' for Inactive)
REMARK    1  A    between atoms: C_1  and  C_2
REMARK    2  A    between atoms: C_5  and  N_6
REMARK    3  A    between atoms: C_7  and  C_9
REMARK    4  A    between atoms: C_16  and  C_17
REMARK                            x       y       z     vdW  Elec       q    Type
REMARK                         _______ _______ _______ _____ _____    ______ ____
ROOT
ATOM      1  C   UNL     1       1.036   9.188  20.521  0.00  0.00    +0.000 A 
ATOM      2  C   UNL     1       0.384   8.805  21.705  0.00  0.00    +0.000 A 
ATOM      3  C   UNL     1      -0.462   9.711  22.355  0.00  0.00    +0.000 A 
ATOM      4  C   UNL     1      -0.683  10.973  21.794  0.00  0.00    +0.000 A 
ATOM      5  C   UNL     1       0.030  11.372  20.659  0.00  0.00    +0.000 A 
ATOM      6  C   UNL     1       0.922  10.495  20.049  0.00  0.00    +0.000 A 
ATOM      7  C   UNL     1      -0.267  12.702  20.039  0.00  0.00    +0.000 C 
ATOM      8  C   UNL     1      -1.781  12.908  20.071  0.00  0.00    +0.000 C 
ATOM      9  O   UNL     1      -2.329  12.691  21.401  0.00  0.00    +0.000 OA
ATOM     10  C   UNL     1      -1.771  11.843  22.313  0.00  0.00    +0.000 C 
ATOM     11  O   UNL     1      -2.187  11.728  23.455  0.00  0.00    +0.000 OA
ENDROOT
BRANCH   8  12
ATOM     12  C   UNL     1      -2.478  12.122  18.966  0.00  0.00    +0.000 A 
ATOM     13  C   UNL     1      -1.824  11.709  17.794  0.00  0.00    +0.000 A 
ATOM     14  C   UNL     1      -2.534  11.066  16.774  0.00  0.00    +0.000 A 
ATOM     15  C   UNL     1      -3.899  10.825  16.908  0.00  0.00    +0.000 A 
ATOM     16  C   UNL     1      -4.563  11.235  18.059  0.00  0.00    +0.000 A 
ATOM     17  C   UNL     1      -3.859  11.880  19.077  0.00  0.00    +0.000 A 
ENDBRANCH   8  12
BRANCH   1  19
ATOM     18  N   UNL     1       1.994   7.009  20.218  0.00  0.00    +0.000 N 
ATOM     19  C   UNL     1       1.720   8.222  19.617  0.00  0.00    +0.000 C 
ATOM     20  O   UNL     1       1.876   8.527  18.443  0.00  0.00    +0.000 OA
ATOM     21  H   UNL     1       1.705   6.914  21.179  0.00  0.00    +0.000 HD
BRANCH  18  26
ATOM     22  C   UNL     1       3.712   2.053  17.784  0.00  0.00    +0.000 C 
ATOM     23  C   UNL     1       3.308   3.341  18.440  0.00  0.00    +0.000 A 
ATOM     24  C   UNL     1       3.334   4.545  17.714  0.00  0.00    +0.000 A 
ATOM     25  C   UNL     1       2.927   5.759  18.283  0.00  0.00    +0.000 A 
ATOM     26  C   UNL     1       2.468   5.834  19.602  0.00  0.00    +0.000 A 
ATOM     27  C   UNL     1       2.476   4.629  20.325  0.00  0.00    +0.000 A 
ATOM     28  N   UNL     1       2.134   4.335  21.621  0.00  0.00    +0.000 N 
ATOM     29  N   UNL     1       2.280   3.047  21.964  0.00  0.00    +0.000 NA
ATOM     30  C   UNL     1       2.738   2.486  20.843  0.00  0.00    +0.000 A 
ATOM     31  C   UNL     1       2.883   3.412  19.783  0.00  0.00    +0.000 A 
ATOM     32  H   UNL     1       1.798   4.974  22.331  0.00  0.00    +0.000 HD
ENDBRANCH  18  26
ENDBRANCH   1  19
TORSDOF 3
ENDMDL
MODEL 8
REMARK VINA RESULT:      -9.3      2.813      8.912
REMARK  Name = 
REMARK  4 active torsions:
REMARK  status: ('A' for Active; 'I' for Inactive)
REMARK    1  A    between atoms: C_1  and  C_2
REMARK    2  A    between atoms: C_5  and  N_6
REMARK    3  A    between atoms: C_7  and  C_9
REMARK    4  A    between atoms: C_16  and  C_17
REMARK                            x       y       z     vdW  Elec       q    Type
REMARK                         _______ _______ _______ _____ _____    ______ ____
ROOT
ATOM      1  C   UNL     1       2.005   6.529  19.780  0.00  0.00    +0.000 A 
ATOM      2  C   UNL     1       2.130   5.635  20.856  0.00  0.00    +0.000 A 
ATOM      3  C   UNL     1       2.830   4.435  20.683  0.00  0.00    +0.000 A 
ATOM      4  C   UNL     1       3.437   4.162  19.452  0.00  0.00    +0.000 A 
ATOM      5  C   UNL     1       3.242   5.022  18.366  0.00  0.00    +0.000 A 
ATOM      6  C   UNL     1       2.489   6.182  18.519  0.00  0.00    +0.000 A 
ATOM      7  C   UNL     1       3.950   4.744  17.077  0.00  0.00    +0.000 C 
ATOM      8  C   UNL     1       5.369   4.283  17.411  0.00  0.00    +0.000 C 
ATOM      9  O   UNL     1       5.373   3.202  18.383  0.00  0.00    +0.000 OA
ATOM     10  C   UNL     1       4.401   3.037  19.326  0.00  0.00    +0.000 C 
ATOM     11  O   UNL     1       4.366   2.082  20.085  0.00  0.00    +0.000 OA
ENDROOT
BRANCH   8  12
ATOM     12  C   UNL     1       6.270   5.459  17.770  0.00  0.00    +0.000 A 
ATOM     13  C   UNL     1       6.274   6.666  17.053  0.00  0.00    +0.000 A 
ATOM     14  C   UNL     1       7.183   7.681  17.374  0.00  0.00    +0.000 A 
ATOM     15  C   UNL     1       8.096   7.507  18.411  0.00  0.00    +0.000 A 
ATOM     16  C   UNL     1       8.111   6.314  19.126  0.00  0.00    +0.000 A 
ATOM     17  C   UNL     1       7.208   5.300  18.806  0.00  0.00    +0.000 A 
ENDBRANCH   8  12
BRANCH   1  19
ATOM     18  N   UNL     1       0.519   8.070  20.865  0.00  0.00    +0.000 N 
ATOM     19  C   UNL     1       1.533   7.933  19.937  0.00  0.00    +0.000 C 
ATOM     20  O   UNL     1       2.127   8.822  19.342  0.00  0.00    +0.000 OA
ATOM     21  H   UNL     1       0.220   7.223  21.324  0.00  0.00    +0.000 HD
BRANCH  18  26
ATOM     22  C   UNL     1      -1.930  12.950  22.768  0.00  0.00    +0.000 C 
ATOM     23  C   UNL     1      -1.255  11.708  22.264  0.00  0.00    +0.000 A 
ATOM     24  C   UNL     1      -0.775  10.744  23.168  0.00  0.00    +0.000 A 
ATOM     25  C   UNL     1      -0.174   9.556  22.733  0.00  0.00    +0.000 A 
ATOM     26  C   UNL     1      -0.025   9.266  21.372  0.00  0.00    +0.000 A 
ATOM     27  C   UNL     1      -0.481  10.251  20.480  0.00  0.00    +0.000 A 
ATOM     28  N   UNL     1      -0.469  10.323  19.110  0.00  0.00    +0.000 N 
ATOM     29  N   UNL     1      -0.999  11.444  18.600  0.00  0.00    +0.000 NA
ATOM     30  C   UNL     1      -1.367  12.127  19.686  0.00  0.00    +0.000 A 
ATOM     31  C   UNL     1      -1.075  11.442  20.891  0.00  0.00    +0.000 A 
ATOM     32  H   UNL     1      -0.105   9.639  18.459  0.00  0.00    +0.000 HD
ENDBRANCH  18  26
ENDBRANCH   1  19
TORSDOF 3
ENDMDL
MODEL 9
REMARK VINA RESULT:      -9.3      3.365      9.084
REMARK  Name = 
REMARK  4 active torsions:
REMARK  status: ('A' for Active; 'I' for Inactive)
REMARK    1  A    between atoms: C_1  and  C_2
REMARK    2  A    between atoms: C_5  and  N_6
REMARK    3  A    between atoms: C_7  and  C_9
REMARK    4  A    between atoms: C_16  and  C_17
REMARK                            x       y       z     vdW  Elec       q    Type
REMARK                         _______ _______ _______ _____ _____    ______ ____
ROOT
ATOM      1  C   UNL     1       1.819   7.417  18.877  0.00  0.00    +0.000 A 
ATOM      2  C   UNL     1       1.682   7.142  20.247  0.00  0.00    +0.000 A 
ATOM      3  C   UNL     1       1.927   5.848  20.722  0.00  0.00    +0.000 A 
ATOM      4  C   UNL     1       2.349   4.855  19.831  0.00  0.00    +0.000 A 
ATOM      5  C   UNL     1       2.406   5.119  18.459  0.00  0.00    +0.000 A 
ATOM      6  C   UNL     1       2.099   6.389  17.978  0.00  0.00    +0.000 A 
ATOM      7  C   UNL     1       2.920   4.063  17.531  0.00  0.00    +0.000 C 
ATOM      8  C   UNL     1       4.113   3.385  18.205  0.00  0.00    +0.000 C 
ATOM      9  O   UNL     1       3.796   2.945  19.554  0.00  0.00    +0.000 OA
ATOM     10  C   UNL     1       2.869   3.560  20.345  0.00  0.00    +0.000 C 
ATOM     11  O   UNL     1       2.548   3.137  21.444  0.00  0.00    +0.000 OA
ENDROOT
BRANCH   8  12
ATOM     12  C   UNL     1       5.374   4.236  18.098  0.00  0.00    +0.000 A 
ATOM     13  C   UNL     1       5.956   4.881  19.201  0.00  0.00    +0.000 A 
ATOM     14  C   UNL     1       7.064   5.718  19.030  0.00  0.00    +0.000 A 
ATOM     15  C   UNL     1       7.605   5.923  17.763  0.00  0.00    +0.000 A 
ATOM     16  C   UNL     1       7.035   5.299  16.659  0.00  0.00    +0.000 A 
ATOM     17  C   UNL     1       5.928   4.465  16.826  0.00  0.00    +0.000 A 
ENDBRANCH   8  12
BRANCH   1  19
ATOM     18  N   UNL     1       1.181   9.720  19.100  0.00  0.00    +0.000 N 
ATOM     19  C   UNL     1       1.856   8.799  18.323  0.00  0.00    +0.000 C 
ATOM     20  O   UNL     1       2.541   9.016  17.332  0.00  0.00    +0.000 OA
ATOM     21  H   UNL     1       0.749   9.362  19.938  0.00  0.00    +0.000 HD
BRANCH  18  26
ATOM     22  C   UNL     1       1.059  15.492  18.778  0.00  0.00    +0.000 C 
ATOM     23  C   UNL     1       1.060  13.992  18.825  0.00  0.00    +0.000 A 
ATOM     24  C   UNL     1       2.154  13.267  18.322  0.00  0.00    +0.000 A 
ATOM     25  C   UNL     1       2.206  11.869  18.384  0.00  0.00    +0.000 A 
ATOM     26  C   UNL     1       1.170  11.122  18.956  0.00  0.00    +0.000 A 
ATOM     27  C   UNL     1       0.069  11.857  19.428  0.00  0.00    +0.000 A 
ATOM     28  N   UNL     1      -1.113  11.468  20.006  0.00  0.00    +0.000 N 
ATOM     29  N   UNL     1      -1.940  12.473  20.326  0.00  0.00    +0.000 NA
ATOM     30  C   UNL     1      -1.266  13.557  19.937  0.00  0.00    +0.000 A 
ATOM     31  C   UNL     1      -0.006  13.246  19.369  0.00  0.00    +0.000 A 
ATOM     32  H   UNL     1      -1.422  10.525  20.204  0.00  0.00    +0.000 HD
ENDBRANCH  18  26
ENDBRANCH   1  19
TORSDOF 3
ENDMDL
