MODEL 1
REMARK VINA RESULT:      -8.0      0.000      0.000
REMARK  Name = 
REMARK  6 active torsions:
REMARK  status: ('A' for Active; 'I' for Inactive)
REMARK    1  A    between atoms: C_1  and  C_2
REMARK    2  A    between atoms: C_3  and  C_4
REMARK    3  A    between atoms: C_8  and  C_9
REMARK    4  A    between atoms: C_9  and  C_10
REMARK    5  A    between atoms: C_10  and  C_11
REMARK    6  A    between atoms: N_15  and  C_16
REMARK                            x       y       z     vdW  Elec       q    Type
REMARK                         _______ _______ _______ _____ _____    ______ ____
ROOT
ATOM      1  C   UNL     1       2.540   6.552  19.000  0.00  0.00    +0.000 A 
ATOM      2  C   UNL     1       2.647   7.151  17.745  0.00  0.00    +0.000 A 
ATOM      3  C   UNL     1       2.293   8.488  17.593  0.00  0.00    +0.000 A 
ATOM      4  C   UNL     1       1.789   9.209  18.680  0.00  0.00    +0.000 A 
ATOM      5  C   UNL     1       1.622   8.625  19.954  0.00  0.00    +0.000 A 
ATOM      6  C   UNL     1       2.071   7.298  20.091  0.00  0.00    +0.000 A 
ENDROOT
BRANCH   1   9
ATOM      7  C   UNL     1       5.259   5.356  19.232  0.00  0.00    +0.000 C 
ATOM      8  C   UNL     1       3.975   4.554  19.303  0.00  0.00    +0.000 C 
ATOM      9  C   UNL     1       2.740   5.099  19.177  0.00  0.00    +0.000 C 
ATOM     10  C   UNL     1       1.404   4.386  19.231  0.00  0.00    +0.000 C 
ATOM     11  C   UNL     1       1.423   3.129  20.066  0.00  0.00    +0.000 C 
ATOM     12  O   UNL     1       0.999   3.106  21.224  0.00  0.00    +0.000 OA
ATOM     13  C   UNL     1       1.974   1.886  19.416  0.00  0.00    +0.000 C 
ATOM     14  C   UNL     1       3.318   2.123  18.750  0.00  0.00    +0.000 C 
ATOM     15  C   UNL     1       4.239   3.071  19.528  0.00  0.00    +0.000 C 
ENDBRANCH   1   9
BRANCH   5  16
ATOM     16  C   UNL     1       0.838   9.374  21.124  0.00  0.00    +0.000 C 
ATOM     17  C   UNL     1       1.312   9.088  22.573  0.00  0.00    +0.000 C 
ATOM     18  O   UNL     1      -0.068   9.053  23.035  0.00  0.00    +0.000 OA
ATOM     19  C   UNL     1      -0.489   8.777  21.669  0.00  0.00    +0.000 C 
BRANCH  16  20
ATOM     20  C   UNL     1       0.754  10.896  20.853  0.00  0.00    +0.000 C 
BRANCH  20  21
ATOM     21  C   UNL     1      -0.617  11.421  20.557  0.00  0.00    +0.000 A 
ATOM     22  N   UNL     1      -1.211  11.367  19.381  0.00  0.00    +0.000 NA
ATOM     23  N   UNL     1      -2.425  12.004  19.473  0.00  0.00    +0.000 NA
ATOM     24  C   UNL     1      -2.544  12.450  20.699  0.00  0.00    +0.000 A 
ATOM     25  N   UNL     1      -1.434  12.110  21.415  0.00  0.00    +0.000 N 
ATOM     26  C   UNL     1      -1.205  12.462  22.790  0.00  0.00    +0.000 C 
ENDBRANCH  20  21
ENDBRANCH  16  20
ENDBRANCH   5  16
TORSDOF 4
ENDMDL
MODEL 2
REMARK VINA RESULT:      -7.9      0.970      1.303
REMARK  Name = 
REMARK  6 active torsions:
REMARK  status: ('A' for Active; 'I' for Inactive)
REMARK    1  A    between atoms: C_1  and  C_2
REMARK    2  A    between atoms: C_3  and  C_4
REMARK    3  A    between atoms: C_8  and  C_9
REMARK    4  A    between atoms: C_9  and  C_10
REMARK    5  A    between atoms: C_10  and  C_11
REMARK    6  A    between atoms: N_15  and  C_16
REMARK                            x       y       z     vdW  Elec       q    Type
REMARK                         _______ _______ _______ _____ _____    ______ ____
ROOT
ATOM      1  C   UNL     1       2.575   6.545  19.062  0.00  0.00    +0.000 A 
ATOM      2  C   UNL     1       2.870   7.200  17.867  0.00  0.00    +0.000 A 
ATOM      3  C   UNL     1       2.503   8.533  17.707  0.00  0.00    +0.000 A 
ATOM      4  C   UNL     1       1.801   9.193  18.720  0.00  0.00    +0.000 A 
ATOM      5  C   UNL     1       1.444   8.552  19.925  0.00  0.00    +0.000 A 
ATOM      6  C   UNL     1       1.906   7.232  20.086  0.00  0.00    +0.000 A 
ENDROOT
BRANCH   1   9
ATOM      7  C   UNL     1       5.307   5.373  19.262  0.00  0.00    +0.000 C 
ATOM      8  C   UNL     1       4.031   4.558  19.327  0.00  0.00    +0.000 C 
ATOM      9  C   UNL     1       2.791   5.092  19.215  0.00  0.00    +0.000 C 
ATOM     10  C   UNL     1       1.461   4.365  19.265  0.00  0.00    +0.000 C 
ATOM     11  C   UNL     1       1.497   3.096  20.080  0.00  0.00    +0.000 C 
ATOM     12  O   UNL     1       1.079   3.051  21.240  0.00  0.00    +0.000 OA
ATOM     13  C   UNL     1       2.057   1.868  19.409  0.00  0.00    +0.000 C 
ATOM     14  C   UNL     1       3.395   2.128  18.741  0.00  0.00    +0.000 C 
ATOM     15  C   UNL     1       4.311   3.074  19.528  0.00  0.00    +0.000 C 
ENDBRANCH   1   9
BRANCH   5  16
ATOM     16  C   UNL     1       0.451   9.229  20.975  0.00  0.00    +0.000 C 
ATOM     17  C   UNL     1       1.043   9.583  22.364  0.00  0.00    +0.000 C 
ATOM     18  O   UNL     1      -0.181   9.138  23.016  0.00  0.00    +0.000 OA
ATOM     19  C   UNL     1      -0.485   8.340  21.837  0.00  0.00    +0.000 C 
BRANCH  16  20
ATOM     20  C   UNL     1      -0.273  10.447  20.350  0.00  0.00    +0.000 C 
BRANCH  20  21
ATOM     21  C   UNL     1       0.062  11.775  20.956  0.00  0.00    +0.000 A 
ATOM     22  N   UNL     1       1.230  12.380  20.857  0.00  0.00    +0.000 NA
ATOM     23  N   UNL     1       1.186  13.540  21.592  0.00  0.00    +0.000 NA
ATOM     24  C   UNL     1      -0.002  13.615  22.140  0.00  0.00    +0.000 A 
ATOM     25  N   UNL     1      -0.740  12.530  21.770  0.00  0.00    +0.000 N 
ATOM     26  C   UNL     1      -2.083  12.264  22.210  0.00  0.00    +0.000 C 
ENDBRANCH  20  21
ENDBRANCH  16  20
ENDBRANCH   5  16
TORSDOF 4
ENDMDL
MODEL 3
REMARK VINA RESULT:      -7.8      1.251      1.750
REMARK  Name = 
REMARK  6 active torsions:
REMARK  status: ('A' for Active; 'I' for Inactive)
REMARK    1  A    between atoms: C_1  and  C_2
REMARK    2  A    between atoms: C_3  and  C_4
REMARK    3  A    between atoms: C_8  and  C_9
REMARK    4  A    between atoms: C_9  and  C_10
REMARK    5  A    between atoms: C_10  and  C_11
REMARK    6  A    between atoms: N_15  and  C_16
REMARK                            x       y       z     vdW  Elec       q    Type
REMARK                         _______ _______ _______ _____ _____    ______ ____
ROOT
ATOM      1  C   UNL     1       2.557   6.551  19.018  0.00  0.00    +0.000 A 
ATOM      2  C   UNL     1       2.788   7.178  17.795  0.00  0.00    +0.000 A 
ATOM      3  C   UNL     1       2.413   8.508  17.625  0.00  0.00    +0.000 A 
ATOM      4  C   UNL     1       1.767   9.191  18.660  0.00  0.00    +0.000 A 
ATOM      5  C   UNL     1       1.474   8.577  19.896  0.00  0.00    +0.000 A 
ATOM      6  C   UNL     1       1.944   7.261  20.061  0.00  0.00    +0.000 A 
ENDROOT
BRANCH   1   9
ATOM      7  C   UNL     1       5.295   5.396  19.233  0.00  0.00    +0.000 C 
ATOM      8  C   UNL     1       4.024   4.575  19.311  0.00  0.00    +0.000 C 
ATOM      9  C   UNL     1       2.780   5.101  19.192  0.00  0.00    +0.000 C 
ATOM     10  C   UNL     1       1.454   4.368  19.253  0.00  0.00    +0.000 C 
ATOM     11  C   UNL     1       1.497   3.110  20.086  0.00  0.00    +0.000 C 
ATOM     12  O   UNL     1       1.081   3.080  21.247  0.00  0.00    +0.000 OA
ATOM     13  C   UNL     1       2.063   1.876  19.432  0.00  0.00    +0.000 C 
ATOM     14  C   UNL     1       3.400   2.134  18.759  0.00  0.00    +0.000 C 
ATOM     15  C   UNL     1       4.311   3.095  19.532  0.00  0.00    +0.000 C 
ENDBRANCH   1   9
BRANCH   5  16
ATOM     16  C   UNL     1       0.538   9.279  20.981  0.00  0.00    +0.000 C 
ATOM     17  C   UNL     1       1.180   9.583  22.361  0.00  0.00    +0.000 C 
ATOM     18  O   UNL     1      -0.046   9.180  23.036  0.00  0.00    +0.000 OA
ATOM     19  C   UNL     1      -0.414   8.417  21.853  0.00  0.00    +0.000 C 
BRANCH  16  20
ATOM     20  C   UNL     1      -0.146  10.539  20.395  0.00  0.00    +0.000 C 
BRANCH  20  21
ATOM     21  C   UNL     1       0.324  11.845  20.954  0.00  0.00    +0.000 A 
ATOM     22  N   UNL     1      -0.128  12.402  22.061  0.00  0.00    +0.000 NA
ATOM     23  N   UNL     1       0.487  13.621  22.221  0.00  0.00    +0.000 NA
ATOM     24  C   UNL     1       1.291  13.794  21.201  0.00  0.00    +0.000 A 
ATOM     25  N   UNL     1       1.221  12.708  20.380  0.00  0.00    +0.000 N 
ATOM     26  C   UNL     1       1.945  12.564  19.146  0.00  0.00    +0.000 C 
ENDBRANCH  20  21
ENDBRANCH  16  20
ENDBRANCH   5  16
TORSDOF 4
ENDMDL
MODEL 4
REMARK VINA RESULT:      -7.7      0.550      1.176
REMARK  Name = 
REMARK  6 active torsions:
REMARK  status: ('A' for Active; 'I' for Inactive)
REMARK    1  A    between atoms: C_1  and  C_2
REMARK    2  A    between atoms: C_3  and  C_4
REMARK    3  A    between atoms: C_8  and  C_9
REMARK    4  A    between atoms: C_9  and  C_10
REMARK    5  A    between atoms: C_10  and  C_11
REMARK    6  A    between atoms: N_15  and  C_16
REMARK                            x       y       z     vdW  Elec       q    Type
REMARK                         _______ _______ _______ _____ _____    ______ ____
ROOT
ATOM      1  C   UNL     1       2.572   6.565  18.988  0.00  0.00    +0.000 A 
ATOM      2  C   UNL     1       2.707   7.156  17.732  0.00  0.00    +0.000 A 
ATOM      3  C   UNL     1       2.361   8.493  17.564  0.00  0.00    +0.000 A 
ATOM      4  C   UNL     1       1.837   9.222  18.637  0.00  0.00    +0.000 A 
ATOM      5  C   UNL     1       1.644   8.647  19.911  0.00  0.00    +0.000 A 
ATOM      6  C   UNL     1       2.084   7.319  20.065  0.00  0.00    +0.000 A 
ENDROOT
BRANCH   1   9
ATOM      7  C   UNL     1       5.285   5.354  19.228  0.00  0.00    +0.000 C 
ATOM      8  C   UNL     1       3.996   4.561  19.308  0.00  0.00    +0.000 C 
ATOM      9  C   UNL     1       2.765   5.112  19.178  0.00  0.00    +0.000 C 
ATOM     10  C   UNL     1       1.424   4.408  19.241  0.00  0.00    +0.000 C 
ATOM     11  C   UNL     1       1.437   3.159  20.087  0.00  0.00    +0.000 C 
ATOM     12  O   UNL     1       1.014   3.149  21.246  0.00  0.00    +0.000 OA
ATOM     13  C   UNL     1       1.979   1.906  19.448  0.00  0.00    +0.000 C 
ATOM     14  C   UNL     1       3.324   2.129  18.779  0.00  0.00    +0.000 C 
ATOM     15  C   UNL     1       4.251   3.079  19.546  0.00  0.00    +0.000 C 
ENDBRANCH   1   9
BRANCH   5  16
ATOM     16  C   UNL     1       0.838   9.405  21.061  0.00  0.00    +0.000 C 
ATOM     17  C   UNL     1       1.256   9.097  22.522  0.00  0.00    +0.000 C 
ATOM     18  O   UNL     1      -0.140   9.092  22.937  0.00  0.00    +0.000 OA
ATOM     19  C   UNL     1      -0.520   8.838  21.555  0.00  0.00    +0.000 C 
BRANCH  16  20
ATOM     20  C   UNL     1       0.801  10.932  20.800  0.00  0.00    +0.000 C 
BRANCH  20  21
ATOM     21  C   UNL     1      -0.566  11.535  20.709  0.00  0.00    +0.000 A 
ATOM     22  N   UNL     1      -1.220  12.086  21.713  0.00  0.00    +0.000 NA
ATOM     23  N   UNL     1      -2.463  12.468  21.269  0.00  0.00    +0.000 NA
ATOM     24  C   UNL     1      -2.552  12.130  20.007  0.00  0.00    +0.000 A 
ATOM     25  N   UNL     1      -1.388  11.541  19.612  0.00  0.00    +0.000 N 
ATOM     26  C   UNL     1      -1.140  11.014  18.297  0.00  0.00    +0.000 C 
ENDBRANCH  20  21
ENDBRANCH  16  20
ENDBRANCH   5  16
TORSDOF 4
ENDMDL
MODEL 5
REMARK VINA RESULT:      -7.6      5.557      7.693
REMARK  Name = 
REMARK  6 active torsions:
REMARK  status: ('A' for Active; 'I' for Inactive)
REMARK    1  A    between atoms: C_1  and  C_2
REMARK    2  A    between atoms: C_3  and  C_4
REMARK    3  A    between atoms: C_8  and  C_9
REMARK    4  A    between atoms: C_9  and  C_10
REMARK    5  A    between atoms: C_10  and  C_11
REMARK    6  A    between atoms: N_15  and  C_16
REMARK                            x       y       z     vdW  Elec       q    Type
REMARK                         _______ _______ _______ _____ _____    ______ ____
ROOT
ATOM      1  C   UNL     1       3.284   5.227  17.996  0.00  0.00    +0.000 A 
ATOM      2  C   UNL     1       3.116   6.605  18.125  0.00  0.00    +0.000 A 
ATOM      3  C   UNL     1       3.810   7.462  17.275  0.00  0.00    +0.000 A 
ATOM      4  C   UNL     1       4.703   6.943  16.333  0.00  0.00    +0.000 A 
ATOM      5  C   UNL     1       4.934   5.557  16.202  0.00  0.00    +0.000 A 
ATOM      6  C   UNL     1       4.152   4.718  17.019  0.00  0.00    +0.000 A 
ENDROOT
BRANCH   1   9
ATOM      7  C   UNL     1       0.687   3.847  17.512  0.00  0.00    +0.000 C 
ATOM      8  C   UNL     1       1.534   3.643  18.752  0.00  0.00    +0.000 C 
ATOM      9  C   UNL     1       2.704   4.288  18.978  0.00  0.00    +0.000 C 
ATOM     10  C   UNL     1       3.618   4.155  20.181  0.00  0.00    +0.000 C 
ATOM     11  C   UNL     1       3.533   2.808  20.857  0.00  0.00    +0.000 C 
ATOM     12  O   UNL     1       4.370   1.924  20.660  0.00  0.00    +0.000 OA
ATOM     13  C   UNL     1       2.381   2.590  21.804  0.00  0.00    +0.000 C 
ATOM     14  C   UNL     1       1.046   2.983  21.197  0.00  0.00    +0.000 C 
ATOM     15  C   UNL     1       0.911   2.635  19.709  0.00  0.00    +0.000 C 
ENDBRANCH   1   9
BRANCH   5  16
ATOM     16  C   UNL     1       6.114   4.984  15.294  0.00  0.00    +0.000 C 
ATOM     17  C   UNL     1       5.949   5.141  13.759  0.00  0.00    +0.000 C 
ATOM     18  O   UNL     1       6.493   3.807  13.549  0.00  0.00    +0.000 OA
ATOM     19  C   UNL     1       6.140   3.477  14.922  0.00  0.00    +0.000 C 
BRANCH  16  20
ATOM     20  C   UNL     1       7.489   5.519  15.765  0.00  0.00    +0.000 C 
BRANCH  20  21
ATOM     21  C   UNL     1       7.676   5.589  17.249  0.00  0.00    +0.000 A 
ATOM     22  N   UNL     1       7.681   4.552  18.062  0.00  0.00    +0.000 NA
ATOM     23  N   UNL     1       7.812   5.006  19.352  0.00  0.00    +0.000 NA
ATOM     24  C   UNL     1       7.869   6.314  19.306  0.00  0.00    +0.000 A 
ATOM     25  N   UNL     1       7.787   6.725  18.008  0.00  0.00    +0.000 N 
ATOM     26  C   UNL     1       7.786   8.098  17.581  0.00  0.00    +0.000 C 
ENDBRANCH  20  21
ENDBRANCH  16  20
ENDBRANCH   5  16
TORSDOF 4
ENDMDL
MODEL 6
REMARK VINA RESULT:      -7.2      1.643      2.297
REMARK  Name = 
REMARK  6 active torsions:
REMARK  status: ('A' for Active; 'I' for Inactive)
REMARK    1  A    between atoms: C_1  and  C_2
REMARK    2  A    between atoms: C_3  and  C_4
REMARK    3  A    between atoms: C_8  and  C_9
REMARK    4  A    between atoms: C_9  and  C_10
REMARK    5  A    between atoms: C_10  and  C_11
REMARK    6  A    between atoms: N_15  and  C_16
REMARK                            x       y       z     vdW  Elec       q    Type
REMARK                         _______ _______ _______ _____ _____    ______ ____
ROOT
ATOM      1  C   UNL     1       2.667   6.848  18.820  0.00  0.00    +0.000 A 
ATOM      2  C   UNL     1       2.873   7.585  17.654  0.00  0.00    +0.000 A 
ATOM      3  C   UNL     1       2.391   8.888  17.573  0.00  0.00    +0.000 A 
ATOM      4  C   UNL     1       1.665   9.434  18.636  0.00  0.00    +0.000 A 
ATOM      5  C   UNL     1       1.396   8.705  19.814  0.00  0.00    +0.000 A 
ATOM      6  C   UNL     1       1.972   7.423  19.894  0.00  0.00    +0.000 A 
ENDROOT
BRANCH   1   9
ATOM      7  C   UNL     1       1.043   4.773  17.428  0.00  0.00    +0.000 C 
ATOM      8  C   UNL     1       2.284   4.468  18.243  0.00  0.00    +0.000 C 
ATOM      9  C   UNL     1       3.008   5.412  18.892  0.00  0.00    +0.000 C 
ATOM     10  C   UNL     1       4.255   5.210  19.730  0.00  0.00    +0.000 C 
ATOM     11  C   UNL     1       5.067   4.005  19.323  0.00  0.00    +0.000 C 
ATOM     12  O   UNL     1       6.074   4.102  18.618  0.00  0.00    +0.000 OA
ATOM     13  C   UNL     1       4.601   2.664  19.830  0.00  0.00    +0.000 C 
ATOM     14  C   UNL     1       3.119   2.433  19.589  0.00  0.00    +0.000 C 
ATOM     15  C   UNL     1       2.613   2.981  18.249  0.00  0.00    +0.000 C 
ENDBRANCH   1   9
BRANCH   5  16
ATOM     16  C   UNL     1       0.379   9.242  20.920  0.00  0.00    +0.000 C 
ATOM     17  C   UNL     1       0.974   9.552  22.319  0.00  0.00    +0.000 C 
ATOM     18  O   UNL     1      -0.201   8.979  22.962  0.00  0.00    +0.000 OA
ATOM     19  C   UNL     1      -0.471   8.234  21.740  0.00  0.00    +0.000 C 
BRANCH  16  20
ATOM     20  C   UNL     1      -0.444  10.439  20.385  0.00  0.00    +0.000 C 
BRANCH  20  21
ATOM     21  C   UNL     1      -0.108  11.769  20.985  0.00  0.00    +0.000 A 
ATOM     22  N   UNL     1       0.985  12.462  20.729  0.00  0.00    +0.000 NA
ATOM     23  N   UNL     1       0.980  13.593  21.508  0.00  0.00    +0.000 NA
ATOM     24  C   UNL     1      -0.107  13.564  22.238  0.00  0.00    +0.000 A 
ATOM     25  N   UNL     1      -0.819  12.439  21.946  0.00  0.00    +0.000 N 
ATOM     26  C   UNL     1      -2.054  12.062  22.579  0.00  0.00    +0.000 C 
ENDBRANCH  20  21
ENDBRANCH  16  20
ENDBRANCH   5  16
TORSDOF 4
ENDMDL
MODEL 7
REMARK VINA RESULT:      -7.2      4.609      8.056
REMARK  Name = 
REMARK  6 active torsions:
REMARK  status: ('A' for Active; 'I' for Inactive)
REMARK    1  A    between atoms: C_1  and  C_2
REMARK    2  A    between atoms: C_3  and  C_4
REMARK    3  A    between atoms: C_8  and  C_9
REMARK    4  A    between atoms: C_9  and  C_10
REMARK    5  A    between atoms: C_10  and  C_11
REMARK    6  A    between atoms: N_15  and  C_16
REMARK                            x       y       z     vdW  Elec       q    Type
REMARK                         _______ _______ _______ _____ _____    ______ ____
ROOT
ATOM      1  C   UNL     1       2.591   5.569  18.208  0.00  0.00    +0.000 A 
ATOM      2  C   UNL     1       1.768   4.448  18.110  0.00  0.00    +0.000 A 
ATOM      3  C   UNL     1       2.239   3.307  17.468  0.00  0.00    +0.000 A 
ATOM      4  C   UNL     1       3.511   3.304  16.886  0.00  0.00    +0.000 A 
ATOM      5  C   UNL     1       4.355   4.433  16.924  0.00  0.00    +0.000 A 
ATOM      6  C   UNL     1       3.880   5.539  17.655  0.00  0.00    +0.000 A 
ENDROOT
BRANCH   1   9
ATOM      7  C   UNL     1       2.291   6.080  21.128  0.00  0.00    +0.000 C 
ATOM      8  C   UNL     1       1.962   7.097  20.055  0.00  0.00    +0.000 C 
ATOM      9  C   UNL     1       2.080   6.855  18.726  0.00  0.00    +0.000 C 
ATOM     10  C   UNL     1       1.776   7.800  17.581  0.00  0.00    +0.000 C 
ATOM     11  C   UNL     1       1.936   9.257  17.942  0.00  0.00    +0.000 C 
ATOM     12  O   UNL     1       2.945   9.899  17.641  0.00  0.00    +0.000 OA
ATOM     13  C   UNL     1       0.794   9.906  18.681  0.00  0.00    +0.000 C 
ATOM     14  C   UNL     1       0.337   9.092  19.879  0.00  0.00    +0.000 C 
ATOM     15  C   UNL     1       1.480   8.416  20.645  0.00  0.00    +0.000 C 
ENDBRANCH   1   9
BRANCH   5  16
ATOM     16  C   UNL     1       5.700   4.506  16.068  0.00  0.00    +0.000 C 
ATOM     17  C   UNL     1       5.763   5.595  14.965  0.00  0.00    +0.000 C 
ATOM     18  O   UNL     1       6.427   4.664  14.062  0.00  0.00    +0.000 OA
ATOM     19  C   UNL     1       5.890   3.563  14.848  0.00  0.00    +0.000 C 
BRANCH  16  20
ATOM     20  C   UNL     1       6.944   4.569  16.988  0.00  0.00    +0.000 C 
BRANCH  20  21
ATOM     21  C   UNL     1       7.370   5.944  17.398  0.00  0.00    +0.000 A 
ATOM     22  N   UNL     1       7.498   6.973  16.583  0.00  0.00    +0.000 NA
ATOM     23  N   UNL     1       7.968   8.046  17.301  0.00  0.00    +0.000 NA
ATOM     24  C   UNL     1       8.135   7.649  18.539  0.00  0.00    +0.000 A 
ATOM     25  N   UNL     1       7.775   6.339  18.647  0.00  0.00    +0.000 N 
ATOM     26  C   UNL     1       7.857   5.563  19.855  0.00  0.00    +0.000 C 
ENDBRANCH  20  21
ENDBRANCH  16  20
ENDBRANCH   5  16
TORSDOF 4
ENDMDL
MODEL 8
REMARK VINA RESULT:      -7.2      1.085      1.666
REMARK  Name = 
REMARK  6 active torsions:
REMARK  status: ('A' for Active; 'I' for Inactive)
REMARK    1  A    between atoms: C_1  and  C_2
REMARK    2  A    between atoms: C_3  and  C_4
REMARK    3  A    between atoms: C_8  and  C_9
REMARK    4  A    between atoms: C_9  and  C_10
REMARK    5  A    between atoms: C_10  and  C_11
REMARK    6  A    between atoms: N_15  and  C_16
REMARK                            x       y       z     vdW  Elec       q    Type
REMARK                         _______ _______ _______ _____ _____    ______ ____
ROOT
ATOM      1  C   UNL     1       2.640   6.525  18.969  0.00  0.00    +0.000 A 
ATOM      2  C   UNL     1       2.907   7.137  17.745  0.00  0.00    +0.000 A 
ATOM      3  C   UNL     1       2.569   8.474  17.560  0.00  0.00    +0.000 A 
ATOM      4  C   UNL     1       1.924   9.182  18.579  0.00  0.00    +0.000 A 
ATOM      5  C   UNL     1       1.596   8.585  19.815  0.00  0.00    +0.000 A 
ATOM      6  C   UNL     1       2.029   7.258  19.997  0.00  0.00    +0.000 A 
ENDROOT
BRANCH   1   9
ATOM      7  C   UNL     1       5.344   5.302  19.240  0.00  0.00    +0.000 C 
ATOM      8  C   UNL     1       4.051   4.514  19.301  0.00  0.00    +0.000 C 
ATOM      9  C   UNL     1       2.823   5.071  19.157  0.00  0.00    +0.000 C 
ATOM     10  C   UNL     1       1.478   4.373  19.199  0.00  0.00    +0.000 C 
ATOM     11  C   UNL     1       1.475   3.120  20.042  0.00  0.00    +0.000 C 
ATOM     12  O   UNL     1       1.037   3.109  21.195  0.00  0.00    +0.000 OA
ATOM     13  C   UNL     1       2.020   1.868  19.406  0.00  0.00    +0.000 C 
ATOM     14  C   UNL     1       3.375   2.086  18.755  0.00  0.00    +0.000 C 
ATOM     15  C   UNL     1       4.296   3.030  19.538  0.00  0.00    +0.000 C 
ENDBRANCH   1   9
BRANCH   5  16
ATOM     16  C   UNL     1       0.661   9.319  20.879  0.00  0.00    +0.000 C 
ATOM     17  C   UNL     1       1.154  10.691  21.409  0.00  0.00    +0.000 C 
ATOM     18  O   UNL     1       0.708  10.351  22.753  0.00  0.00    +0.000 OA
ATOM     19  C   UNL     1       0.761   8.944  22.383  0.00  0.00    +0.000 C 
BRANCH  16  20
ATOM     20  C   UNL     1      -0.799   9.408  20.371  0.00  0.00    +0.000 C 
BRANCH  20  21
ATOM     21  C   UNL     1      -1.163  10.687  19.683  0.00  0.00    +0.000 A 
ATOM     22  N   UNL     1      -1.342  11.847  20.286  0.00  0.00    +0.000 NA
ATOM     23  N   UNL     1      -1.729  12.773  19.348  0.00  0.00    +0.000 NA
ATOM     24  C   UNL     1      -1.795  12.160  18.192  0.00  0.00    +0.000 A 
ATOM     25  N   UNL     1      -1.450  10.851  18.353  0.00  0.00    +0.000 N 
ATOM     26  C   UNL     1      -1.441   9.869  17.302  0.00  0.00    +0.000 C 
ENDBRANCH  20  21
ENDBRANCH  16  20
ENDBRANCH   5  16
TORSDOF 4
ENDMDL
MODEL 9
REMARK VINA RESULT:      -7.2      0.827      1.001
REMARK  Name = 
REMARK  6 active torsions:
REMARK  status: ('A' for Active; 'I' for Inactive)
REMARK    1  A    between atoms: C_1  and  C_2
REMARK    2  A    between atoms: C_3  and  C_4
REMARK    3  A    between atoms: C_8  and  C_9
REMARK    4  A    between atoms: C_9  and  C_10
REMARK    5  A    between atoms: C_10  and  C_11
REMARK    6  A    between atoms: N_15  and  C_16
REMARK                            x       y       z     vdW  Elec       q    Type
REMARK                         _______ _______ _______ _____ _____    ______ ____
ROOT
ATOM      1  C   UNL     1       2.675   6.582  18.975  0.00  0.00    +0.000 A 
ATOM      2  C   UNL     1       2.964   7.167  17.742  0.00  0.00    +0.000 A 
ATOM      3  C   UNL     1       2.638   8.503  17.525  0.00  0.00    +0.000 A 
ATOM      4  C   UNL     1       1.984   9.236  18.521  0.00  0.00    +0.000 A 
ATOM      5  C   UNL     1       1.635   8.667  19.764  0.00  0.00    +0.000 A 
ATOM      6  C   UNL     1       2.056   7.341  19.979  0.00  0.00    +0.000 A 
ENDROOT
BRANCH   1   9
ATOM      7  C   UNL     1       5.368   5.341  19.274  0.00  0.00    +0.000 C 
ATOM      8  C   UNL     1       4.068   4.567  19.352  0.00  0.00    +0.000 C 
ATOM      9  C   UNL     1       2.845   5.131  19.195  0.00  0.00    +0.000 C 
ATOM     10  C   UNL     1       1.494   4.446  19.252  0.00  0.00    +0.000 C 
ATOM     11  C   UNL     1       1.479   3.213  20.122  0.00  0.00    +0.000 C 
ATOM     12  O   UNL     1       1.041   3.231  21.275  0.00  0.00    +0.000 OA
ATOM     13  C   UNL     1       2.013   1.942  19.514  0.00  0.00    +0.000 C 
ATOM     14  C   UNL     1       3.369   2.134  18.859  0.00  0.00    +0.000 C 
ATOM     15  C   UNL     1       4.300   3.086  19.621  0.00  0.00    +0.000 C 
ENDBRANCH   1   9
BRANCH   5  16
ATOM     16  C   UNL     1       0.692   9.429  20.801  0.00  0.00    +0.000 C 
ATOM     17  C   UNL     1       1.247  10.744  21.409  0.00  0.00    +0.000 C 
ATOM     18  O   UNL     1       0.699  10.391  22.711  0.00  0.00    +0.000 OA
ATOM     19  C   UNL     1       0.677   8.997  22.293  0.00  0.00    +0.000 C 
BRANCH  16  20
ATOM     20  C   UNL     1      -0.726   9.639  20.214  0.00  0.00    +0.000 C 
BRANCH  20  21
ATOM     21  C   UNL     1      -0.996  11.003  19.659  0.00  0.00    +0.000 A 
ATOM     22  N   UNL     1      -0.601  11.432  18.477  0.00  0.00    +0.000 NA
ATOM     23  N   UNL     1      -0.973  12.748  18.341  0.00  0.00    +0.000 NA
ATOM     24  C   UNL     1      -1.574  13.105  19.449  0.00  0.00    +0.000 A 
ATOM     25  N   UNL     1      -1.610  12.044  20.306  0.00  0.00    +0.000 N 
ATOM     26  C   UNL     1      -2.168  12.079  21.631  0.00  0.00    +0.000 C 
ENDBRANCH  20  21
ENDBRANCH  16  20
ENDBRANCH   5  16
TORSDOF 4
ENDMDL
