MODEL 1
REMARK VINA RESULT:     -10.0      0.000      0.000
REMARK  Name = 
REMARK  4 active torsions:
REMARK  status: ('A' for Active; 'I' for Inactive)
REMARK    1  A    between atoms: C_4  and  C_5
REMARK    2  A    between atoms: C_4  and  C_11
REMARK    3  A    between atoms: N_19  and  C_20
REMARK    4  A    between atoms: C_20  and  C_21
REMARK                            x       y       z     vdW  Elec       q    Type
REMARK                         _______ _______ _______ _____ _____    ______ ____
ROOT
ATOM      1  O   UNL     1       6.860   5.351  19.987  0.00  0.00    +0.000 OA
ATOM      2  C   UNL     1       5.866   5.380  19.281  0.00  0.00    +0.000 C 
ATOM      3  N   UNL     1       4.594   5.258  19.774  0.00  0.00    +0.000 N 
ATOM      4  C   UNL     1       3.565   5.559  18.795  0.00  0.00    +0.000 C 
ATOM      5  C   UNL     1       4.508   5.829  17.574  0.00  0.00    +0.000 C 
ATOM      6  O   UNL     1       4.161   6.221  16.463  0.00  0.00    +0.000 OA
ATOM      7  N   UNL     1       5.807   5.619  17.950  0.00  0.00    +0.000 N 
ATOM      8  H   UNL     1       4.430   5.120  20.760  0.00  0.00    +0.000 HD
ENDROOT
BRANCH   4   9
ATOM      9  C   UNL     1       2.645   4.339  18.642  0.00  0.00    +0.000 A 
ATOM     10  C   UNL     1       2.984   3.320  17.726  0.00  0.00    +0.000 A 
ATOM     11  C   UNL     1       2.224   2.153  17.633  0.00  0.00    +0.000 A 
ATOM     12  C   UNL     1       1.111   1.979  18.450  0.00  0.00    +0.000 A 
ATOM     13  C   UNL     1       0.750   2.978  19.348  0.00  0.00    +0.000 A 
ATOM     14  C   UNL     1       1.505   4.150  19.443  0.00  0.00    +0.000 A 
ENDBRANCH   4   9
BRANCH   4  15
ATOM     15  C   UNL     1       2.763   6.830  19.142  0.00  0.00    +0.000 A 
ATOM     16  C   UNL     1       2.215   7.071  20.417  0.00  0.00    +0.000 A 
ATOM     17  C   UNL     1       1.448   8.215  20.668  0.00  0.00    +0.000 A 
ATOM     18  C   UNL     1       1.218   9.145  19.657  0.00  0.00    +0.000 A 
ATOM     19  C   UNL     1       1.759   8.936  18.394  0.00  0.00    +0.000 A 
ATOM     20  C   UNL     1       2.525   7.795  18.141  0.00  0.00    +0.000 A 
ENDBRANCH   4  15
BRANCH   7  21
ATOM     21  C   UNL     1       6.953   6.012  17.153  0.00  0.00    +0.000 C 
BRANCH  21  22
ATOM     22  C   UNL     1       7.009   5.403  15.793  0.00  0.00    +0.000 A 
ATOM     23  N   UNL     1       7.781   5.630  14.741  0.00  0.00    +0.000 NA
ATOM     24  C   UNL     1       7.230   4.832  13.755  0.00  0.00    +0.000 A 
ATOM     25  C   UNL     1       7.555   4.647  12.402  0.00  0.00    +0.000 A 
ATOM     26  C   UNL     1       6.751   3.785  11.631  0.00  0.00    +0.000 A 
ATOM     27  C   UNL     1       5.663   3.107  12.196  0.00  0.00    +0.000 A 
ATOM     28  C   UNL     1       5.341   3.260  13.548  0.00  0.00    +0.000 A 
ATOM     29  C   UNL     1       6.149   4.134  14.266  0.00  0.00    +0.000 A 
ATOM     30  O   UNL     1       6.011   4.482  15.574  0.00  0.00    +0.000 OA
ENDBRANCH  21  22
ENDBRANCH   7  21
TORSDOF 4
ENDMDL
MODEL 2
REMARK VINA RESULT:      -9.9      2.876      5.867
REMARK  Name = 
REMARK  4 active torsions:
REMARK  status: ('A' for Active; 'I' for Inactive)
REMARK    1  A    between atoms: C_4  and  C_5
REMARK    2  A    between atoms: C_4  and  C_11
REMARK    3  A    between atoms: N_19  and  C_20
REMARK    4  A    between atoms: C_20  and  C_21
REMARK                            x       y       z     vdW  Elec       q    Type
REMARK                         _______ _______ _______ _____ _____    ______ ____
ROOT
ATOM      1  O   UNL     1       5.536   6.777  15.273  0.00  0.00    +0.000 OA
ATOM      2  C   UNL     1       5.104   6.606  16.401  0.00  0.00    +0.000 C 
ATOM      3  N   UNL     1       3.774   6.422  16.673  0.00  0.00    +0.000 N 
ATOM      4  C   UNL     1       3.518   6.001  18.039  0.00  0.00    +0.000 C 
ATOM      5  C   UNL     1       4.998   6.033  18.550  0.00  0.00    +0.000 C 
ATOM      6  O   UNL     1       5.389   5.674  19.657  0.00  0.00    +0.000 OA
ATOM      7  N   UNL     1       5.815   6.473  17.545  0.00  0.00    +0.000 N 
ATOM      8  H   UNL     1       3.085   6.440  15.936  0.00  0.00    +0.000 HD
ENDROOT
BRANCH   4   9
ATOM      9  C   UNL     1       2.580   7.015  18.709  0.00  0.00    +0.000 A 
ATOM     10  C   UNL     1       2.241   6.856  20.070  0.00  0.00    +0.000 A 
ATOM     11  C   UNL     1       1.472   7.811  20.737  0.00  0.00    +0.000 A 
ATOM     12  C   UNL     1       1.025   8.942  20.061  0.00  0.00    +0.000 A 
ATOM     13  C   UNL     1       1.334   9.109  18.715  0.00  0.00    +0.000 A 
ATOM     14  C   UNL     1       2.101   8.155  18.042  0.00  0.00    +0.000 A 
ENDBRANCH   4   9
BRANCH   4  15
ATOM     15  C   UNL     1       2.953   4.567  18.126  0.00  0.00    +0.000 A 
ATOM     16  C   UNL     1       1.612   4.286  18.448  0.00  0.00    +0.000 A 
ATOM     17  C   UNL     1       1.160   2.966  18.568  0.00  0.00    +0.000 A 
ATOM     18  C   UNL     1       2.034   1.901  18.363  0.00  0.00    +0.000 A 
ATOM     19  C   UNL     1       3.360   2.153  18.032  0.00  0.00    +0.000 A 
ATOM     20  C   UNL     1       3.814   3.470  17.910  0.00  0.00    +0.000 A 
ENDBRANCH   4  15
BRANCH   7  21
ATOM     21  C   UNL     1       7.262   6.391  17.586  0.00  0.00    +0.000 C 
BRANCH  21  22
ATOM     22  C   UNL     1       7.950   7.646  18.003  0.00  0.00    +0.000 A 
ATOM     23  N   UNL     1       8.740   7.938  19.025  0.00  0.00    +0.000 NA
ATOM     24  C   UNL     1       8.924   9.304  18.915  0.00  0.00    +0.000 A 
ATOM     25  C   UNL     1       9.623  10.228  19.708  0.00  0.00    +0.000 A 
ATOM     26  C   UNL     1       9.574  11.590  19.352  0.00  0.00    +0.000 A 
ATOM     27  C   UNL     1       8.866  12.021  18.223  0.00  0.00    +0.000 A 
ATOM     28  C   UNL     1       8.186  11.111  17.408  0.00  0.00    +0.000 A 
ATOM     29  C   UNL     1       8.244   9.781  17.806  0.00  0.00    +0.000 A 
ATOM     30  O   UNL     1       7.632   8.724  17.209  0.00  0.00    +0.000 OA
ENDBRANCH  21  22
ENDBRANCH   7  21
TORSDOF 4
ENDMDL
MODEL 3
REMARK VINA RESULT:      -9.8      0.946      1.343
REMARK  Name = 
REMARK  4 active torsions:
REMARK  status: ('A' for Active; 'I' for Inactive)
REMARK    1  A    between atoms: C_4  and  C_5
REMARK    2  A    between atoms: C_4  and  C_11
REMARK    3  A    between atoms: N_19  and  C_20
REMARK    4  A    between atoms: C_20  and  C_21
REMARK                            x       y       z     vdW  Elec       q    Type
REMARK                         _______ _______ _______ _____ _____    ______ ____
ROOT
ATOM      1  O   UNL     1       6.942   5.423  20.044  0.00  0.00    +0.000 OA
ATOM      2  C   UNL     1       5.934   5.340  19.363  0.00  0.00    +0.000 C 
ATOM      3  N   UNL     1       4.669   5.401  19.887  0.00  0.00    +0.000 N 
ATOM      4  C   UNL     1       3.633   5.520  18.878  0.00  0.00    +0.000 C 
ATOM      5  C   UNL     1       4.558   5.454  17.616  0.00  0.00    +0.000 C 
ATOM      6  O   UNL     1       4.202   5.596  16.450  0.00  0.00    +0.000 OA
ATOM      7  N   UNL     1       5.853   5.268  18.015  0.00  0.00    +0.000 N 
ATOM      8  H   UNL     1       4.523   5.502  20.880  0.00  0.00    +0.000 HD
ENDROOT
BRANCH   4   9
ATOM      9  C   UNL     1       2.653   4.348  19.024  0.00  0.00    +0.000 A 
ATOM     10  C   UNL     1       1.559   4.239  18.137  0.00  0.00    +0.000 A 
ATOM     11  C   UNL     1       0.706   3.135  18.178  0.00  0.00    +0.000 A 
ATOM     12  C   UNL     1       0.925   2.118  19.103  0.00  0.00    +0.000 A 
ATOM     13  C   UNL     1       1.987   2.215  19.997  0.00  0.00    +0.000 A 
ATOM     14  C   UNL     1       2.842   3.319  19.963  0.00  0.00    +0.000 A 
ENDBRANCH   4   9
BRANCH   4  15
ATOM     15  C   UNL     1       2.900   6.878  18.932  0.00  0.00    +0.000 A 
ATOM     16  C   UNL     1       2.139   7.298  20.040  0.00  0.00    +0.000 A 
ATOM     17  C   UNL     1       1.448   8.516  20.019  0.00  0.00    +0.000 A 
ATOM     18  C   UNL     1       1.507   9.341  18.899  0.00  0.00    +0.000 A 
ATOM     19  C   UNL     1       2.261   8.953  17.798  0.00  0.00    +0.000 A 
ATOM     20  C   UNL     1       2.953   7.738  17.816  0.00  0.00    +0.000 A 
ENDBRANCH   4  15
BRANCH   7  21
ATOM     21  C   UNL     1       6.997   5.408  17.133  0.00  0.00    +0.000 C 
BRANCH  21  22
ATOM     22  C   UNL     1       6.787   4.898  15.748  0.00  0.00    +0.000 A 
ATOM     23  N   UNL     1       6.170   3.829  15.271  0.00  0.00    +0.000 NA
ATOM     24  C   UNL     1       6.457   3.863  13.918  0.00  0.00    +0.000 A 
ATOM     25  C   UNL     1       6.134   2.995  12.863  0.00  0.00    +0.000 A 
ATOM     26  C   UNL     1       6.633   3.286  11.579  0.00  0.00    +0.000 A 
ATOM     27  C   UNL     1       7.414   4.424  11.343  0.00  0.00    +0.000 A 
ATOM     28  C   UNL     1       7.724   5.313  12.377  0.00  0.00    +0.000 A 
ATOM     29  C   UNL     1       7.228   4.977  13.631  0.00  0.00    +0.000 A 
ATOM     30  O   UNL     1       7.430   5.653  14.794  0.00  0.00    +0.000 OA
ENDBRANCH  21  22
ENDBRANCH   7  21
TORSDOF 4
ENDMDL
MODEL 4
REMARK VINA RESULT:      -9.7      2.711      4.585
REMARK  Name = 
REMARK  4 active torsions:
REMARK  status: ('A' for Active; 'I' for Inactive)
REMARK    1  A    between atoms: C_4  and  C_5
REMARK    2  A    between atoms: C_4  and  C_11
REMARK    3  A    between atoms: N_19  and  C_20
REMARK    4  A    between atoms: C_20  and  C_21
REMARK                            x       y       z     vdW  Elec       q    Type
REMARK                         _______ _______ _______ _____ _____    ______ ____
ROOT
ATOM      1  O   UNL     1       7.095   5.599  20.193  0.00  0.00    +0.000 OA
ATOM      2  C   UNL     1       6.182   5.566  19.385  0.00  0.00    +0.000 C 
ATOM      3  N   UNL     1       4.881   5.315  19.734  0.00  0.00    +0.000 N 
ATOM      4  C   UNL     1       3.938   5.561  18.658  0.00  0.00    +0.000 C 
ATOM      5  C   UNL     1       4.976   5.960  17.555  0.00  0.00    +0.000 C 
ATOM      6  O   UNL     1       4.713   6.361  16.425  0.00  0.00    +0.000 OA
ATOM      7  N   UNL     1       6.241   5.850  18.063  0.00  0.00    +0.000 N 
ATOM      8  H   UNL     1       4.628   5.125  20.692  0.00  0.00    +0.000 HD
ENDROOT
BRANCH   4   9
ATOM      9  C   UNL     1       3.155   4.272  18.372  0.00  0.00    +0.000 A 
ATOM     10  C   UNL     1       3.852   3.095  18.023  0.00  0.00    +0.000 A 
ATOM     11  C   UNL     1       3.180   1.883  17.853  0.00  0.00    +0.000 A 
ATOM     12  C   UNL     1       1.801   1.820  18.027  0.00  0.00    +0.000 A 
ATOM     13  C   UNL     1       1.093   2.972  18.355  0.00  0.00    +0.000 A 
ATOM     14  C   UNL     1       1.760   4.188  18.523  0.00  0.00    +0.000 A 
ENDBRANCH   4   9
BRANCH   4  15
ATOM     15  C   UNL     1       2.991   6.743  18.953  0.00  0.00    +0.000 A 
ATOM     16  C   UNL     1       2.736   7.774  18.030  0.00  0.00    +0.000 A 
ATOM     17  C   UNL     1       1.911   8.855  18.364  0.00  0.00    +0.000 A 
ATOM     18  C   UNL     1       1.317   8.924  19.622  0.00  0.00    +0.000 A 
ATOM     19  C   UNL     1       1.542   7.911  20.546  0.00  0.00    +0.000 A 
ATOM     20  C   UNL     1       2.366   6.831  20.215  0.00  0.00    +0.000 A 
ENDBRANCH   4  15
BRANCH   7  21
ATOM     21  C   UNL     1       7.424   6.372  17.406  0.00  0.00    +0.000 C 
BRANCH  21  22
ATOM     22  C   UNL     1       7.708   7.811  17.676  0.00  0.00    +0.000 A 
ATOM     23  N   UNL     1       7.349   8.926  17.059  0.00  0.00    +0.000 NA
ATOM     24  C   UNL     1       8.056   9.910  17.726  0.00  0.00    +0.000 A 
ATOM     25  C   UNL     1       8.149  11.298  17.535  0.00  0.00    +0.000 A 
ATOM     26  C   UNL     1       9.016  12.032  18.367  0.00  0.00    +0.000 A 
ATOM     27  C   UNL     1       9.756  11.407  19.378  0.00  0.00    +0.000 A 
ATOM     28  C   UNL     1       9.656  10.030  19.599  0.00  0.00    +0.000 A 
ATOM     29  C   UNL     1       8.804   9.341  18.743  0.00  0.00    +0.000 A 
ATOM     30  O   UNL     1       8.574   8.001  18.728  0.00  0.00    +0.000 OA
ENDBRANCH  21  22
ENDBRANCH   7  21
TORSDOF 4
ENDMDL
MODEL 5
REMARK VINA RESULT:      -9.6      4.224      7.273
REMARK  Name = 
REMARK  4 active torsions:
REMARK  status: ('A' for Active; 'I' for Inactive)
REMARK    1  A    between atoms: C_4  and  C_5
REMARK    2  A    between atoms: C_4  and  C_11
REMARK    3  A    between atoms: N_19  and  C_20
REMARK    4  A    between atoms: C_20  and  C_21
REMARK                            x       y       z     vdW  Elec       q    Type
REMARK                         _______ _______ _______ _____ _____    ______ ____
ROOT
ATOM      1  O   UNL     1       0.268   8.624  22.106  0.00  0.00    +0.000 OA
ATOM      2  C   UNL     1       0.299   9.161  21.011  0.00  0.00    +0.000 C 
ATOM      3  N   UNL     1      -0.505  10.218  20.673  0.00  0.00    +0.000 N 
ATOM      4  C   UNL     1      -0.134  10.844  19.417  0.00  0.00    +0.000 C 
ATOM      5  C   UNL     1       1.043   9.882  19.040  0.00  0.00    +0.000 C 
ATOM      6  O   UNL     1       1.796  10.001  18.077  0.00  0.00    +0.000 OA
ATOM      7  N   UNL     1       1.149   8.903  19.991  0.00  0.00    +0.000 N 
ATOM      8  H   UNL     1      -1.179  10.588  21.325  0.00  0.00    +0.000 HD
ENDROOT
BRANCH   4   9
ATOM      9  C   UNL     1      -1.334  10.802  18.461  0.00  0.00    +0.000 A 
ATOM     10  C   UNL     1      -1.326   9.906  17.370  0.00  0.00    +0.000 A 
ATOM     11  C   UNL     1      -2.440   9.771  16.539  0.00  0.00    +0.000 A 
ATOM     12  C   UNL     1      -3.583  10.527  16.779  0.00  0.00    +0.000 A 
ATOM     13  C   UNL     1      -3.606  11.429  17.839  0.00  0.00    +0.000 A 
ATOM     14  C   UNL     1      -2.493  11.570  18.671  0.00  0.00    +0.000 A 
ENDBRANCH   4   9
BRANCH   4  15
ATOM     15  C   UNL     1       0.391  12.284  19.600  0.00  0.00    +0.000 A 
ATOM     16  C   UNL     1       0.703  13.132  18.521  0.00  0.00    +0.000 A 
ATOM     17  C   UNL     1       1.228  14.412  18.738  0.00  0.00    +0.000 A 
ATOM     18  C   UNL     1       1.446  14.874  20.034  0.00  0.00    +0.000 A 
ATOM     19  C   UNL     1       1.133  14.060  21.115  0.00  0.00    +0.000 A 
ATOM     20  C   UNL     1       0.608  12.782  20.902  0.00  0.00    +0.000 A 
ENDBRANCH   4  15
BRANCH   7  21
ATOM     21  C   UNL     1       2.276   7.996  20.093  0.00  0.00    +0.000 C 
BRANCH  21  22
ATOM     22  C   UNL     1       1.941   6.556  19.897  0.00  0.00    +0.000 A 
ATOM     23  N   UNL     1       1.434   5.636  20.702  0.00  0.00    +0.000 NA
ATOM     24  C   UNL     1       1.505   4.474  19.955  0.00  0.00    +0.000 A 
ATOM     25  C   UNL     1       1.166   3.143  20.248  0.00  0.00    +0.000 A 
ATOM     26  C   UNL     1       1.413   2.159  19.272  0.00  0.00    +0.000 A 
ATOM     27  C   UNL     1       1.962   2.491  18.027  0.00  0.00    +0.000 A 
ATOM     28  C   UNL     1       2.281   3.815  17.710  0.00  0.00    +0.000 A 
ATOM     29  C   UNL     1       2.040   4.751  18.708  0.00  0.00    +0.000 A 
ATOM     30  O   UNL     1       2.306   6.083  18.657  0.00  0.00    +0.000 OA
ENDBRANCH  21  22
ENDBRANCH   7  21
TORSDOF 4
ENDMDL
MODEL 6
REMARK VINA RESULT:      -9.6      0.106      1.269
REMARK  Name = 
REMARK  4 active torsions:
REMARK  status: ('A' for Active; 'I' for Inactive)
REMARK    1  A    between atoms: C_4  and  C_5
REMARK    2  A    between atoms: C_4  and  C_11
REMARK    3  A    between atoms: N_19  and  C_20
REMARK    4  A    between atoms: C_20  and  C_21
REMARK                            x       y       z     vdW  Elec       q    Type
REMARK                         _______ _______ _______ _____ _____    ______ ____
ROOT
ATOM      1  O   UNL     1       6.946   5.524  19.997  0.00  0.00    +0.000 OA
ATOM      2  C   UNL     1       5.956   5.471  19.288  0.00  0.00    +0.000 C 
ATOM      3  N   UNL     1       4.686   5.330  19.784  0.00  0.00    +0.000 N 
ATOM      4  C   UNL     1       3.652   5.529  18.785  0.00  0.00    +0.000 C 
ATOM      5  C   UNL     1       4.591   5.762  17.553  0.00  0.00    +0.000 C 
ATOM      6  O   UNL     1       4.234   6.071  16.419  0.00  0.00    +0.000 OA
ATOM      7  N   UNL     1       5.894   5.625  17.945  0.00  0.00    +0.000 N 
ATOM      8  H   UNL     1       4.522   5.245  20.775  0.00  0.00    +0.000 HD
ENDROOT
BRANCH   4   9
ATOM      9  C   UNL     1       2.781   4.268  18.704  0.00  0.00    +0.000 A 
ATOM     10  C   UNL     1       1.606   4.181  19.482  0.00  0.00    +0.000 A 
ATOM     11  C   UNL     1       0.740   3.093  19.360  0.00  0.00    +0.000 A 
ATOM     12  C   UNL     1       1.028   2.070  18.462  0.00  0.00    +0.000 A 
ATOM     13  C   UNL     1       2.190   2.128  17.699  0.00  0.00    +0.000 A 
ATOM     14  C   UNL     1       3.062   3.213  17.819  0.00  0.00    +0.000 A 
ENDBRANCH   4   9
BRANCH   4  15
ATOM     15  C   UNL     1       2.799   6.787  19.052  0.00  0.00    +0.000 A 
ATOM     16  C   UNL     1       2.559   7.776  18.078  0.00  0.00    +0.000 A 
ATOM     17  C   UNL     1       1.823   8.927  18.385  0.00  0.00    +0.000 A 
ATOM     18  C   UNL     1       1.306   9.112  19.665  0.00  0.00    +0.000 A 
ATOM     19  C   UNL     1       1.519   8.145  20.639  0.00  0.00    +0.000 A 
ATOM     20  C   UNL     1       2.252   6.994  20.336  0.00  0.00    +0.000 A 
ENDBRANCH   4  15
BRANCH   7  21
ATOM     21  C   UNL     1       7.029   6.014  17.129  0.00  0.00    +0.000 C 
BRANCH  21  22
ATOM     22  C   UNL     1       7.065   5.397  15.772  0.00  0.00    +0.000 A 
ATOM     23  N   UNL     1       7.803   5.637  14.699  0.00  0.00    +0.000 NA
ATOM     24  C   UNL     1       7.247   4.817  13.733  0.00  0.00    +0.000 A 
ATOM     25  C   UNL     1       7.542   4.630  12.373  0.00  0.00    +0.000 A 
ATOM     26  C   UNL     1       6.740   3.743  11.629  0.00  0.00    +0.000 A 
ATOM     27  C   UNL     1       5.686   3.040  12.227  0.00  0.00    +0.000 A 
ATOM     28  C   UNL     1       5.396   3.195  13.586  0.00  0.00    +0.000 A 
ATOM     29  C   UNL     1       6.199   4.095  14.277  0.00  0.00    +0.000 A 
ATOM     30  O   UNL     1       6.087   4.448  15.585  0.00  0.00    +0.000 OA
ENDBRANCH  21  22
ENDBRANCH   7  21
TORSDOF 4
ENDMDL
MODEL 7
REMARK VINA RESULT:      -9.5      4.331      7.537
REMARK  Name = 
REMARK  4 active torsions:
REMARK  status: ('A' for Active; 'I' for Inactive)
REMARK    1  A    between atoms: C_4  and  C_5
REMARK    2  A    between atoms: C_4  and  C_11
REMARK    3  A    between atoms: N_19  and  C_20
REMARK    4  A    between atoms: C_20  and  C_21
REMARK                            x       y       z     vdW  Elec       q    Type
REMARK                         _______ _______ _______ _____ _____    ______ ____
ROOT
ATOM      1  O   UNL     1      -0.376   9.056  22.575  0.00  0.00    +0.000 OA
ATOM      2  C   UNL     1      -0.229   9.481  21.441  0.00  0.00    +0.000 C 
ATOM      3  N   UNL     1      -1.026  10.453  20.897  0.00  0.00    +0.000 N 
ATOM      4  C   UNL     1      -0.525  10.971  19.637  0.00  0.00    +0.000 C 
ATOM      5  C   UNL     1       0.729  10.042  19.511  0.00  0.00    +0.000 C 
ATOM      6  O   UNL     1       1.593  10.105  18.640  0.00  0.00    +0.000 OA
ATOM      7  N   UNL     1       0.754   9.170  20.565  0.00  0.00    +0.000 N 
ATOM      8  H   UNL     1      -1.793  10.849  21.420  0.00  0.00    +0.000 HD
ENDROOT
BRANCH   4   9
ATOM      9  C   UNL     1      -1.592  10.768  18.551  0.00  0.00    +0.000 A 
ATOM     10  C   UNL     1      -2.797  11.501  18.612  0.00  0.00    +0.000 A 
ATOM     11  C   UNL     1      -3.745  11.414  17.590  0.00  0.00    +0.000 A 
ATOM     12  C   UNL     1      -3.510  10.596  16.490  0.00  0.00    +0.000 A 
ATOM     13  C   UNL     1      -2.337   9.852  16.419  0.00  0.00    +0.000 A 
ATOM     14  C   UNL     1      -1.386   9.932  17.440  0.00  0.00    +0.000 A 
ENDBRANCH   4   9
BRANCH   4  15
ATOM     15  C   UNL     1      -0.089  12.448  19.729  0.00  0.00    +0.000 A 
ATOM     16  C   UNL     1       0.237  13.226  18.602  0.00  0.00    +0.000 A 
ATOM     17  C   UNL     1       0.680  14.547  18.741  0.00  0.00    +0.000 A 
ATOM     18  C   UNL     1       0.801  15.121  20.004  0.00  0.00    +0.000 A 
ATOM     19  C   UNL     1       0.473  14.377  21.131  0.00  0.00    +0.000 A 
ATOM     20  C   UNL     1       0.030  13.058  20.995  0.00  0.00    +0.000 A 
ENDBRANCH   4  15
BRANCH   7  21
ATOM     21  C   UNL     1       1.896   8.341  20.900  0.00  0.00    +0.000 C 
BRANCH  21  22
ATOM     22  C   UNL     1       1.957   7.037  20.179  0.00  0.00    +0.000 A 
ATOM     23  N   UNL     1       2.333   6.709  18.952  0.00  0.00    +0.000 NA
ATOM     24  C   UNL     1       2.018   5.365  18.864  0.00  0.00    +0.000 A 
ATOM     25  C   UNL     1       2.128   4.439  17.815  0.00  0.00    +0.000 A 
ATOM     26  C   UNL     1       1.661   3.128  18.027  0.00  0.00    +0.000 A 
ATOM     27  C   UNL     1       1.117   2.740  19.258  0.00  0.00    +0.000 A 
ATOM     28  C   UNL     1       1.023   3.643  20.321  0.00  0.00    +0.000 A 
ATOM     29  C   UNL     1       1.478   4.931  20.063  0.00  0.00    +0.000 A 
ATOM     30  O   UNL     1       1.452   5.990  20.914  0.00  0.00    +0.000 OA
ENDBRANCH  21  22
ENDBRANCH   7  21
TORSDOF 4
ENDMDL
MODEL 8
REMARK VINA RESULT:      -9.5      3.865      6.898
REMARK  Name = 
REMARK  4 active torsions:
REMARK  status: ('A' for Active; 'I' for Inactive)
REMARK    1  A    between atoms: C_4  and  C_5
REMARK    2  A    between atoms: C_4  and  C_11
REMARK    3  A    between atoms: N_19  and  C_20
REMARK    4  A    between atoms: C_20  and  C_21
REMARK                            x       y       z     vdW  Elec       q    Type
REMARK                         _______ _______ _______ _____ _____    ______ ____
ROOT
ATOM      1  O   UNL     1       1.169   8.230  21.708  0.00  0.00    +0.000 OA
ATOM      2  C   UNL     1       0.989   8.840  20.667  0.00  0.00    +0.000 C 
ATOM      3  N   UNL     1       0.144   9.913  20.564  0.00  0.00    +0.000 N 
ATOM      4  C   UNL     1       0.267  10.625  19.305  0.00  0.00    +0.000 C 
ATOM      5  C   UNL     1       1.339   9.696  18.641  0.00  0.00    +0.000 C 
ATOM      6  O   UNL     1       1.890   9.884  17.560  0.00  0.00    +0.000 OA
ATOM      7  N   UNL     1       1.621   8.656  19.485  0.00  0.00    +0.000 N 
ATOM      8  H   UNL     1      -0.386  10.235  21.360  0.00  0.00    +0.000 HD
ENDROOT
BRANCH   4   9
ATOM      9  C   UNL     1      -1.098  10.641  18.602  0.00  0.00    +0.000 A 
ATOM     10  C   UNL     1      -2.114  11.500  19.073  0.00  0.00    +0.000 A 
ATOM     11  C   UNL     1      -3.332  11.613  18.399  0.00  0.00    +0.000 A 
ATOM     12  C   UNL     1      -3.560  10.872  17.244  0.00  0.00    +0.000 A 
ATOM     13  C   UNL     1      -2.578  10.006  16.772  0.00  0.00    +0.000 A 
ATOM     14  C   UNL     1      -1.359   9.887  17.445  0.00  0.00    +0.000 A 
ENDBRANCH   4   9
BRANCH   4  15
ATOM     15  C   UNL     1       0.829  12.051  19.478  0.00  0.00    +0.000 A 
ATOM     16  C   UNL     1       1.166  12.600  20.730  0.00  0.00    +0.000 A 
ATOM     17  C   UNL     1       1.622  13.919  20.841  0.00  0.00    +0.000 A 
ATOM     18  C   UNL     1       1.757  14.715  19.706  0.00  0.00    +0.000 A 
ATOM     19  C   UNL     1       1.444  14.192  18.457  0.00  0.00    +0.000 A 
ATOM     20  C   UNL     1       0.989  12.875  18.344  0.00  0.00    +0.000 A 
ENDBRANCH   4  15
BRANCH   7  21
ATOM     21  C   UNL     1       2.739   7.749  19.304  0.00  0.00    +0.000 C 
BRANCH  21  22
ATOM     22  C   UNL     1       2.372   6.306  19.245  0.00  0.00    +0.000 A 
ATOM     23  N   UNL     1       1.863   5.473  20.139  0.00  0.00    +0.000 NA
ATOM     24  C   UNL     1       1.895   4.247  19.499  0.00  0.00    +0.000 A 
ATOM     25  C   UNL     1       1.536   2.956  19.917  0.00  0.00    +0.000 A 
ATOM     26  C   UNL     1       1.743   1.883  19.030  0.00  0.00    +0.000 A 
ATOM     27  C   UNL     1       2.273   2.089  17.751  0.00  0.00    +0.000 A 
ATOM     28  C   UNL     1       2.613   3.371  17.309  0.00  0.00    +0.000 A 
ATOM     29  C   UNL     1       2.410   4.399  18.223  0.00  0.00    +0.000 A 
ATOM     30  O   UNL     1       2.702   5.715  18.046  0.00  0.00    +0.000 OA
ENDBRANCH  21  22
ENDBRANCH   7  21
TORSDOF 4
ENDMDL
MODEL 9
REMARK VINA RESULT:      -9.4      3.136      6.044
REMARK  Name = 
REMARK  4 active torsions:
REMARK  status: ('A' for Active; 'I' for Inactive)
REMARK    1  A    between atoms: C_4  and  C_5
REMARK    2  A    between atoms: C_4  and  C_11
REMARK    3  A    between atoms: N_19  and  C_20
REMARK    4  A    between atoms: C_20  and  C_21
REMARK                            x       y       z     vdW  Elec       q    Type
REMARK                         _______ _______ _______ _____ _____    ______ ____
ROOT
ATOM      1  O   UNL     1       5.508   6.827  15.336  0.00  0.00    +0.000 OA
ATOM      2  C   UNL     1       5.241   6.574  16.499  0.00  0.00    +0.000 C 
ATOM      3  N   UNL     1       4.026   6.086  16.900  0.00  0.00    +0.000 N 
ATOM      4  C   UNL     1       4.012   5.637  18.281  0.00  0.00    +0.000 C 
ATOM      5  C   UNL     1       5.486   6.024  18.643  0.00  0.00    +0.000 C 
ATOM      6  O   UNL     1       6.058   5.783  19.703  0.00  0.00    +0.000 OA
ATOM      7  N   UNL     1       6.072   6.629  17.566  0.00  0.00    +0.000 N 
ATOM      8  H   UNL     1       3.283   5.931  16.236  0.00  0.00    +0.000 HD
ENDROOT
BRANCH   4   9
ATOM      9  C   UNL     1       2.932   6.410  19.050  0.00  0.00    +0.000 A 
ATOM     10  C   UNL     1       2.368   5.847  20.215  0.00  0.00    +0.000 A 
ATOM     11  C   UNL     1       1.457   6.563  20.993  0.00  0.00    +0.000 A 
ATOM     12  C   UNL     1       1.091   7.855  20.626  0.00  0.00    +0.000 A 
ATOM     13  C   UNL     1       1.622   8.422  19.472  0.00  0.00    +0.000 A 
ATOM     14  C   UNL     1       2.532   7.708  18.688  0.00  0.00    +0.000 A 
ENDBRANCH   4   9
BRANCH   4  15
ATOM     15  C   UNL     1       3.813   4.112  18.410  0.00  0.00    +0.000 A 
ATOM     16  C   UNL     1       4.476   3.328  19.373  0.00  0.00    +0.000 A 
ATOM     17  C   UNL     1       4.304   1.939  19.415  0.00  0.00    +0.000 A 
ATOM     18  C   UNL     1       3.462   1.305  18.505  0.00  0.00    +0.000 A 
ATOM     19  C   UNL     1       2.786   2.059  17.553  0.00  0.00    +0.000 A 
ATOM     20  C   UNL     1       2.956   3.446  17.508  0.00  0.00    +0.000 A 
ENDBRANCH   4  15
BRANCH   7  21
ATOM     21  C   UNL     1       7.495   6.891  17.462  0.00  0.00    +0.000 C 
BRANCH  21  22
ATOM     22  C   UNL     1       7.900   8.290  17.783  0.00  0.00    +0.000 A 
ATOM     23  N   UNL     1       7.734   9.439  17.147  0.00  0.00    +0.000 NA
ATOM     24  C   UNL     1       8.464  10.338  17.903  0.00  0.00    +0.000 A 
ATOM     25  C   UNL     1       8.726  11.709  17.744  0.00  0.00    +0.000 A 
ATOM     26  C   UNL     1       9.570  12.342  18.677  0.00  0.00    +0.000 A 
ATOM     27  C   UNL     1      10.121  11.637  19.754  0.00  0.00    +0.000 A 
ATOM     28  C   UNL     1       9.850  10.279  19.942  0.00  0.00    +0.000 A 
ATOM     29  C   UNL     1       9.029   9.689  18.987  0.00  0.00    +0.000 A 
ATOM     30  O   UNL     1       8.659   8.382  18.927  0.00  0.00    +0.000 OA
ENDBRANCH  21  22
ENDBRANCH   7  21
TORSDOF 4
ENDMDL
