MODEL 1
REMARK VINA RESULT:     -10.0      0.000      0.000
REMARK  Name = 
REMARK  6 active torsions:
REMARK  status: ('A' for Active; 'I' for Inactive)
REMARK    1  A    between atoms: C_2  and  C_19
REMARK    2  A    between atoms: N_3  and  C_4
REMARK    3  A    between atoms: C_4  and  C_5
REMARK    4  A    between atoms: C_9  and  C_10
REMARK    5  A    between atoms: N_30  and  C_31
REMARK    6  A    between atoms: C_31  and  C_32
REMARK                            x       y       z     vdW  Elec       q    Type
REMARK                         _______ _______ _______ _____ _____    ______ ____
ROOT
ATOM      1  C   UNL     1       0.461  12.295  19.430  0.00  0.00    +0.000 A 
ATOM      2  C   UNL     1      -0.678  12.829  18.851  0.00  0.00    +0.000 A 
ATOM      3  N   UNL     1      -1.844  13.029  19.503  0.00  0.00    +0.000 NA
ATOM      4  C   UNL     1      -1.932  12.593  20.779  0.00  0.00    +0.000 A 
ATOM      5  C   UNL     1      -0.867  11.944  21.396  0.00  0.00    +0.000 A 
ATOM      6  C   UNL     1       0.351  11.792  20.722  0.00  0.00    +0.000 A 
ATOM      7  C   UNL     1      -1.058  11.414  22.747  0.00  0.00    +0.000 A 
ATOM      8  O   UNL     1      -0.178  10.777  23.315  0.00  0.00    +0.000 OA
ATOM      9  N   UNL     1      -2.274  11.665  23.319  0.00  0.00    +0.000 N 
ATOM     10  C   UNL     1      -3.345  12.278  22.731  0.00  0.00    +0.000 A 
ATOM     11  O   UNL     1      -4.412  12.334  23.340  0.00  0.00    +0.000 OA
ATOM     12  N   UNL     1      -3.154  12.768  21.459  0.00  0.00    +0.000 N 
ATOM     13  H   UNL     1      -2.431  11.280  24.239  0.00  0.00    +0.000 HD
ENDROOT
BRANCH   1  15
ATOM     14  O   UNL     1       2.460  13.284  18.732  0.00  0.00    +0.000 OA
ATOM     15  C   UNL     1       1.750  12.284  18.714  0.00  0.00    +0.000 C 
ATOM     16  N   UNL     1       2.124  11.170  17.999  0.00  0.00    +0.000 N 
ATOM     17  H   UNL     1       3.043  11.231  17.572  0.00  0.00    +0.000 HD
BRANCH  16  18
ATOM     18  C   UNL     1       1.370   9.947  17.830  0.00  0.00    +0.000 C 
BRANCH  18  19
ATOM     19  C   UNL     1       1.797   8.826  18.723  0.00  0.00    +0.000 A 
ATOM     20  C   UNL     1       1.209   8.671  19.985  0.00  0.00    +0.000 A 
ATOM     21  C   UNL     1       1.484   7.544  20.753  0.00  0.00    +0.000 A 
ATOM     22  C   UNL     1       2.294   6.536  20.232  0.00  0.00    +0.000 A 
ATOM     23  C   UNL     1       2.842   6.657  18.947  0.00  0.00    +0.000 A 
ATOM     24  C   UNL     1       2.656   7.838  18.231  0.00  0.00    +0.000 A 
BRANCH  23  25
ATOM     25  C   UNL     1       3.620   5.519  18.400  0.00  0.00    +0.000 C 
ATOM     26  O   UNL     1       4.846   5.635  18.407  0.00  0.00    +0.000 OA
ATOM     27  N   UNL     1       2.982   4.366  17.940  0.00  0.00    +0.000 N 
ATOM     28  C   UNL     1       1.549   4.029  17.983  0.00  0.00    +0.000 C 
ATOM     29  C   UNL     1       1.306   2.628  18.562  0.00  0.00    +0.000 C 
ATOM     30  O   UNL     1       2.115   1.634  17.924  0.00  0.00    +0.000 OA
ATOM     31  C   UNL     1       3.508   1.966  18.047  0.00  0.00    +0.000 C 
ATOM     32  C   UNL     1       3.804   3.299  17.358  0.00  0.00    +0.000 C 
ENDBRANCH  23  25
ENDBRANCH  18  19
ENDBRANCH  16  18
ENDBRANCH   1  15
BRANCH  12  33
ATOM     33  C   UNL     1      -4.264  13.416  20.756  0.00  0.00    +0.000 C 
BRANCH  33  34
ATOM     34  C   UNL     1      -5.172  12.451  20.022  0.00  0.00    +0.000 A 
ATOM     35  C   UNL     1      -4.872  12.014  18.722  0.00  0.00    +0.000 A 
ATOM     36  C   UNL     1      -5.722  11.126  18.056  0.00  0.00    +0.000 A 
ATOM     37  C   UNL     1      -6.879  10.664  18.679  0.00  0.00    +0.000 A 
ATOM     38  C   UNL     1      -7.181  11.078  19.975  0.00  0.00    +0.000 A 
ATOM     39  C   UNL     1      -6.334  11.965  20.642  0.00  0.00    +0.000 A 
ENDBRANCH  33  34
ENDBRANCH  12  33
TORSDOF 6
ENDMDL
MODEL 2
REMARK VINA RESULT:      -9.5      1.772      2.817
REMARK  Name = 
REMARK  6 active torsions:
REMARK  status: ('A' for Active; 'I' for Inactive)
REMARK    1  A    between atoms: C_2  and  C_19
REMARK    2  A    between atoms: N_3  and  C_4
REMARK    3  A    between atoms: C_4  and  C_5
REMARK    4  A    between atoms: C_9  and  C_10
REMARK    5  A    between atoms: N_30  and  C_31
REMARK    6  A    between atoms: C_31  and  C_32
REMARK                            x       y       z     vdW  Elec       q    Type
REMARK                         _______ _______ _______ _____ _____    ______ ____
ROOT
ATOM      1  C   UNL     1       0.436  10.424  19.246  0.00  0.00    +0.000 A 
ATOM      2  C   UNL     1      -0.573  11.119  18.600  0.00  0.00    +0.000 A 
ATOM      3  N   UNL     1      -1.542  11.818  19.229  0.00  0.00    +0.000 NA
ATOM      4  C   UNL     1      -1.585  11.758  20.578  0.00  0.00    +0.000 A 
ATOM      5  C   UNL     1      -0.674  10.990  21.296  0.00  0.00    +0.000 A 
ATOM      6  C   UNL     1       0.356  10.313  20.631  0.00  0.00    +0.000 A 
ATOM      7  C   UNL     1      -0.831  10.894  22.748  0.00  0.00    +0.000 A 
ATOM      8  O   UNL     1      -0.099  10.181  23.426  0.00  0.00    +0.000 OA
ATOM      9  N   UNL     1      -1.843  11.636  23.289  0.00  0.00    +0.000 N 
ATOM     10  C   UNL     1      -2.767  12.380  22.608  0.00  0.00    +0.000 A 
ATOM     11  O   UNL     1      -3.688  12.906  23.230  0.00  0.00    +0.000 OA
ATOM     12  N   UNL     1      -2.611  12.459  21.243  0.00  0.00    +0.000 N 
ATOM     13  H   UNL     1      -1.983  11.556  24.285  0.00  0.00    +0.000 HD
ENDROOT
BRANCH   1  15
ATOM     14  O   UNL     1       2.001  10.430  17.512  0.00  0.00    +0.000 OA
ATOM     15  C   UNL     1       1.567   9.845  18.499  0.00  0.00    +0.000 C 
ATOM     16  N   UNL     1       2.096   8.637  18.888  0.00  0.00    +0.000 N 
ATOM     17  H   UNL     1       2.897   8.332  18.344  0.00  0.00    +0.000 HD
BRANCH  16  18
ATOM     18  C   UNL     1       1.653   7.801  19.982  0.00  0.00    +0.000 C 
BRANCH  18  19
ATOM     19  C   UNL     1       2.189   6.406  19.955  0.00  0.00    +0.000 A 
ATOM     20  C   UNL     1       1.747   5.465  20.894  0.00  0.00    +0.000 A 
ATOM     21  C   UNL     1       2.119   4.129  20.777  0.00  0.00    +0.000 A 
ATOM     22  C   UNL     1       2.877   3.718  19.682  0.00  0.00    +0.000 A 
ATOM     23  C   UNL     1       3.277   4.643  18.707  0.00  0.00    +0.000 A 
ATOM     24  C   UNL     1       2.998   5.996  18.890  0.00  0.00    +0.000 A 
BRANCH  23  25
ATOM     25  C   UNL     1       4.002   4.144  17.514  0.00  0.00    +0.000 C 
ATOM     26  O   UNL     1       3.372   3.412  16.751  0.00  0.00    +0.000 OA
ATOM     27  N   UNL     1       5.322   4.525  17.262  0.00  0.00    +0.000 N 
ATOM     28  C   UNL     1       6.160   5.483  18.004  0.00  0.00    +0.000 C 
ATOM     29  C   UNL     1       6.827   6.503  17.071  0.00  0.00    +0.000 C 
ATOM     30  O   UNL     1       7.501   5.871  15.977  0.00  0.00    +0.000 OA
ATOM     31  C   UNL     1       6.584   5.063  15.221  0.00  0.00    +0.000 C 
ATOM     32  C   UNL     1       6.003   3.952  16.097  0.00  0.00    +0.000 C 
ENDBRANCH  23  25
ENDBRANCH  18  19
ENDBRANCH  16  18
ENDBRANCH   1  15
BRANCH  12  33
ATOM     33  C   UNL     1      -3.576  13.219  20.444  0.00  0.00    +0.000 C 
BRANCH  33  34
ATOM     34  C   UNL     1      -4.750  12.396  19.956  0.00  0.00    +0.000 A 
ATOM     35  C   UNL     1      -5.860  12.151  20.780  0.00  0.00    +0.000 A 
ATOM     36  C   UNL     1      -6.935  11.386  20.316  0.00  0.00    +0.000 A 
ATOM     37  C   UNL     1      -6.914  10.858  19.027  0.00  0.00    +0.000 A 
ATOM     38  C   UNL     1      -5.826  11.108  18.193  0.00  0.00    +0.000 A 
ATOM     39  C   UNL     1      -4.752  11.871  18.654  0.00  0.00    +0.000 A 
ENDBRANCH  33  34
ENDBRANCH  12  33
TORSDOF 6
ENDMDL
MODEL 3
REMARK VINA RESULT:      -9.5      1.291      1.947
REMARK  Name = 
REMARK  6 active torsions:
REMARK  status: ('A' for Active; 'I' for Inactive)
REMARK    1  A    between atoms: C_2  and  C_19
REMARK    2  A    between atoms: N_3  and  C_4
REMARK    3  A    between atoms: C_4  and  C_5
REMARK    4  A    between atoms: C_9  and  C_10
REMARK    5  A    between atoms: N_30  and  C_31
REMARK    6  A    between atoms: C_31  and  C_32
REMARK                            x       y       z     vdW  Elec       q    Type
REMARK                         _______ _______ _______ _____ _____    ______ ____
ROOT
ATOM      1  C   UNL     1       0.570  11.901  19.213  0.00  0.00    +0.000 A 
ATOM      2  C   UNL     1      -0.550  12.490  18.650  0.00  0.00    +0.000 A 
ATOM      3  N   UNL     1      -1.677  12.791  19.330  0.00  0.00    +0.000 NA
ATOM      4  C   UNL     1      -1.753  12.405  20.623  0.00  0.00    +0.000 A 
ATOM      5  C   UNL     1      -0.714  11.707  21.230  0.00  0.00    +0.000 A 
ATOM      6  C   UNL     1       0.469  11.450  20.525  0.00  0.00    +0.000 A 
ATOM      7  C   UNL     1      -0.895  11.237  22.604  0.00  0.00    +0.000 A 
ATOM      8  O   UNL     1      -0.042  10.562  23.168  0.00  0.00    +0.000 OA
ATOM      9  N   UNL     1      -2.072  11.590  23.204  0.00  0.00    +0.000 N 
ATOM     10  C   UNL     1      -3.119  12.253  22.627  0.00  0.00    +0.000 A 
ATOM     11  O   UNL     1      -4.159  12.403  23.266  0.00  0.00    +0.000 OA
ATOM     12  N   UNL     1      -2.937  12.687  21.333  0.00  0.00    +0.000 N 
ATOM     13  H   UNL     1      -2.224  11.247  24.141  0.00  0.00    +0.000 HD
ENDROOT
BRANCH   1  15
ATOM     14  O   UNL     1       2.528  12.771  18.282  0.00  0.00    +0.000 OA
ATOM     15  C   UNL     1       1.831  11.777  18.459  0.00  0.00    +0.000 C 
ATOM     16  N   UNL     1       2.191  10.562  17.926  0.00  0.00    +0.000 N 
ATOM     17  H   UNL     1       3.093  10.556  17.459  0.00  0.00    +0.000 HD
BRANCH  16  18
ATOM     18  C   UNL     1       1.448   9.323  17.994  0.00  0.00    +0.000 C 
BRANCH  18  19
ATOM     19  C   UNL     1       2.251   8.099  17.689  0.00  0.00    +0.000 A 
ATOM     20  C   UNL     1       3.620   8.209  17.412  0.00  0.00    +0.000 A 
ATOM     21  C   UNL     1       4.403   7.066  17.285  0.00  0.00    +0.000 A 
ATOM     22  C   UNL     1       3.834   5.812  17.503  0.00  0.00    +0.000 A 
ATOM     23  C   UNL     1       2.477   5.696  17.836  0.00  0.00    +0.000 A 
ATOM     24  C   UNL     1       1.674   6.835  17.848  0.00  0.00    +0.000 A 
BRANCH  23  25
ATOM     25  C   UNL     1       1.938   4.350  18.148  0.00  0.00    +0.000 C 
ATOM     26  O   UNL     1       1.869   3.553  17.213  0.00  0.00    +0.000 OA
ATOM     27  N   UNL     1       1.569   4.008  19.451  0.00  0.00    +0.000 N 
ATOM     28  C   UNL     1       1.709   4.800  20.685  0.00  0.00    +0.000 C 
ATOM     29  C   UNL     1       2.365   3.992  21.813  0.00  0.00    +0.000 C 
ATOM     30  O   UNL     1       1.727   2.725  22.008  0.00  0.00    +0.000 OA
ATOM     31  C   UNL     1       1.754   1.956  20.794  0.00  0.00    +0.000 C 
ATOM     32  C   UNL     1       0.989   2.681  19.685  0.00  0.00    +0.000 C 
ENDBRANCH  23  25
ENDBRANCH  18  19
ENDBRANCH  16  18
ENDBRANCH   1  15
BRANCH  12  33
ATOM     33  C   UNL     1      -4.024  13.384  20.641  0.00  0.00    +0.000 C 
BRANCH  33  34
ATOM     34  C   UNL     1      -5.005  12.459  19.952  0.00  0.00    +0.000 A 
ATOM     35  C   UNL     1      -4.726  11.911  18.690  0.00  0.00    +0.000 A 
ATOM     36  C   UNL     1      -5.643  11.062  18.064  0.00  0.00    +0.000 A 
ATOM     37  C   UNL     1      -6.849  10.750  18.689  0.00  0.00    +0.000 A 
ATOM     38  C   UNL     1      -7.132  11.275  19.948  0.00  0.00    +0.000 A 
ATOM     39  C   UNL     1      -6.217  12.123  20.575  0.00  0.00    +0.000 A 
ENDBRANCH  33  34
ENDBRANCH  12  33
TORSDOF 6
ENDMDL
MODEL 4
REMARK VINA RESULT:      -9.4      1.861      2.700
REMARK  Name = 
REMARK  6 active torsions:
REMARK  status: ('A' for Active; 'I' for Inactive)
REMARK    1  A    between atoms: C_2  and  C_19
REMARK    2  A    between atoms: N_3  and  C_4
REMARK    3  A    between atoms: C_4  and  C_5
REMARK    4  A    between atoms: C_9  and  C_10
REMARK    5  A    between atoms: N_30  and  C_31
REMARK    6  A    between atoms: C_31  and  C_32
REMARK                            x       y       z     vdW  Elec       q    Type
REMARK                         _______ _______ _______ _____ _____    ______ ____
ROOT
ATOM      1  C   UNL     1       0.446  10.183  19.273  0.00  0.00    +0.000 A 
ATOM      2  C   UNL     1      -0.538  10.883  18.594  0.00  0.00    +0.000 A 
ATOM      3  N   UNL     1      -1.481  11.645  19.189  0.00  0.00    +0.000 NA
ATOM      4  C   UNL     1      -1.525  11.648  20.539  0.00  0.00    +0.000 A 
ATOM      5  C   UNL     1      -0.643  10.882  21.293  0.00  0.00    +0.000 A 
ATOM      6  C   UNL     1       0.363  10.139  20.661  0.00  0.00    +0.000 A 
ATOM      7  C   UNL     1      -0.802  10.858  22.748  0.00  0.00    +0.000 A 
ATOM      8  O   UNL     1      -0.096  10.151  23.458  0.00  0.00    +0.000 OA
ATOM      9  N   UNL     1      -1.787  11.660  23.252  0.00  0.00    +0.000 N 
ATOM     10  C   UNL     1      -2.684  12.405  22.537  0.00  0.00    +0.000 A 
ATOM     11  O   UNL     1      -3.585  12.992  23.133  0.00  0.00    +0.000 OA
ATOM     12  N   UNL     1      -2.525  12.416  21.170  0.00  0.00    +0.000 N 
ATOM     13  H   UNL     1      -1.929  11.631  24.251  0.00  0.00    +0.000 HD
ENDROOT
BRANCH   1  15
ATOM     14  O   UNL     1       1.992  10.039  17.528  0.00  0.00    +0.000 OA
ATOM     15  C   UNL     1       1.555   9.530  18.554  0.00  0.00    +0.000 C 
ATOM     16  N   UNL     1       2.059   8.337  19.016  0.00  0.00    +0.000 N 
ATOM     17  H   UNL     1       2.848   7.978  18.486  0.00  0.00    +0.000 HD
BRANCH  16  18
ATOM     18  C   UNL     1       1.609   7.584  20.166  0.00  0.00    +0.000 C 
BRANCH  18  19
ATOM     19  C   UNL     1       2.065   6.161  20.195  0.00  0.00    +0.000 A 
ATOM     20  C   UNL     1       1.151   5.136  20.473  0.00  0.00    +0.000 A 
ATOM     21  C   UNL     1       1.531   3.804  20.345  0.00  0.00    +0.000 A 
ATOM     22  C   UNL     1       2.804   3.493  19.871  0.00  0.00    +0.000 A 
ATOM     23  C   UNL     1       3.707   4.512  19.537  0.00  0.00    +0.000 A 
ATOM     24  C   UNL     1       3.360   5.841  19.776  0.00  0.00    +0.000 A 
BRANCH  23  25
ATOM     25  C   UNL     1       5.016   4.134  18.952  0.00  0.00    +0.000 C 
ATOM     26  O   UNL     1       5.499   3.065  19.324  0.00  0.00    +0.000 OA
ATOM     27  N   UNL     1       5.638   4.941  17.997  0.00  0.00    +0.000 N 
ATOM     28  C   UNL     1       5.133   6.172  17.364  0.00  0.00    +0.000 C 
ATOM     29  C   UNL     1       5.266   6.125  15.835  0.00  0.00    +0.000 C 
ATOM     30  O   UNL     1       6.588   5.762  15.421  0.00  0.00    +0.000 OA
ATOM     31  C   UNL     1       6.953   4.486  15.970  0.00  0.00    +0.000 C 
ATOM     32  C   UNL     1       6.958   4.542  17.498  0.00  0.00    +0.000 C 
ENDBRANCH  23  25
ENDBRANCH  18  19
ENDBRANCH  16  18
ENDBRANCH   1  15
BRANCH  12  33
ATOM     33  C   UNL     1      -3.462  13.173  20.336  0.00  0.00    +0.000 C 
BRANCH  33  34
ATOM     34  C   UNL     1      -4.673  12.376  19.897  0.00  0.00    +0.000 A 
ATOM     35  C   UNL     1      -4.706  11.728  18.652  0.00  0.00    +0.000 A 
ATOM     36  C   UNL     1      -5.833  10.999  18.259  0.00  0.00    +0.000 A 
ATOM     37  C   UNL     1      -6.938  10.910  19.102  0.00  0.00    +0.000 A 
ATOM     38  C   UNL     1      -6.913  11.535  20.347  0.00  0.00    +0.000 A 
ATOM     39  C   UNL     1      -5.789  12.263  20.742  0.00  0.00    +0.000 A 
ENDBRANCH  33  34
ENDBRANCH  12  33
TORSDOF 6
ENDMDL
MODEL 5
REMARK VINA RESULT:      -9.0      2.421     10.226
REMARK  Name = 
REMARK  6 active torsions:
REMARK  status: ('A' for Active; 'I' for Inactive)
REMARK    1  A    between atoms: C_2  and  C_19
REMARK    2  A    between atoms: N_3  and  C_4
REMARK    3  A    between atoms: C_4  and  C_5
REMARK    4  A    between atoms: C_9  and  C_10
REMARK    5  A    between atoms: N_30  and  C_31
REMARK    6  A    between atoms: C_31  and  C_32
REMARK                            x       y       z     vdW  Elec       q    Type
REMARK                         _______ _______ _______ _____ _____    ______ ____
ROOT
ATOM      1  C   UNL     1       1.449   7.707  20.435  0.00  0.00    +0.000 A 
ATOM      2  C   UNL     1       2.363   8.000  19.436  0.00  0.00    +0.000 A 
ATOM      3  N   UNL     1       2.990   7.074  18.679  0.00  0.00    +0.000 NA
ATOM      4  C   UNL     1       2.783   5.773  18.981  0.00  0.00    +0.000 A 
ATOM      5  C   UNL     1       1.968   5.398  20.043  0.00  0.00    +0.000 A 
ATOM      6  C   UNL     1       1.284   6.371  20.784  0.00  0.00    +0.000 A 
ATOM      7  C   UNL     1       1.858   3.977  20.375  0.00  0.00    +0.000 A 
ATOM      8  O   UNL     1       1.206   3.592  21.339  0.00  0.00    +0.000 OA
ATOM      9  N   UNL     1       2.533   3.119  19.552  0.00  0.00    +0.000 N 
ATOM     10  C   UNL     1       3.360   3.458  18.516  0.00  0.00    +0.000 A 
ATOM     11  O   UNL     1       3.985   2.573  17.935  0.00  0.00    +0.000 OA
ATOM     12  N   UNL     1       3.457   4.798  18.217  0.00  0.00    +0.000 N 
ATOM     13  H   UNL     1       2.492   2.139  19.786  0.00  0.00    +0.000 HD
ENDROOT
BRANCH   1  15
ATOM     14  O   UNL     1       0.531   8.760  22.307  0.00  0.00    +0.000 OA
ATOM     15  C   UNL     1       0.662   8.769  21.088  0.00  0.00    +0.000 C 
ATOM     16  N   UNL     1       0.050   9.734  20.323  0.00  0.00    +0.000 N 
ATOM     17  H   UNL     1      -0.436  10.450  20.854  0.00  0.00    +0.000 HD
BRANCH  16  18
ATOM     18  C   UNL     1       0.058   9.841  18.880  0.00  0.00    +0.000 C 
BRANCH  18  19
ATOM     19  C   UNL     1      -1.207  10.374  18.289  0.00  0.00    +0.000 A 
ATOM     20  C   UNL     1      -1.690   9.858  17.080  0.00  0.00    +0.000 A 
ATOM     21  C   UNL     1      -2.943  10.235  16.607  0.00  0.00    +0.000 A 
ATOM     22  C   UNL     1      -3.746  11.076  17.376  0.00  0.00    +0.000 A 
ATOM     23  C   UNL     1      -3.293  11.553  18.615  0.00  0.00    +0.000 A 
ATOM     24  C   UNL     1      -1.994  11.264  19.028  0.00  0.00    +0.000 A 
BRANCH  23  25
ATOM     25  C   UNL     1      -4.218  12.369  19.439  0.00  0.00    +0.000 C 
ATOM     26  O   UNL     1      -5.349  12.546  18.987  0.00  0.00    +0.000 OA
ATOM     27  N   UNL     1      -3.823  12.871  20.680  0.00  0.00    +0.000 N 
ATOM     28  C   UNL     1      -2.561  12.643  21.405  0.00  0.00    +0.000 C 
ATOM     29  C   UNL     1      -2.805  12.227  22.863  0.00  0.00    +0.000 C 
ATOM     30  O   UNL     1      -3.704  13.118  23.532  0.00  0.00    +0.000 OA
ATOM     31  C   UNL     1      -4.960  13.179  22.839  0.00  0.00    +0.000 C 
ATOM     32  C   UNL     1      -4.763  13.719  21.421  0.00  0.00    +0.000 C 
ENDBRANCH  23  25
ENDBRANCH  18  19
ENDBRANCH  16  18
ENDBRANCH   1  15
BRANCH  12  33
ATOM     33  C   UNL     1       4.342   5.239  17.136  0.00  0.00    +0.000 C 
BRANCH  33  34
ATOM     34  C   UNL     1       5.662   5.806  17.617  0.00  0.00    +0.000 A 
ATOM     35  C   UNL     1       6.374   5.204  18.666  0.00  0.00    +0.000 A 
ATOM     36  C   UNL     1       7.589   5.741  19.102  0.00  0.00    +0.000 A 
ATOM     37  C   UNL     1       8.106   6.885  18.496  0.00  0.00    +0.000 A 
ATOM     38  C   UNL     1       7.417   7.483  17.444  0.00  0.00    +0.000 A 
ATOM     39  C   UNL     1       6.204   6.948  17.007  0.00  0.00    +0.000 A 
ENDBRANCH  33  34
ENDBRANCH  12  33
TORSDOF 6
ENDMDL
MODEL 6
REMARK VINA RESULT:      -9.0      2.509     10.431
REMARK  Name = 
REMARK  6 active torsions:
REMARK  status: ('A' for Active; 'I' for Inactive)
REMARK    1  A    between atoms: C_2  and  C_19
REMARK    2  A    between atoms: N_3  and  C_4
REMARK    3  A    between atoms: C_4  and  C_5
REMARK    4  A    between atoms: C_9  and  C_10
REMARK    5  A    between atoms: N_30  and  C_31
REMARK    6  A    between atoms: C_31  and  C_32
REMARK                            x       y       z     vdW  Elec       q    Type
REMARK                         _______ _______ _______ _____ _____    ______ ____
ROOT
ATOM      1  C   UNL     1       1.649   7.510  20.391  0.00  0.00    +0.000 A 
ATOM      2  C   UNL     1       2.569   7.752  19.385  0.00  0.00    +0.000 A 
ATOM      3  N   UNL     1       3.121   6.795  18.609  0.00  0.00    +0.000 NA
ATOM      4  C   UNL     1       2.827   5.508  18.895  0.00  0.00    +0.000 A 
ATOM      5  C   UNL     1       2.000   5.176  19.963  0.00  0.00    +0.000 A 
ATOM      6  C   UNL     1       1.395   6.183  20.725  0.00  0.00    +0.000 A 
ATOM      7  C   UNL     1       1.795   3.761  20.277  0.00  0.00    +0.000 A 
ATOM      8  O   UNL     1       1.129   3.409  21.244  0.00  0.00    +0.000 OA
ATOM      9  N   UNL     1       2.399   2.870  19.434  0.00  0.00    +0.000 N 
ATOM     10  C   UNL     1       3.235   3.165  18.393  0.00  0.00    +0.000 A 
ATOM     11  O   UNL     1       3.789   2.247  17.792  0.00  0.00    +0.000 OA
ATOM     12  N   UNL     1       3.422   4.499  18.110  0.00  0.00    +0.000 N 
ATOM     13  H   UNL     1       2.291   1.892  19.656  0.00  0.00    +0.000 HD
ENDROOT
BRANCH   1  15
ATOM     14  O   UNL     1       0.959   8.678  22.293  0.00  0.00    +0.000 OA
ATOM     15  C   UNL     1       0.946   8.615  21.068  0.00  0.00    +0.000 C 
ATOM     16  N   UNL     1       0.249   9.538  20.325  0.00  0.00    +0.000 N 
ATOM     17  H   UNL     1      -0.169  10.288  20.867  0.00  0.00    +0.000 HD
BRANCH  16  18
ATOM     18  C   UNL     1       0.088   9.560  18.887  0.00  0.00    +0.000 C 
BRANCH  18  19
ATOM     19  C   UNL     1      -1.102  10.328  18.408  0.00  0.00    +0.000 A 
ATOM     20  C   UNL     1      -1.707   9.995  17.189  0.00  0.00    +0.000 A 
ATOM     21  C   UNL     1      -2.905  10.597  16.814  0.00  0.00    +0.000 A 
ATOM     22  C   UNL     1      -3.535  11.481  17.687  0.00  0.00    +0.000 A 
ATOM     23  C   UNL     1      -2.965  11.777  18.934  0.00  0.00    +0.000 A 
ATOM     24  C   UNL     1      -1.711  11.260  19.254  0.00  0.00    +0.000 A 
BRANCH  23  25
ATOM     25  C   UNL     1      -3.717  12.651  19.866  0.00  0.00    +0.000 C 
ATOM     26  O   UNL     1      -3.088  13.569  20.391  0.00  0.00    +0.000 OA
ATOM     27  N   UNL     1      -5.080  12.452  20.096  0.00  0.00    +0.000 N 
ATOM     28  C   UNL     1      -5.991  11.488  19.455  0.00  0.00    +0.000 C 
ATOM     29  C   UNL     1      -7.277  12.160  18.953  0.00  0.00    +0.000 C 
ATOM     30  O   UNL     1      -7.898  12.956  19.968  0.00  0.00    +0.000 OA
ATOM     31  C   UNL     1      -6.990  13.962  20.445  0.00  0.00    +0.000 C 
ATOM     32  C   UNL     1      -5.755  13.314  21.073  0.00  0.00    +0.000 C 
ENDBRANCH  23  25
ENDBRANCH  18  19
ENDBRANCH  16  18
ENDBRANCH   1  15
BRANCH  12  33
ATOM     33  C   UNL     1       4.324   4.892  17.024  0.00  0.00    +0.000 C 
BRANCH  33  34
ATOM     34  C   UNL     1       5.601   5.555  17.497  0.00  0.00    +0.000 A 
ATOM     35  C   UNL     1       6.390   4.978  18.505  0.00  0.00    +0.000 A 
ATOM     36  C   UNL     1       7.565   5.603  18.934  0.00  0.00    +0.000 A 
ATOM     37  C   UNL     1       7.965   6.809  18.362  0.00  0.00    +0.000 A 
ATOM     38  C   UNL     1       7.199   7.384  17.351  0.00  0.00    +0.000 A 
ATOM     39  C   UNL     1       6.026   6.762  16.921  0.00  0.00    +0.000 A 
ENDBRANCH  33  34
ENDBRANCH  12  33
TORSDOF 6
ENDMDL
MODEL 7
REMARK VINA RESULT:      -8.8      2.430     10.459
REMARK  Name = 
REMARK  6 active torsions:
REMARK  status: ('A' for Active; 'I' for Inactive)
REMARK    1  A    between atoms: C_2  and  C_19
REMARK    2  A    between atoms: N_3  and  C_4
REMARK    3  A    between atoms: C_4  and  C_5
REMARK    4  A    between atoms: C_9  and  C_10
REMARK    5  A    between atoms: N_30  and  C_31
REMARK    6  A    between atoms: C_31  and  C_32
REMARK                            x       y       z     vdW  Elec       q    Type
REMARK                         _______ _______ _______ _____ _____    ______ ____
ROOT
ATOM      1  C   UNL     1       1.802   7.371  20.221  0.00  0.00    +0.000 A 
ATOM      2  C   UNL     1       2.279   7.367  18.921  0.00  0.00    +0.000 A 
ATOM      3  N   UNL     1       2.604   6.253  18.231  0.00  0.00    +0.000 NA
ATOM      4  C   UNL     1       2.547   5.071  18.883  0.00  0.00    +0.000 A 
ATOM      5  C   UNL     1       2.185   5.003  20.225  0.00  0.00    +0.000 A 
ATOM      6  C   UNL     1       1.802   6.163  20.911  0.00  0.00    +0.000 A 
ATOM      7  C   UNL     1       2.233   3.704  20.898  0.00  0.00    +0.000 A 
ATOM      8  O   UNL     1       1.988   3.594  22.094  0.00  0.00    +0.000 OA
ATOM      9  N   UNL     1       2.576   2.639  20.114  0.00  0.00    +0.000 N 
ATOM     10  C   UNL     1       2.959   2.677  18.802  0.00  0.00    +0.000 A 
ATOM     11  O   UNL     1       3.344   1.643  18.260  0.00  0.00    +0.000 OA
ATOM     12  N   UNL     1       2.913   3.905  18.181  0.00  0.00    +0.000 N 
ATOM     13  H   UNL     1       2.643   1.742  20.571  0.00  0.00    +0.000 HD
ENDROOT
BRANCH   1  15
ATOM     14  O   UNL     1       1.463   8.793  22.044  0.00  0.00    +0.000 OA
ATOM     15  C   UNL     1       1.288   8.605  20.844  0.00  0.00    +0.000 C 
ATOM     16  N   UNL     1       0.584   9.510  20.086  0.00  0.00    +0.000 N 
ATOM     17  H   UNL     1       0.304  10.350  20.584  0.00  0.00    +0.000 HD
BRANCH  16  18
ATOM     18  C   UNL     1       0.243   9.399  18.685  0.00  0.00    +0.000 C 
BRANCH  18  19
ATOM     19  C   UNL     1      -0.939  10.214  18.267  0.00  0.00    +0.000 A 
ATOM     20  C   UNL     1      -1.592   9.935  17.059  0.00  0.00    +0.000 A 
ATOM     21  C   UNL     1      -2.782  10.581  16.741  0.00  0.00    +0.000 A 
ATOM     22  C   UNL     1      -3.359  11.456  17.660  0.00  0.00    +0.000 A 
ATOM     23  C   UNL     1      -2.741  11.699  18.895  0.00  0.00    +0.000 A 
ATOM     24  C   UNL     1      -1.493  11.138  19.159  0.00  0.00    +0.000 A 
BRANCH  23  25
ATOM     25  C   UNL     1      -3.438  12.565  19.876  0.00  0.00    +0.000 C 
ATOM     26  O   UNL     1      -2.762  13.441  20.416  0.00  0.00    +0.000 OA
ATOM     27  N   UNL     1      -4.801  12.407  20.135  0.00  0.00    +0.000 N 
ATOM     28  C   UNL     1      -5.761  11.499  19.484  0.00  0.00    +0.000 C 
ATOM     29  C   UNL     1      -7.034  12.234  19.040  0.00  0.00    +0.000 C 
ATOM     30  O   UNL     1      -7.601  13.015  20.098  0.00  0.00    +0.000 OA
ATOM     31  C   UNL     1      -6.645  13.970  20.585  0.00  0.00    +0.000 C 
ATOM     32  C   UNL     1      -5.420  13.257  21.158  0.00  0.00    +0.000 C 
ENDBRANCH  23  25
ENDBRANCH  18  19
ENDBRANCH  16  18
ENDBRANCH   1  15
BRANCH  12  33
ATOM     33  C   UNL     1       3.332   4.028  16.782  0.00  0.00    +0.000 C 
BRANCH  33  34
ATOM     34  C   UNL     1       4.817   4.268  16.606  0.00  0.00    +0.000 A 
ATOM     35  C   UNL     1       5.399   4.317  15.329  0.00  0.00    +0.000 A 
ATOM     36  C   UNL     1       6.772   4.535  15.182  0.00  0.00    +0.000 A 
ATOM     37  C   UNL     1       7.579   4.706  16.305  0.00  0.00    +0.000 A 
ATOM     38  C   UNL     1       7.011   4.675  17.577  0.00  0.00    +0.000 A 
ATOM     39  C   UNL     1       5.640   4.457  17.726  0.00  0.00    +0.000 A 
ENDBRANCH  33  34
ENDBRANCH  12  33
TORSDOF 6
ENDMDL
MODEL 8
REMARK VINA RESULT:      -8.7      2.200      3.160
REMARK  Name = 
REMARK  6 active torsions:
REMARK  status: ('A' for Active; 'I' for Inactive)
REMARK    1  A    between atoms: C_2  and  C_19
REMARK    2  A    between atoms: N_3  and  C_4
REMARK    3  A    between atoms: C_4  and  C_5
REMARK    4  A    between atoms: C_9  and  C_10
REMARK    5  A    between atoms: N_30  and  C_31
REMARK    6  A    between atoms: C_31  and  C_32
REMARK                            x       y       z     vdW  Elec       q    Type
REMARK                         _______ _______ _______ _____ _____    ______ ____
ROOT
ATOM      1  C   UNL     1      -0.735  11.884  20.399  0.00  0.00    +0.000 A 
ATOM      2  C   UNL     1      -1.673  12.789  20.868  0.00  0.00    +0.000 A 
ATOM      3  N   UNL     1      -2.935  12.891  20.400  0.00  0.00    +0.000 NA
ATOM      4  C   UNL     1      -3.277  12.125  19.341  0.00  0.00    +0.000 A 
ATOM      5  C   UNL     1      -2.357  11.271  18.741  0.00  0.00    +0.000 A 
ATOM      6  C   UNL     1      -1.067  11.139  19.272  0.00  0.00    +0.000 A 
ATOM      7  C   UNL     1      -2.762  10.537  17.541  0.00  0.00    +0.000 A 
ATOM      8  O   UNL     1      -1.975   9.821  16.932  0.00  0.00    +0.000 OA
ATOM      9  N   UNL     1      -4.058  10.711  17.146  0.00  0.00    +0.000 N 
ATOM     10  C   UNL     1      -4.977  11.559  17.700  0.00  0.00    +0.000 A 
ATOM     11  O   UNL     1      -6.076  11.685  17.163  0.00  0.00    +0.000 OA
ATOM     12  N   UNL     1      -4.583  12.246  18.825  0.00  0.00    +0.000 N 
ATOM     13  H   UNL     1      -4.344  10.235  16.303  0.00  0.00    +0.000 HD
ENDROOT
BRANCH   1  15
ATOM     14  O   UNL     1       1.158  12.675  21.515  0.00  0.00    +0.000 OA
ATOM     15  C   UNL     1       0.557  11.697  21.083  0.00  0.00    +0.000 C 
ATOM     16  N   UNL     1       1.097  10.437  21.193  0.00  0.00    +0.000 N 
ATOM     17  H   UNL     1       1.967  10.394  21.714  0.00  0.00    +0.000 HD
BRANCH  16  18
ATOM     18  C   UNL     1       0.544   9.203  20.680  0.00  0.00    +0.000 C 
BRANCH  18  19
ATOM     19  C   UNL     1       1.344   8.570  19.587  0.00  0.00    +0.000 A 
ATOM     20  C   UNL     1       1.671   9.305  18.441  0.00  0.00    +0.000 A 
ATOM     21  C   UNL     1       2.547   8.778  17.496  0.00  0.00    +0.000 A 
ATOM     22  C   UNL     1       3.151   7.544  17.729  0.00  0.00    +0.000 A 
ATOM     23  C   UNL     1       2.872   6.826  18.901  0.00  0.00    +0.000 A 
ATOM     24  C   UNL     1       1.909   7.306  19.787  0.00  0.00    +0.000 A 
BRANCH  23  25
ATOM     25  C   UNL     1       3.608   5.563  19.148  0.00  0.00    +0.000 C 
ATOM     26  O   UNL     1       4.691   5.659  19.727  0.00  0.00    +0.000 OA
ATOM     27  N   UNL     1       3.070   4.331  18.772  0.00  0.00    +0.000 N 
ATOM     28  C   UNL     1       1.747   4.044  18.191  0.00  0.00    +0.000 C 
ATOM     29  C   UNL     1       1.028   2.910  18.936  0.00  0.00    +0.000 C 
ATOM     30  O   UNL     1       1.858   1.753  19.083  0.00  0.00    +0.000 OA
ATOM     31  C   UNL     1       3.068   2.088  19.781  0.00  0.00    +0.000 C 
ATOM     32  C   UNL     1       3.872   3.122  18.991  0.00  0.00    +0.000 C 
ENDBRANCH  23  25
ENDBRANCH  18  19
ENDBRANCH  16  18
ENDBRANCH   1  15
BRANCH  12  33
ATOM     33  C   UNL     1      -5.505  13.190  19.461  0.00  0.00    +0.000 C 
BRANCH  33  34
ATOM     34  C   UNL     1      -6.295  12.598  20.609  0.00  0.00    +0.000 A 
ATOM     35  C   UNL     1      -6.165  13.096  21.915  0.00  0.00    +0.000 A 
ATOM     36  C   UNL     1      -6.898  12.536  22.966  0.00  0.00    +0.000 A 
ATOM     37  C   UNL     1      -7.767  11.473  22.726  0.00  0.00    +0.000 A 
ATOM     38  C   UNL     1      -7.916  10.980  21.432  0.00  0.00    +0.000 A 
ATOM     39  C   UNL     1      -7.186  11.537  20.381  0.00  0.00    +0.000 A 
ENDBRANCH  33  34
ENDBRANCH  12  33
TORSDOF 6
ENDMDL
MODEL 9
REMARK VINA RESULT:      -8.7      2.281      3.640
REMARK  Name = 
REMARK  6 active torsions:
REMARK  status: ('A' for Active; 'I' for Inactive)
REMARK    1  A    between atoms: C_2  and  C_19
REMARK    2  A    between atoms: N_3  and  C_4
REMARK    3  A    between atoms: C_4  and  C_5
REMARK    4  A    between atoms: C_9  and  C_10
REMARK    5  A    between atoms: N_30  and  C_31
REMARK    6  A    between atoms: C_31  and  C_32
REMARK                            x       y       z     vdW  Elec       q    Type
REMARK                         _______ _______ _______ _____ _____    ______ ____
ROOT
ATOM      1  C   UNL     1       0.855  10.455  19.728  0.00  0.00    +0.000 A 
ATOM      2  C   UNL     1      -0.113   9.901  20.550  0.00  0.00    +0.000 A 
ATOM      3  N   UNL     1      -0.805  10.587  21.485  0.00  0.00    +0.000 NA
ATOM      4  C   UNL     1      -0.464  11.877  21.697  0.00  0.00    +0.000 A 
ATOM      5  C   UNL     1       0.575  12.476  20.991  0.00  0.00    +0.000 A 
ATOM      6  C   UNL     1       1.247  11.764  19.989  0.00  0.00    +0.000 A 
ATOM      7  C   UNL     1       0.955  13.847  21.333  0.00  0.00    +0.000 A 
ATOM      8  O   UNL     1       1.904  14.403  20.790  0.00  0.00    +0.000 OA
ATOM      9  N   UNL     1       0.197  14.454  22.294  0.00  0.00    +0.000 N 
ATOM     10  C   UNL     1      -0.813  13.885  23.021  0.00  0.00    +0.000 A 
ATOM     11  O   UNL     1      -1.332  14.529  23.930  0.00  0.00    +0.000 OA
ATOM     12  N   UNL     1      -1.159  12.594  22.692  0.00  0.00    +0.000 N 
ATOM     13  H   UNL     1       0.466  15.389  22.562  0.00  0.00    +0.000 HD
ENDROOT
BRANCH   1  15
ATOM     14  O   UNL     1       1.418  10.181  17.478  0.00  0.00    +0.000 OA
ATOM     15  C   UNL     1       1.431   9.695  18.604  0.00  0.00    +0.000 C 
ATOM     16  N   UNL     1       1.938   8.436  18.820  0.00  0.00    +0.000 N 
ATOM     17  H   UNL     1       2.353   8.001  18.001  0.00  0.00    +0.000 HD
BRANCH  16  18
ATOM     18  C   UNL     1       1.966   7.707  20.069  0.00  0.00    +0.000 C 
BRANCH  18  19
ATOM     19  C   UNL     1       2.363   6.271  19.942  0.00  0.00    +0.000 A 
ATOM     20  C   UNL     1       1.853   5.320  20.835  0.00  0.00    +0.000 A 
ATOM     21  C   UNL     1       2.090   3.965  20.627  0.00  0.00    +0.000 A 
ATOM     22  C   UNL     1       2.778   3.553  19.488  0.00  0.00    +0.000 A 
ATOM     23  C   UNL     1       3.244   4.494  18.559  0.00  0.00    +0.000 A 
ATOM     24  C   UNL     1       3.104   5.854  18.832  0.00  0.00    +0.000 A 
BRANCH  23  25
ATOM     25  C   UNL     1       3.890   4.003  17.318  0.00  0.00    +0.000 C 
ATOM     26  O   UNL     1       3.160   3.444  16.500  0.00  0.00    +0.000 OA
ATOM     27  N   UNL     1       5.252   4.208  17.086  0.00  0.00    +0.000 N 
ATOM     28  C   UNL     1       6.221   4.961  17.900  0.00  0.00    +0.000 C 
ATOM     29  C   UNL     1       7.032   5.952  17.055  0.00  0.00    +0.000 C 
ATOM     30  O   UNL     1       7.607   5.330  15.901  0.00  0.00    +0.000 OA
ATOM     31  C   UNL     1       6.582   4.737  15.086  0.00  0.00    +0.000 C 
ATOM     32  C   UNL     1       5.843   3.648  15.866  0.00  0.00    +0.000 C 
ENDBRANCH  23  25
ENDBRANCH  18  19
ENDBRANCH  16  18
ENDBRANCH   1  15
BRANCH  12  33
ATOM     33  C   UNL     1      -2.215  11.911  23.443  0.00  0.00    +0.000 C 
BRANCH  33  34
ATOM     34  C   UNL     1      -3.608  12.431  23.152  0.00  0.00    +0.000 A 
ATOM     35  C   UNL     1      -4.036  12.669  21.837  0.00  0.00    +0.000 A 
ATOM     36  C   UNL     1      -5.323  13.153  21.584  0.00  0.00    +0.000 A 
ATOM     37  C   UNL     1      -6.197  13.405  22.641  0.00  0.00    +0.000 A 
ATOM     38  C   UNL     1      -5.789  13.158  23.950  0.00  0.00    +0.000 A 
ATOM     39  C   UNL     1      -4.504  12.675  24.204  0.00  0.00    +0.000 A 
ENDBRANCH  33  34
ENDBRANCH  12  33
TORSDOF 6
ENDMDL
