MODEL 1
REMARK VINA RESULT:      -9.2      0.000      0.000
REMARK  Name = 
REMARK  2 active torsions:
REMARK  status: ('A' for Active; 'I' for Inactive)
REMARK    1  A    between atoms: C_8  and  N_9
REMARK    2  A    between atoms: C_10  and  C_12
REMARK                            x       y       z     vdW  Elec       q    Type
REMARK                         _______ _______ _______ _____ _____    ______ ____
ROOT
ATOM      1  N   UNL     1       2.232   7.587  18.780  0.00  0.00    +0.000 N 
ATOM      2  C   UNL     1       1.879   8.788  18.183  0.00  0.00    +0.000 C 
ATOM      3  O   UNL     1       2.086   9.084  17.009  0.00  0.00    +0.000 OA
ATOM      4  H   UNL     1       1.817   7.360  19.668  0.00  0.00    +0.000 HD
ENDROOT
BRANCH   1  12
ATOM      5  O   UNL     1       7.779   5.612  14.768  0.00  0.00    +0.000 OA
ATOM      6  C   UNL     1       6.808   5.304  15.454  0.00  0.00    +0.000 C 
ATOM      7  C   UNL     1       6.477   3.863  15.838  0.00  0.00    +0.000 C 
ATOM      8  O   UNL     1       5.153   3.543  16.230  0.00  0.00    +0.000 OA
ATOM      9  C   UNL     1       4.486   4.567  16.840  0.00  0.00    +0.000 A 
ATOM     10  C   UNL     1       3.340   4.223  17.539  0.00  0.00    +0.000 A 
ATOM     11  C   UNL     1       2.588   5.214  18.169  0.00  0.00    +0.000 A 
ATOM     12  C   UNL     1       2.963   6.563  18.112  0.00  0.00    +0.000 A 
ATOM     13  C   UNL     1       4.096   6.912  17.364  0.00  0.00    +0.000 A 
ATOM     14  C   UNL     1       4.859   5.911  16.743  0.00  0.00    +0.000 A 
ATOM     15  N   UNL     1       5.989   6.257  16.001  0.00  0.00    +0.000 N 
ATOM     16  H   UNL     1       6.235   7.222  15.828  0.00  0.00    +0.000 HD
ENDBRANCH   1  12
BRANCH   2  17
ATOM     17  C   UNL     1       1.130   9.762  19.053  0.00  0.00    +0.000 A 
ATOM     18  C   UNL     1       0.846   9.333  20.293  0.00  0.00    +0.000 A 
ATOM     19  C   UNL     1       0.029  10.151  21.181  0.00  0.00    +0.000 A 
ATOM     20  C   UNL     1      -0.294   9.704  22.466  0.00  0.00    +0.000 A 
ATOM     21  C   UNL     1      -1.112  10.480  23.289  0.00  0.00    +0.000 A 
ATOM     22  C   UNL     1      -1.610  11.701  22.831  0.00  0.00    +0.000 A 
ATOM     23  C   UNL     1      -1.290  12.154  21.548  0.00  0.00    +0.000 A 
ATOM     24  C   UNL     1      -0.468  11.378  20.726  0.00  0.00    +0.000 A 
ATOM     25  C   UNL     1      -0.123  11.821  19.346  0.00  0.00    +0.000 A 
ATOM     26  O   UNL     1      -0.541  12.876  18.882  0.00  0.00    +0.000 OA
ATOM     27  N   UNL     1       0.679  10.976  18.600  0.00  0.00    +0.000 N 
ATOM     28  H   UNL     1       0.821  11.258  17.639  0.00  0.00    +0.000 HD
ENDBRANCH   2  17
TORSDOF 2
ENDMDL
MODEL 2
REMARK VINA RESULT:      -8.7      1.820      2.344
REMARK  Name = 
REMARK  2 active torsions:
REMARK  status: ('A' for Active; 'I' for Inactive)
REMARK    1  A    between atoms: C_8  and  N_9
REMARK    2  A    between atoms: C_10  and  C_12
REMARK                            x       y       z     vdW  Elec       q    Type
REMARK                         _______ _______ _______ _____ _____    ______ ____
ROOT
ATOM      1  N   UNL     1       2.294   7.610  18.854  0.00  0.00    +0.000 N 
ATOM      2  C   UNL     1       1.782   7.418  20.128  0.00  0.00    +0.000 C 
ATOM      3  O   UNL     1       1.922   6.403  20.804  0.00  0.00    +0.000 OA
ATOM      4  H   UNL     1       2.318   8.547  18.489  0.00  0.00    +0.000 HD
ENDROOT
BRANCH   1  12
ATOM      5  O   UNL     1       7.829   5.664  14.811  0.00  0.00    +0.000 OA
ATOM      6  C   UNL     1       6.830   5.355  15.456  0.00  0.00    +0.000 C 
ATOM      7  C   UNL     1       6.426   3.907  15.731  0.00  0.00    +0.000 C 
ATOM      8  O   UNL     1       5.081   3.622  16.076  0.00  0.00    +0.000 OA
ATOM      9  C   UNL     1       4.449   4.632  16.745  0.00  0.00    +0.000 A 
ATOM     10  C   UNL     1       3.274   4.293  17.397  0.00  0.00    +0.000 A 
ATOM     11  C   UNL     1       2.554   5.271  18.083  0.00  0.00    +0.000 A 
ATOM     12  C   UNL     1       2.991   6.602  18.128  0.00  0.00    +0.000 A 
ATOM     13  C   UNL     1       4.154   6.950  17.427  0.00  0.00    +0.000 A 
ATOM     14  C   UNL     1       4.884   5.960  16.750  0.00  0.00    +0.000 A 
ATOM     15  N   UNL     1       6.044   6.304  16.055  0.00  0.00    +0.000 N 
ATOM     16  H   UNL     1       6.337   7.266  15.955  0.00  0.00    +0.000 HD
ENDBRANCH   1  12
BRANCH   2  17
ATOM     17  C   UNL     1       1.051   8.591  20.728  0.00  0.00    +0.000 A 
ATOM     18  C   UNL     1       0.737   9.578  19.875  0.00  0.00    +0.000 A 
ATOM     19  C   UNL     1       0.129  10.807  20.369  0.00  0.00    +0.000 A 
ATOM     20  C   UNL     1      -0.179  11.853  19.492  0.00  0.00    +0.000 A 
ATOM     21  C   UNL     1      -0.724  13.039  19.987  0.00  0.00    +0.000 A 
ATOM     22  C   UNL     1      -0.959  13.185  21.355  0.00  0.00    +0.000 A 
ATOM     23  C   UNL     1      -0.654  12.144  22.236  0.00  0.00    +0.000 A 
ATOM     24  C   UNL     1      -0.113  10.955  21.740  0.00  0.00    +0.000 A 
ATOM     25  C   UNL     1       0.243   9.831  22.652  0.00  0.00    +0.000 A 
ATOM     26  O   UNL     1       0.074   9.905  23.864  0.00  0.00    +0.000 OA
ATOM     27  N   UNL     1       0.792   8.703  22.071  0.00  0.00    +0.000 N 
ATOM     28  H   UNL     1       1.107   7.997  22.722  0.00  0.00    +0.000 HD
ENDBRANCH   2  17
TORSDOF 2
ENDMDL
MODEL 3
REMARK VINA RESULT:      -8.7      1.467      1.955
REMARK  Name = 
REMARK  2 active torsions:
REMARK  status: ('A' for Active; 'I' for Inactive)
REMARK    1  A    between atoms: C_8  and  N_9
REMARK    2  A    between atoms: C_10  and  C_12
REMARK                            x       y       z     vdW  Elec       q    Type
REMARK                         _______ _______ _______ _____ _____    ______ ____
ROOT
ATOM      1  N   UNL     1       2.172   7.024  19.270  0.00  0.00    +0.000 N 
ATOM      2  C   UNL     1       1.755   8.286  18.878  0.00  0.00    +0.000 C 
ATOM      3  O   UNL     1       1.893   8.762  17.754  0.00  0.00    +0.000 OA
ATOM      4  H   UNL     1       1.809   6.651  20.131  0.00  0.00    +0.000 HD
ENDROOT
BRANCH   1  12
ATOM      5  O   UNL     1       7.771   5.765  15.047  0.00  0.00    +0.000 OA
ATOM      6  C   UNL     1       6.777   5.348  15.637  0.00  0.00    +0.000 C 
ATOM      7  C   UNL     1       6.409   3.868  15.715  0.00  0.00    +0.000 C 
ATOM      8  O   UNL     1       5.069   3.507  16.010  0.00  0.00    +0.000 OA
ATOM      9  C   UNL     1       4.410   4.404  16.802  0.00  0.00    +0.000 A 
ATOM     10  C   UNL     1       3.241   3.953  17.395  0.00  0.00    +0.000 A 
ATOM     11  C   UNL     1       2.494   4.814  18.198  0.00  0.00    +0.000 A 
ATOM     12  C   UNL     1       2.897   6.138  18.423  0.00  0.00    +0.000 A 
ATOM     13  C   UNL     1       4.054   6.603  17.783  0.00  0.00    +0.000 A 
ATOM     14  C   UNL     1       4.811   5.729  16.986  0.00  0.00    +0.000 A 
ATOM     15  N   UNL     1       5.966   6.190  16.351  0.00  0.00    +0.000 N 
ATOM     16  H   UNL     1       6.235   7.164  16.382  0.00  0.00    +0.000 HD
ENDBRANCH   1  12
BRANCH   2  17
ATOM     17  C   UNL     1       1.023   9.091  19.919  0.00  0.00    +0.000 A 
ATOM     18  C   UNL     1       0.197  10.038  19.446  0.00  0.00    +0.000 A 
ATOM     19  C   UNL     1      -0.477  10.948  20.364  0.00  0.00    +0.000 A 
ATOM     20  C   UNL     1      -1.320  11.953  19.881  0.00  0.00    +0.000 A 
ATOM     21  C   UNL     1      -1.925  12.843  20.771  0.00  0.00    +0.000 A 
ATOM     22  C   UNL     1      -1.688  12.732  22.142  0.00  0.00    +0.000 A 
ATOM     23  C   UNL     1      -0.847  11.728  22.631  0.00  0.00    +0.000 A 
ATOM     24  C   UNL     1      -0.245  10.836  21.740  0.00  0.00    +0.000 A 
ATOM     25  C   UNL     1       0.673   9.766  22.225  0.00  0.00    +0.000 A 
ATOM     26  O   UNL     1       0.931   9.627  23.415  0.00  0.00    +0.000 OA
ATOM     27  N   UNL     1       1.237   8.945  21.266  0.00  0.00    +0.000 N 
ATOM     28  H   UNL     1       1.924   8.289  21.615  0.00  0.00    +0.000 HD
ENDBRANCH   2  17
TORSDOF 2
ENDMDL
MODEL 4
REMARK VINA RESULT:      -8.6      1.003      1.065
REMARK  Name = 
REMARK  2 active torsions:
REMARK  status: ('A' for Active; 'I' for Inactive)
REMARK    1  A    between atoms: C_8  and  N_9
REMARK    2  A    between atoms: C_10  and  C_12
REMARK                            x       y       z     vdW  Elec       q    Type
REMARK                         _______ _______ _______ _____ _____    ______ ____
ROOT
ATOM      1  N   UNL     1       2.130   7.934  18.337  0.00  0.00    +0.000 N 
ATOM      2  C   UNL     1       1.795   8.088  19.673  0.00  0.00    +0.000 C 
ATOM      3  O   UNL     1       2.158   7.350  20.585  0.00  0.00    +0.000 OA
ATOM      4  H   UNL     1       1.974   8.710  17.716  0.00  0.00    +0.000 HD
ENDROOT
BRANCH   1  12
ATOM      5  O   UNL     1       7.805   5.473  14.800  0.00  0.00    +0.000 OA
ATOM      6  C   UNL     1       6.815   5.254  15.493  0.00  0.00    +0.000 C 
ATOM      7  C   UNL     1       6.479   3.877  16.062  0.00  0.00    +0.000 C 
ATOM      8  O   UNL     1       5.145   3.602  16.456  0.00  0.00    +0.000 OA
ATOM      9  C   UNL     1       4.455   4.695  16.899  0.00  0.00    +0.000 A 
ATOM     10  C   UNL     1       3.290   4.440  17.604  0.00  0.00    +0.000 A 
ATOM     11  C   UNL     1       2.515   5.502  18.069  0.00  0.00    +0.000 A 
ATOM     12  C   UNL     1       2.885   6.833  17.838  0.00  0.00    +0.000 A 
ATOM     13  C   UNL     1       4.039   7.086  17.083  0.00  0.00    +0.000 A 
ATOM     14  C   UNL     1       4.825   6.015  16.629  0.00  0.00    +0.000 A 
ATOM     15  N   UNL     1       5.976   6.266  15.880  0.00  0.00    +0.000 N 
ATOM     16  H   UNL     1       6.222   7.200  15.583  0.00  0.00    +0.000 HD
ENDBRANCH   1  12
BRANCH   2  17
ATOM     17  C   UNL     1       0.969   9.301  20.010  0.00  0.00    +0.000 A 
ATOM     18  C   UNL     1       0.496   9.351  21.265  0.00  0.00    +0.000 A 
ATOM     19  C   UNL     1      -0.406  10.424  21.665  0.00  0.00    +0.000 A 
ATOM     20  C   UNL     1      -0.925  10.472  22.963  0.00  0.00    +0.000 A 
ATOM     21  C   UNL     1      -1.820  11.484  23.319  0.00  0.00    +0.000 A 
ATOM     22  C   UNL     1      -2.199  12.445  22.381  0.00  0.00    +0.000 A 
ATOM     23  C   UNL     1      -1.684  12.402  21.082  0.00  0.00    +0.000 A 
ATOM     24  C   UNL     1      -0.785  11.392  20.728  0.00  0.00    +0.000 A 
ATOM     25  C   UNL     1      -0.230  11.305  19.347  0.00  0.00    +0.000 A 
ATOM     26  O   UNL     1      -0.538  12.111  18.476  0.00  0.00    +0.000 OA
ATOM     27  N   UNL     1       0.635  10.259  19.086  0.00  0.00    +0.000 N 
ATOM     28  H   UNL     1       0.922  10.172  18.120  0.00  0.00    +0.000 HD
ENDBRANCH   2  17
TORSDOF 2
ENDMDL
MODEL 5
REMARK VINA RESULT:      -8.6      2.331      9.098
REMARK  Name = 
REMARK  2 active torsions:
REMARK  status: ('A' for Active; 'I' for Inactive)
REMARK    1  A    between atoms: C_8  and  N_9
REMARK    2  A    between atoms: C_10  and  C_12
REMARK                            x       y       z     vdW  Elec       q    Type
REMARK                         _______ _______ _______ _____ _____    ______ ____
ROOT
ATOM      1  N   UNL     1       1.984   7.850  19.877  0.00  0.00    +0.000 N 
ATOM      2  C   UNL     1       2.004   6.476  20.054  0.00  0.00    +0.000 C 
ATOM      3  O   UNL     1       1.350   5.858  20.890  0.00  0.00    +0.000 OA
ATOM      4  H   UNL     1       2.372   8.225  19.029  0.00  0.00    +0.000 HD
ENDROOT
BRANCH   1  12
ATOM      5  O   UNL     1      -2.720  13.157  20.577  0.00  0.00    +0.000 OA
ATOM      6  C   UNL     1      -2.019  12.290  21.094  0.00  0.00    +0.000 C 
ATOM      7  C   UNL     1      -2.076  11.944  22.581  0.00  0.00    +0.000 C 
ATOM      8  O   UNL     1      -0.972  11.282  23.176  0.00  0.00    +0.000 OA
ATOM      9  C   UNL     1      -0.285  10.464  22.324  0.00  0.00    +0.000 A 
ATOM     10  C   UNL     1       0.572   9.548  22.913  0.00  0.00    +0.000 A 
ATOM     11  C   UNL     1       1.330   8.693  22.113  0.00  0.00    +0.000 A 
ATOM     12  C   UNL     1       1.249   8.739  20.714  0.00  0.00    +0.000 A 
ATOM     13  C   UNL     1       0.418   9.700  20.123  0.00  0.00    +0.000 A 
ATOM     14  C   UNL     1      -0.355  10.549  20.931  0.00  0.00    +0.000 A 
ATOM     15  N   UNL     1      -1.186  11.503  20.343  0.00  0.00    +0.000 N 
ATOM     16  H   UNL     1      -1.191  11.660  19.345  0.00  0.00    +0.000 HD
ENDBRANCH   1  12
BRANCH   2  17
ATOM     17  C   UNL     1       2.858   5.699  19.087  0.00  0.00    +0.000 A 
ATOM     18  C   UNL     1       3.542   6.435  18.196  0.00  0.00    +0.000 A 
ATOM     19  C   UNL     1       4.313   5.782  17.145  0.00  0.00    +0.000 A 
ATOM     20  C   UNL     1       5.009   6.539  16.197  0.00  0.00    +0.000 A 
ATOM     21  C   UNL     1       5.708   5.898  15.172  0.00  0.00    +0.000 A 
ATOM     22  C   UNL     1       5.713   4.505  15.091  0.00  0.00    +0.000 A 
ATOM     23  C   UNL     1       5.021   3.743  16.036  0.00  0.00    +0.000 A 
ATOM     24  C   UNL     1       4.323   4.385  17.064  0.00  0.00    +0.000 A 
ATOM     25  C   UNL     1       3.558   3.605  18.078  0.00  0.00    +0.000 A 
ATOM     26  O   UNL     1       3.512   2.380  18.051  0.00  0.00    +0.000 OA
ATOM     27  N   UNL     1       2.883   4.328  19.044  0.00  0.00    +0.000 N 
ATOM     28  H   UNL     1       2.300   3.778  19.661  0.00  0.00    +0.000 HD
ENDBRANCH   2  17
TORSDOF 2
ENDMDL
MODEL 6
REMARK VINA RESULT:      -8.5      6.742     10.126
REMARK  Name = 
REMARK  2 active torsions:
REMARK  status: ('A' for Active; 'I' for Inactive)
REMARK    1  A    between atoms: C_8  and  N_9
REMARK    2  A    between atoms: C_10  and  C_12
REMARK                            x       y       z     vdW  Elec       q    Type
REMARK                         _______ _______ _______ _____ _____    ______ ____
ROOT
ATOM      1  N   UNL     1       8.593  10.670  17.665  0.00  0.00    +0.000 N 
ATOM      2  C   UNL     1       8.839   9.733  18.657  0.00  0.00    +0.000 C 
ATOM      3  O   UNL     1       9.427   9.954  19.712  0.00  0.00    +0.000 OA
ATOM      4  H   UNL     1       7.914  10.444  16.959  0.00  0.00    +0.000 HD
ENDROOT
BRANCH   1  12
ATOM      5  O   UNL     1       7.294  17.634  18.426  0.00  0.00    +0.000 OA
ATOM      6  C   UNL     1       8.102  16.714  18.327  0.00  0.00    +0.000 C 
ATOM      7  C   UNL     1       9.608  16.900  18.504  0.00  0.00    +0.000 C 
ATOM      8  O   UNL     1      10.489  15.934  17.955  0.00  0.00    +0.000 OA
ATOM      9  C   UNL     1       9.972  14.671  17.902  0.00  0.00    +0.000 A 
ATOM     10  C   UNL     1      10.881  13.644  17.702  0.00  0.00    +0.000 A 
ATOM     11  C   UNL     1      10.432  12.327  17.611  0.00  0.00    +0.000 A 
ATOM     12  C   UNL     1       9.071  12.011  17.716  0.00  0.00    +0.000 A 
ATOM     13  C   UNL     1       8.150  13.056  17.871  0.00  0.00    +0.000 A 
ATOM     14  C   UNL     1       8.607  14.379  17.976  0.00  0.00    +0.000 A 
ATOM     15  N   UNL     1       7.692  15.421  18.134  0.00  0.00    +0.000 N 
ATOM     16  H   UNL     1       6.694  15.261  18.095  0.00  0.00    +0.000 HD
ENDBRANCH   1  12
BRANCH   2  17
ATOM     17  C   UNL     1       8.275   8.357  18.418  0.00  0.00    +0.000 A 
ATOM     18  C   UNL     1       7.352   8.268  17.448  0.00  0.00    +0.000 A 
ATOM     19  C   UNL     1       6.661   7.007  17.208  0.00  0.00    +0.000 A 
ATOM     20  C   UNL     1       5.679   6.910  16.216  0.00  0.00    +0.000 A 
ATOM     21  C   UNL     1       4.998   5.706  16.026  0.00  0.00    +0.000 A 
ATOM     22  C   UNL     1       5.292   4.600  16.826  0.00  0.00    +0.000 A 
ATOM     23  C   UNL     1       6.272   4.691  17.818  0.00  0.00    +0.000 A 
ATOM     24  C   UNL     1       6.957   5.896  18.005  0.00  0.00    +0.000 A 
ATOM     25  C   UNL     1       7.994   6.034  19.066  0.00  0.00    +0.000 A 
ATOM     26  O   UNL     1       8.286   5.104  19.810  0.00  0.00    +0.000 OA
ATOM     27  N   UNL     1       8.603   7.270  19.189  0.00  0.00    +0.000 N 
ATOM     28  H   UNL     1       9.234   7.360  19.974  0.00  0.00    +0.000 HD
ENDBRANCH   2  17
TORSDOF 2
ENDMDL
MODEL 7
REMARK VINA RESULT:      -8.5      1.061      1.093
REMARK  Name = 
REMARK  2 active torsions:
REMARK  status: ('A' for Active; 'I' for Inactive)
REMARK    1  A    between atoms: C_8  and  N_9
REMARK    2  A    between atoms: C_10  and  C_12
REMARK                            x       y       z     vdW  Elec       q    Type
REMARK                         _______ _______ _______ _____ _____    ______ ____
ROOT
ATOM      1  N   UNL     1       2.105   7.926  19.212  0.00  0.00    +0.000 N 
ATOM      2  C   UNL     1       1.729   8.963  18.373  0.00  0.00    +0.000 C 
ATOM      3  O   UNL     1       2.100   9.107  17.211  0.00  0.00    +0.000 OA
ATOM      4  H   UNL     1       1.572   7.779  20.052  0.00  0.00    +0.000 HD
ENDROOT
BRANCH   1  12
ATOM      5  O   UNL     1       7.383   5.711  14.969  0.00  0.00    +0.000 OA
ATOM      6  C   UNL     1       6.688   5.541  15.967  0.00  0.00    +0.000 C 
ATOM      7  C   UNL     1       6.944   4.435  16.988  0.00  0.00    +0.000 C 
ATOM      8  O   UNL     1       5.885   4.025  17.839  0.00  0.00    +0.000 OA
ATOM      9  C   UNL     1       4.991   5.015  18.135  0.00  0.00    +0.000 A 
ATOM     10  C   UNL     1       4.148   4.778  19.209  0.00  0.00    +0.000 A 
ATOM     11  C   UNL     1       3.189   5.727  19.561  0.00  0.00    +0.000 A 
ATOM     12  C   UNL     1       3.051   6.926  18.848  0.00  0.00    +0.000 A 
ATOM     13  C   UNL     1       3.873   7.140  17.733  0.00  0.00    +0.000 A 
ATOM     14  C   UNL     1       4.848   6.189  17.390  0.00  0.00    +0.000 A 
ATOM     15  N   UNL     1       5.669   6.402  16.282  0.00  0.00    +0.000 N 
ATOM     16  H   UNL     1       5.532   7.190  15.664  0.00  0.00    +0.000 HD
ENDBRANCH   1  12
BRANCH   2  17
ATOM     17  C   UNL     1       0.735   9.942  18.940  0.00  0.00    +0.000 A 
ATOM     18  C   UNL     1       0.644   9.968  20.279  0.00  0.00    +0.000 A 
ATOM     19  C   UNL     1      -0.362  10.798  20.929  0.00  0.00    +0.000 A 
ATOM     20  C   UNL     1      -0.482  10.814  22.322  0.00  0.00    +0.000 A 
ATOM     21  C   UNL     1      -1.478  11.582  22.927  0.00  0.00    +0.000 A 
ATOM     22  C   UNL     1      -2.357  12.333  22.144  0.00  0.00    +0.000 A 
ATOM     23  C   UNL     1      -2.242  12.322  20.751  0.00  0.00    +0.000 A 
ATOM     24  C   UNL     1      -1.242  11.556  20.146  0.00  0.00    +0.000 A 
ATOM     25  C   UNL     1      -1.102  11.506  18.663  0.00  0.00    +0.000 A 
ATOM     26  O   UNL     1      -1.852  12.131  17.922  0.00  0.00    +0.000 OA
ATOM     27  N   UNL     1      -0.096  10.703  18.157  0.00  0.00    +0.000 N 
ATOM     28  H   UNL     1      -0.084  10.617  17.149  0.00  0.00    +0.000 HD
ENDBRANCH   2  17
TORSDOF 2
ENDMDL
MODEL 8
REMARK VINA RESULT:      -8.4      2.069      2.706
REMARK  Name = 
REMARK  2 active torsions:
REMARK  status: ('A' for Active; 'I' for Inactive)
REMARK    1  A    between atoms: C_8  and  N_9
REMARK    2  A    between atoms: C_10  and  C_12
REMARK                            x       y       z     vdW  Elec       q    Type
REMARK                         _______ _______ _______ _____ _____    ______ ____
ROOT
ATOM      1  N   UNL     1       1.949   7.569  18.761  0.00  0.00    +0.000 N 
ATOM      2  C   UNL     1       1.875   8.850  18.238  0.00  0.00    +0.000 C 
ATOM      3  O   UNL     1       2.732   9.381  17.535  0.00  0.00    +0.000 OA
ATOM      4  H   UNL     1       1.107   7.155  19.123  0.00  0.00    +0.000 HD
ENDROOT
BRANCH   1  12
ATOM      5  O   UNL     1       7.605   5.492  14.957  0.00  0.00    +0.000 OA
ATOM      6  C   UNL     1       6.953   5.439  15.997  0.00  0.00    +0.000 C 
ATOM      7  C   UNL     1       7.428   4.699  17.246  0.00  0.00    +0.000 C 
ATOM      8  O   UNL     1       6.473   4.307  18.218  0.00  0.00    +0.000 OA
ATOM      9  C   UNL     1       5.389   5.134  18.302  0.00  0.00    +0.000 A 
ATOM     10  C   UNL     1       4.606   5.006  19.439  0.00  0.00    +0.000 A 
ATOM     11  C   UNL     1       3.467   5.796  19.590  0.00  0.00    +0.000 A 
ATOM     12  C   UNL     1       3.087   6.724  18.611  0.00  0.00    +0.000 A 
ATOM     13  C   UNL     1       3.854   6.816  17.442  0.00  0.00    +0.000 A 
ATOM     14  C   UNL     1       5.008   6.030  17.300  0.00  0.00    +0.000 A 
ATOM     15  N   UNL     1       5.775   6.124  16.137  0.00  0.00    +0.000 N 
ATOM     16  H   UNL     1       5.480   6.687  15.351  0.00  0.00    +0.000 HD
ENDBRANCH   1  12
BRANCH   2  17
ATOM     17  C   UNL     1       0.603   9.604  18.520  0.00  0.00    +0.000 A 
ATOM     18  C   UNL     1      -0.397   9.405  17.646  0.00  0.00    +0.000 A 
ATOM     19  C   UNL     1      -1.633  10.169  17.761  0.00  0.00    +0.000 A 
ATOM     20  C   UNL     1      -2.671   9.988  16.841  0.00  0.00    +0.000 A 
ATOM     21  C   UNL     1      -3.832  10.757  16.941  0.00  0.00    +0.000 A 
ATOM     22  C   UNL     1      -3.958  11.707  17.955  0.00  0.00    +0.000 A 
ATOM     23  C   UNL     1      -2.925  11.893  18.877  0.00  0.00    +0.000 A 
ATOM     24  C   UNL     1      -1.764  11.120  18.780  0.00  0.00    +0.000 A 
ATOM     25  C   UNL     1      -0.634  11.304  19.734  0.00  0.00    +0.000 A 
ATOM     26  O   UNL     1      -0.680  12.133  20.636  0.00  0.00    +0.000 OA
ATOM     27  N   UNL     1       0.480  10.509  19.545  0.00  0.00    +0.000 N 
ATOM     28  H   UNL     1       1.264  10.719  20.149  0.00  0.00    +0.000 HD
ENDBRANCH   2  17
TORSDOF 2
ENDMDL
MODEL 9
REMARK VINA RESULT:      -8.4      2.355      8.979
REMARK  Name = 
REMARK  2 active torsions:
REMARK  status: ('A' for Active; 'I' for Inactive)
REMARK    1  A    between atoms: C_8  and  N_9
REMARK    2  A    between atoms: C_10  and  C_12
REMARK                            x       y       z     vdW  Elec       q    Type
REMARK                         _______ _______ _______ _____ _____    ______ ____
ROOT
ATOM      1  N   UNL     1       1.869   8.622  18.582  0.00  0.00    +0.000 N 
ATOM      2  C   UNL     1       2.227   7.557  19.393  0.00  0.00    +0.000 C 
ATOM      3  O   UNL     1       1.686   7.261  20.456  0.00  0.00    +0.000 OA
ATOM      4  H   UNL     1       2.217   8.637  17.639  0.00  0.00    +0.000 HD
ENDROOT
BRANCH   1  12
ATOM      5  O   UNL     1      -4.379  11.744  17.170  0.00  0.00    +0.000 OA
ATOM      6  C   UNL     1      -3.431  11.573  17.932  0.00  0.00    +0.000 C 
ATOM      7  C   UNL     1      -3.386  12.134  19.352  0.00  0.00    +0.000 C 
ATOM      8  O   UNL     1      -2.131  12.283  19.994  0.00  0.00    +0.000 OA
ATOM      9  C   UNL     1      -1.193  11.368  19.607  0.00  0.00    +0.000 A 
ATOM     10  C   UNL     1      -0.082  11.245  20.426  0.00  0.00    +0.000 A 
ATOM     11  C   UNL     1       0.934  10.352  20.088  0.00  0.00    +0.000 A 
ATOM     12  C   UNL     1       0.862   9.569  18.928  0.00  0.00    +0.000 A 
ATOM     13  C   UNL     1      -0.240   9.732  18.077  0.00  0.00    +0.000 A 
ATOM     14  C   UNL     1      -1.268  10.621  18.428  0.00  0.00    +0.000 A 
ATOM     15  N   UNL     1      -2.368  10.782  17.584  0.00  0.00    +0.000 N 
ATOM     16  H   UNL     1      -2.412  10.333  16.679  0.00  0.00    +0.000 HD
ENDBRANCH   1  12
BRANCH   2  17
ATOM     17  C   UNL     1       3.331   6.675  18.874  0.00  0.00    +0.000 A 
ATOM     18  C   UNL     1       3.737   6.929  17.619  0.00  0.00    +0.000 A 
ATOM     19  C   UNL     1       4.721   6.066  16.979  0.00  0.00    +0.000 A 
ATOM     20  C   UNL     1       5.132   6.307  15.664  0.00  0.00    +0.000 A 
ATOM     21  C   UNL     1       6.045   5.447  15.051  0.00  0.00    +0.000 A 
ATOM     22  C   UNL     1       6.547   4.346  15.746  0.00  0.00    +0.000 A 
ATOM     23  C   UNL     1       6.140   4.100  17.061  0.00  0.00    +0.000 A 
ATOM     24  C   UNL     1       5.229   4.963  17.676  0.00  0.00    +0.000 A 
ATOM     25  C   UNL     1       4.759   4.721  19.069  0.00  0.00    +0.000 A 
ATOM     26  O   UNL     1       5.152   3.763  19.725  0.00  0.00    +0.000 OA
ATOM     27  N   UNL     1       3.842   5.618  19.584  0.00  0.00    +0.000 N 
ATOM     28  H   UNL     1       3.473   5.377  20.495  0.00  0.00    +0.000 HD
ENDBRANCH   2  17
TORSDOF 2
ENDMDL
