MODEL 1
REMARK VINA RESULT:      -8.4      0.000      0.000
REMARK  Name = 
REMARK  8 active torsions:
REMARK  status: ('A' for Active; 'I' for Inactive)
REMARK    1  A    between atoms: C_1  and  C_2
REMARK    2  A    between atoms: C_2  and  S_3
REMARK    3  A    between atoms: C_2  and  C_10
REMARK    4  A    between atoms: S_3  and  C_4
REMARK    5  A    between atoms: N_8  and  C_9
REMARK    6  A    between atoms: C_14  and  N_15
REMARK    7  A    between atoms: C_16  and  C_18
REMARK    8  A    between atoms: N_20  and  C_21
REMARK                            x       y       z     vdW  Elec       q    Type
REMARK                         _______ _______ _______ _____ _____    ______ ____
ROOT
ATOM      1  C   UNL     1       4.383   4.991  16.922  0.00  0.00    +0.000 A 
ATOM      2  C   UNL     1       4.951   4.113  15.984  0.00  0.00    +0.000 A 
ATOM      3  C   UNL     1       6.214   4.364  15.451  0.00  0.00    +0.000 A 
ATOM      4  C   UNL     1       6.917   5.511  15.819  0.00  0.00    +0.000 A 
ATOM      5  C   UNL     1       6.364   6.434  16.708  0.00  0.00    +0.000 A 
ATOM      6  C   UNL     1       5.109   6.151  17.276  0.00  0.00    +0.000 A 
ENDROOT
BRANCH   5   7
ATOM      7  N   UNL     1       7.010   7.648  17.063  0.00  0.00    +0.000 N 
ATOM      8  C   UNL     1       7.914   7.809  18.103  0.00  0.00    +0.000 C 
ATOM      9  O   UNL     1       8.303   6.905  18.836  0.00  0.00    +0.000 OA
ATOM     10  H   UNL     1       6.898   8.421  16.422  0.00  0.00    +0.000 HD
BRANCH   8  11
ATOM     11  C   UNL     1       8.401   9.187  18.218  0.00  0.00    +0.000 C 
ATOM     12  C   UNL     1       9.343   9.651  19.070  0.00  0.00    +0.000 C 
ATOM     13  N   UNL     1       9.211  10.891  18.678  0.00  0.00    +0.000 N 
ATOM     14  C   UNL     1       8.176  10.578  17.733  0.00  0.00    +0.000 C 
BRANCH  13  15
ATOM     15  C   UNL     1       9.739  12.109  19.133  0.00  0.00    +0.000 A 
ATOM     16  C   UNL     1      10.617  12.860  18.335  0.00  0.00    +0.000 A 
ATOM     17  C   UNL     1      11.155  14.076  18.787  0.00  0.00    +0.000 A 
ATOM     18  C   UNL     1      10.819  14.562  20.048  0.00  0.00    +0.000 A 
ATOM     19  C   UNL     1       9.946  13.838  20.856  0.00  0.00    +0.000 A 
ATOM     20  C   UNL     1       9.417  12.629  20.399  0.00  0.00    +0.000 A 
ATOM     21  F   UNL     1       8.581  11.962  21.209  0.00  0.00    +0.000 F 
ENDBRANCH  13  15
ENDBRANCH   8  11
ENDBRANCH   5   7
BRANCH   1  23
ATOM     22  C   UNL     1       2.557   3.225  17.197  0.00  0.00    +0.000 C 
ATOM     23  C   UNL     1       2.993   4.666  17.474  0.00  0.00    +0.000 C 
BRANCH  23  24
ATOM     24  S   UNL     1       2.956   5.023  19.276  0.00  0.00    +0.000 S 
BRANCH  24  25
ATOM     25  C   UNL     1       3.656   3.593  19.951  0.00  0.00    +0.000 A 
ATOM     26  N   UNL     1       4.853   3.104  19.728  0.00  0.00    +0.000 NA
ATOM     27  N   UNL     1       4.994   1.972  20.506  0.00  0.00    +0.000 NA
ATOM     28  C   UNL     1       3.873   1.803  21.172  0.00  0.00    +0.000 A 
ATOM     29  N   UNL     1       3.000   2.798  20.847  0.00  0.00    +0.000 N 
ATOM     30  C   UNL     1       1.674   2.968  21.379  0.00  0.00    +0.000 C 
ENDBRANCH  24  25
ENDBRANCH  23  24
ENDBRANCH   1  23
TORSDOF 6
ENDMDL
MODEL 2
REMARK VINA RESULT:      -8.4      0.940      1.176
REMARK  Name = 
REMARK  8 active torsions:
REMARK  status: ('A' for Active; 'I' for Inactive)
REMARK    1  A    between atoms: C_1  and  C_2
REMARK    2  A    between atoms: C_2  and  S_3
REMARK    3  A    between atoms: C_2  and  C_10
REMARK    4  A    between atoms: S_3  and  C_4
REMARK    5  A    between atoms: N_8  and  C_9
REMARK    6  A    between atoms: C_14  and  N_15
REMARK    7  A    between atoms: C_16  and  C_18
REMARK    8  A    between atoms: N_20  and  C_21
REMARK                            x       y       z     vdW  Elec       q    Type
REMARK                         _______ _______ _______ _____ _____    ______ ____
ROOT
ATOM      1  C   UNL     1       4.103   5.334  17.192  0.00  0.00    +0.000 A 
ATOM      2  C   UNL     1       4.552   4.441  16.206  0.00  0.00    +0.000 A 
ATOM      3  C   UNL     1       5.795   4.617  15.601  0.00  0.00    +0.000 A 
ATOM      4  C   UNL     1       6.596   5.706  15.945  0.00  0.00    +0.000 A 
ATOM      5  C   UNL     1       6.162   6.645  16.882  0.00  0.00    +0.000 A 
ATOM      6  C   UNL     1       4.926   6.435  17.521  0.00  0.00    +0.000 A 
ENDROOT
BRANCH   5   7
ATOM      7  N   UNL     1       6.910   7.805  17.217  0.00  0.00    +0.000 N 
ATOM      8  C   UNL     1       7.938   7.863  18.147  0.00  0.00    +0.000 C 
ATOM      9  O   UNL     1       8.363   6.900  18.779  0.00  0.00    +0.000 OA
ATOM     10  H   UNL     1       6.764   8.618  16.636  0.00  0.00    +0.000 HD
BRANCH   8  11
ATOM     11  C   UNL     1       8.509   9.207  18.272  0.00  0.00    +0.000 C 
ATOM     12  C   UNL     1       9.207   9.703  19.319  0.00  0.00    +0.000 C 
ATOM     13  N   UNL     1       9.321  10.894  18.791  0.00  0.00    +0.000 N 
ATOM     14  C   UNL     1       8.577  10.543  17.614  0.00  0.00    +0.000 C 
BRANCH  13  15
ATOM     15  C   UNL     1       9.816  12.118  19.267  0.00  0.00    +0.000 A 
ATOM     16  C   UNL     1       8.950  13.098  19.777  0.00  0.00    +0.000 A 
ATOM     17  C   UNL     1       9.436  14.328  20.247  0.00  0.00    +0.000 A 
ATOM     18  C   UNL     1      10.802  14.596  20.217  0.00  0.00    +0.000 A 
ATOM     19  C   UNL     1      11.682  13.638  19.719  0.00  0.00    +0.000 A 
ATOM     20  C   UNL     1      11.188  12.418  19.252  0.00  0.00    +0.000 A 
ATOM     21  F   UNL     1      12.069  11.522  18.780  0.00  0.00    +0.000 F 
ENDBRANCH  13  15
ENDBRANCH   8  11
ENDBRANCH   5   7
BRANCH   1  23
ATOM     22  C   UNL     1       2.118   3.744  17.434  0.00  0.00    +0.000 C 
ATOM     23  C   UNL     1       2.730   5.093  17.823  0.00  0.00    +0.000 C 
BRANCH  23  24
ATOM     24  S   UNL     1       2.864   5.243  19.649  0.00  0.00    +0.000 S 
BRANCH  24  25
ATOM     25  C   UNL     1       3.578   3.733  20.094  0.00  0.00    +0.000 A 
ATOM     26  N   UNL     1       4.749   3.262  19.734  0.00  0.00    +0.000 NA
ATOM     27  N   UNL     1       4.917   2.041  20.355  0.00  0.00    +0.000 NA
ATOM     28  C   UNL     1       3.839   1.803  21.067  0.00  0.00    +0.000 A 
ATOM     29  N   UNL     1       2.966   2.840  20.926  0.00  0.00    +0.000 N 
ATOM     30  C   UNL     1       1.680   2.957  21.561  0.00  0.00    +0.000 C 
ENDBRANCH  24  25
ENDBRANCH  23  24
ENDBRANCH   1  23
TORSDOF 6
ENDMDL
MODEL 3
REMARK VINA RESULT:      -8.0      1.788      2.301
REMARK  Name = 
REMARK  8 active torsions:
REMARK  status: ('A' for Active; 'I' for Inactive)
REMARK    1  A    between atoms: C_1  and  C_2
REMARK    2  A    between atoms: C_2  and  S_3
REMARK    3  A    between atoms: C_2  and  C_10
REMARK    4  A    between atoms: S_3  and  C_4
REMARK    5  A    between atoms: N_8  and  C_9
REMARK    6  A    between atoms: C_14  and  N_15
REMARK    7  A    between atoms: C_16  and  C_18
REMARK    8  A    between atoms: N_20  and  C_21
REMARK                            x       y       z     vdW  Elec       q    Type
REMARK                         _______ _______ _______ _____ _____    ______ ____
ROOT
ATOM      1  C   UNL     1       5.206   4.036  16.906  0.00  0.00    +0.000 A 
ATOM      2  C   UNL     1       5.458   3.531  15.620  0.00  0.00    +0.000 A 
ATOM      3  C   UNL     1       6.337   4.186  14.760  0.00  0.00    +0.000 A 
ATOM      4  C   UNL     1       6.954   5.372  15.156  0.00  0.00    +0.000 A 
ATOM      5  C   UNL     1       6.689   5.935  16.405  0.00  0.00    +0.000 A 
ATOM      6  C   UNL     1       5.835   5.244  17.285  0.00  0.00    +0.000 A 
ENDROOT
BRANCH   5   7
ATOM      7  N   UNL     1       7.239   7.174  16.828  0.00  0.00    +0.000 N 
ATOM      8  C   UNL     1       7.864   7.408  18.044  0.00  0.00    +0.000 C 
ATOM      9  O   UNL     1       8.058   6.554  18.905  0.00  0.00    +0.000 OA
ATOM     10  H   UNL     1       7.292   7.904  16.132  0.00  0.00    +0.000 HD
BRANCH   8  11
ATOM     11  C   UNL     1       8.320   8.794  18.187  0.00  0.00    +0.000 C 
ATOM     12  C   UNL     1       9.258   9.261  19.040  0.00  0.00    +0.000 C 
ATOM     13  N   UNL     1       9.093  10.506  18.678  0.00  0.00    +0.000 N 
ATOM     14  C   UNL     1       8.057  10.190  17.735  0.00  0.00    +0.000 C 
BRANCH  13  15
ATOM     15  C   UNL     1       9.596  11.726  19.156  0.00  0.00    +0.000 A 
ATOM     16  C   UNL     1       9.217  12.220  20.415  0.00  0.00    +0.000 A 
ATOM     17  C   UNL     1       9.709  13.443  20.897  0.00  0.00    +0.000 A 
ATOM     18  C   UNL     1      10.594  14.193  20.125  0.00  0.00    +0.000 A 
ATOM     19  C   UNL     1      10.987  13.721  18.876  0.00  0.00    +0.000 A 
ATOM     20  C   UNL     1      10.492  12.504  18.404  0.00  0.00    +0.000 A 
ATOM     21  F   UNL     1      10.896  12.086  17.194  0.00  0.00    +0.000 F 
ENDBRANCH  13  15
ENDBRANCH   8  11
ENDBRANCH   5   7
BRANCH   1  23
ATOM     22  C   UNL     1       4.589   3.369  19.294  0.00  0.00    +0.000 C 
ATOM     23  C   UNL     1       4.230   3.277  17.809  0.00  0.00    +0.000 C 
BRANCH  23  24
ATOM     24  S   UNL     1       2.524   3.891  17.513  0.00  0.00    +0.000 S 
BRANCH  24  25
ATOM     25  C   UNL     1       2.345   5.095  18.741  0.00  0.00    +0.000 A 
ATOM     26  N   UNL     1       2.774   6.335  18.718  0.00  0.00    +0.000 NA
ATOM     27  N   UNL     1       2.375   6.937  19.894  0.00  0.00    +0.000 NA
ATOM     28  C   UNL     1       1.723   6.041  20.600  0.00  0.00    +0.000 A 
ATOM     29  N   UNL     1       1.686   4.864  19.915  0.00  0.00    +0.000 N 
ATOM     30  C   UNL     1       1.050   3.650  20.350  0.00  0.00    +0.000 C 
ENDBRANCH  24  25
ENDBRANCH  23  24
ENDBRANCH   1  23
TORSDOF 6
ENDMDL
MODEL 4
REMARK VINA RESULT:      -7.9      1.874      2.328
REMARK  Name = 
REMARK  8 active torsions:
REMARK  status: ('A' for Active; 'I' for Inactive)
REMARK    1  A    between atoms: C_1  and  C_2
REMARK    2  A    between atoms: C_2  and  S_3
REMARK    3  A    between atoms: C_2  and  C_10
REMARK    4  A    between atoms: S_3  and  C_4
REMARK    5  A    between atoms: N_8  and  C_9
REMARK    6  A    between atoms: C_14  and  N_15
REMARK    7  A    between atoms: C_16  and  C_18
REMARK    8  A    between atoms: N_20  and  C_21
REMARK                            x       y       z     vdW  Elec       q    Type
REMARK                         _______ _______ _______ _____ _____    ______ ____
ROOT
ATOM      1  C   UNL     1       5.219   4.191  17.119  0.00  0.00    +0.000 A 
ATOM      2  C   UNL     1       5.420   3.699  15.819  0.00  0.00    +0.000 A 
ATOM      3  C   UNL     1       6.284   4.349  14.940  0.00  0.00    +0.000 A 
ATOM      4  C   UNL     1       6.936   5.519  15.332  0.00  0.00    +0.000 A 
ATOM      5  C   UNL     1       6.722   6.068  16.597  0.00  0.00    +0.000 A 
ATOM      6  C   UNL     1       5.883   5.382  17.494  0.00  0.00    +0.000 A 
ENDROOT
BRANCH   5   7
ATOM      7  N   UNL     1       7.308   7.291  17.018  0.00  0.00    +0.000 N 
ATOM      8  C   UNL     1       7.991   7.491  18.209  0.00  0.00    +0.000 C 
ATOM      9  O   UNL     1       8.209   6.619  19.044  0.00  0.00    +0.000 OA
ATOM     10  H   UNL     1       7.341   8.034  16.335  0.00  0.00    +0.000 HD
BRANCH   8  11
ATOM     11  C   UNL     1       8.472   8.868  18.358  0.00  0.00    +0.000 C 
ATOM     12  C   UNL     1       8.543   9.816  17.397  0.00  0.00    +0.000 C 
ATOM     13  N   UNL     1       9.096  10.699  18.186  0.00  0.00    +0.000 N 
ATOM     14  C   UNL     1       9.119   9.810  19.314  0.00  0.00    +0.000 C 
BRANCH  13  15
ATOM     15  C   UNL     1       9.642  11.975  17.977  0.00  0.00    +0.000 A 
ATOM     16  C   UNL     1      10.965  12.131  17.535  0.00  0.00    +0.000 A 
ATOM     17  C   UNL     1      11.521  13.404  17.330  0.00  0.00    +0.000 A 
ATOM     18  C   UNL     1      10.758  14.545  17.564  0.00  0.00    +0.000 A 
ATOM     19  C   UNL     1       9.441  14.415  17.999  0.00  0.00    +0.000 A 
ATOM     20  C   UNL     1       8.897  13.145  18.200  0.00  0.00    +0.000 A 
ATOM     21  F   UNL     1       7.626  13.065  18.621  0.00  0.00    +0.000 F 
ENDBRANCH  13  15
ENDBRANCH   8  11
ENDBRANCH   5   7
BRANCH   1  23
ATOM     22  C   UNL     1       4.595   3.605  19.526  0.00  0.00    +0.000 C 
ATOM     23  C   UNL     1       4.258   3.438  18.042  0.00  0.00    +0.000 C 
BRANCH  23  24
ATOM     24  S   UNL     1       2.536   3.980  17.701  0.00  0.00    +0.000 S 
BRANCH  24  25
ATOM     25  C   UNL     1       2.324   5.272  18.830  0.00  0.00    +0.000 A 
ATOM     26  N   UNL     1       2.713   6.519  18.705  0.00  0.00    +0.000 NA
ATOM     27  N   UNL     1       2.300   7.201  19.832  0.00  0.00    +0.000 NA
ATOM     28  C   UNL     1       1.680   6.345  20.612  0.00  0.00    +0.000 A 
ATOM     29  N   UNL     1       1.678   5.116  20.023  0.00  0.00    +0.000 N 
ATOM     30  C   UNL     1       1.082   3.921  20.559  0.00  0.00    +0.000 C 
ENDBRANCH  24  25
ENDBRANCH  23  24
ENDBRANCH   1  23
TORSDOF 6
ENDMDL
MODEL 5
REMARK VINA RESULT:      -7.9      7.800      9.320
REMARK  Name = 
REMARK  8 active torsions:
REMARK  status: ('A' for Active; 'I' for Inactive)
REMARK    1  A    between atoms: C_1  and  C_2
REMARK    2  A    between atoms: C_2  and  S_3
REMARK    3  A    between atoms: C_2  and  C_10
REMARK    4  A    between atoms: S_3  and  C_4
REMARK    5  A    between atoms: N_8  and  C_9
REMARK    6  A    between atoms: C_14  and  N_15
REMARK    7  A    between atoms: C_16  and  C_18
REMARK    8  A    between atoms: N_20  and  C_21
REMARK                            x       y       z     vdW  Elec       q    Type
REMARK                         _______ _______ _______ _____ _____    ______ ____
ROOT
ATOM      1  C   UNL     1       2.668   6.849  19.474  0.00  0.00    +0.000 A 
ATOM      2  C   UNL     1       3.023   7.243  18.174  0.00  0.00    +0.000 A 
ATOM      3  C   UNL     1       2.535   8.430  17.633  0.00  0.00    +0.000 A 
ATOM      4  C   UNL     1       1.658   9.229  18.368  0.00  0.00    +0.000 A 
ATOM      5  C   UNL     1       1.241   8.846  19.644  0.00  0.00    +0.000 A 
ATOM      6  C   UNL     1       1.773   7.669  20.199  0.00  0.00    +0.000 A 
ENDROOT
BRANCH   5   7
ATOM      7  N   UNL     1       0.299   9.589  20.404  0.00  0.00    +0.000 N 
ATOM      8  C   UNL     1       0.581  10.721  21.156  0.00  0.00    +0.000 C 
ATOM      9  O   UNL     1       1.685  11.252  21.232  0.00  0.00    +0.000 OA
ATOM     10  H   UNL     1      -0.673   9.347  20.279  0.00  0.00    +0.000 HD
BRANCH   8  11
ATOM     11  C   UNL     1      -0.603  11.257  21.833  0.00  0.00    +0.000 C 
ATOM     12  C   UNL     1      -1.360  12.307  21.445  0.00  0.00    +0.000 C 
ATOM     13  N   UNL     1      -2.138  12.248  22.494  0.00  0.00    +0.000 N 
ATOM     14  C   UNL     1      -1.431  11.136  23.067  0.00  0.00    +0.000 C 
BRANCH  13  15
ATOM     15  C   UNL     1      -3.162  13.071  22.986  0.00  0.00    +0.000 A 
ATOM     16  C   UNL     1      -4.499  12.863  22.609  0.00  0.00    +0.000 A 
ATOM     17  C   UNL     1      -5.529  13.687  23.091  0.00  0.00    +0.000 A 
ATOM     18  C   UNL     1      -5.236  14.734  23.962  0.00  0.00    +0.000 A 
ATOM     19  C   UNL     1      -3.918  14.957  24.352  0.00  0.00    +0.000 A 
ATOM     20  C   UNL     1      -2.900  14.133  23.867  0.00  0.00    +0.000 A 
ATOM     21  F   UNL     1      -1.645  14.382  24.268  0.00  0.00    +0.000 F 
ENDBRANCH  13  15
ENDBRANCH   8  11
ENDBRANCH   5   7
BRANCH   1  23
ATOM     22  C   UNL     1       2.246   4.779  20.911  0.00  0.00    +0.000 C 
ATOM     23  C   UNL     1       3.233   5.535  20.017  0.00  0.00    +0.000 C 
BRANCH  23  24
ATOM     24  S   UNL     1       3.778   4.481  18.614  0.00  0.00    +0.000 S 
BRANCH  24  25
ATOM     25  C   UNL     1       5.490   4.723  18.611  0.00  0.00    +0.000 A 
ATOM     26  N   UNL     1       6.256   5.044  19.627  0.00  0.00    +0.000 NA
ATOM     27  N   UNL     1       7.558   5.096  19.170  0.00  0.00    +0.000 NA
ATOM     28  C   UNL     1       7.541   4.812  17.886  0.00  0.00    +0.000 A 
ATOM     29  N   UNL     1       6.258   4.578  17.491  0.00  0.00    +0.000 N 
ATOM     30  C   UNL     1       5.831   4.222  16.165  0.00  0.00    +0.000 C 
ENDBRANCH  24  25
ENDBRANCH  23  24
ENDBRANCH   1  23
TORSDOF 6
ENDMDL
MODEL 6
REMARK VINA RESULT:      -7.9      1.495      1.757
REMARK  Name = 
REMARK  8 active torsions:
REMARK  status: ('A' for Active; 'I' for Inactive)
REMARK    1  A    between atoms: C_1  and  C_2
REMARK    2  A    between atoms: C_2  and  S_3
REMARK    3  A    between atoms: C_2  and  C_10
REMARK    4  A    between atoms: S_3  and  C_4
REMARK    5  A    between atoms: N_8  and  C_9
REMARK    6  A    between atoms: C_14  and  N_15
REMARK    7  A    between atoms: C_16  and  C_18
REMARK    8  A    between atoms: N_20  and  C_21
REMARK                            x       y       z     vdW  Elec       q    Type
REMARK                         _______ _______ _______ _____ _____    ______ ____
ROOT
ATOM      1  C   UNL     1       4.230   5.165  17.392  0.00  0.00    +0.000 A 
ATOM      2  C   UNL     1       4.636   4.363  16.314  0.00  0.00    +0.000 A 
ATOM      3  C   UNL     1       5.810   4.646  15.619  0.00  0.00    +0.000 A 
ATOM      4  C   UNL     1       6.582   5.755  15.968  0.00  0.00    +0.000 A 
ATOM      5  C   UNL     1       6.186   6.607  17.000  0.00  0.00    +0.000 A 
ATOM      6  C   UNL     1       5.023   6.288  17.724  0.00  0.00    +0.000 A 
ENDROOT
BRANCH   5   7
ATOM      7  N   UNL     1       6.900   7.784  17.348  0.00  0.00    +0.000 N 
ATOM      8  C   UNL     1       7.954   7.852  18.248  0.00  0.00    +0.000 C 
ATOM      9  O   UNL     1       8.432   6.888  18.838  0.00  0.00    +0.000 OA
ATOM     10  H   UNL     1       6.707   8.608  16.797  0.00  0.00    +0.000 HD
BRANCH   8  11
ATOM     11  C   UNL     1       8.478   9.213  18.399  0.00  0.00    +0.000 C 
ATOM     12  C   UNL     1       8.430  10.211  17.489  0.00  0.00    +0.000 C 
ATOM     13  N   UNL     1       9.107  11.043  18.236  0.00  0.00    +0.000 N 
ATOM     14  C   UNL     1       9.273  10.094  19.301  0.00  0.00    +0.000 C 
BRANCH  13  15
ATOM     15  C   UNL     1       9.643  12.322  18.019  0.00  0.00    +0.000 A 
ATOM     16  C   UNL     1       8.849  13.471  18.160  0.00  0.00    +0.000 A 
ATOM     17  C   UNL     1       9.375  14.754  17.936  0.00  0.00    +0.000 A 
ATOM     18  C   UNL     1      10.710  14.906  17.569  0.00  0.00    +0.000 A 
ATOM     19  C   UNL     1      11.518  13.781  17.427  0.00  0.00    +0.000 A 
ATOM     20  C   UNL     1      10.985  12.509  17.650  0.00  0.00    +0.000 A 
ATOM     21  F   UNL     1      11.798  11.452  17.502  0.00  0.00    +0.000 F 
ENDBRANCH  13  15
ENDBRANCH   8  11
ENDBRANCH   5   7
BRANCH   1  23
ATOM     22  C   UNL     1       1.710   5.543  17.562  0.00  0.00    +0.000 C 
ATOM     23  C   UNL     1       2.931   4.808  18.119  0.00  0.00    +0.000 C 
BRANCH  23  24
ATOM     24  S   UNL     1       2.680   2.989  18.056  0.00  0.00    +0.000 S 
BRANCH  24  25
ATOM     25  C   UNL     1       3.423   2.462  19.526  0.00  0.00    +0.000 A 
ATOM     26  N   UNL     1       4.669   2.089  19.706  0.00  0.00    +0.000 NA
ATOM     27  N   UNL     1       4.825   1.785  21.043  0.00  0.00    +0.000 NA
ATOM     28  C   UNL     1       3.667   1.975  21.634  0.00  0.00    +0.000 A 
ATOM     29  N   UNL     1       2.753   2.394  20.714  0.00  0.00    +0.000 N 
ATOM     30  C   UNL     1       1.377   2.722  20.974  0.00  0.00    +0.000 C 
ENDBRANCH  24  25
ENDBRANCH  23  24
ENDBRANCH   1  23
TORSDOF 6
ENDMDL
MODEL 7
REMARK VINA RESULT:      -7.9      7.843      9.220
REMARK  Name = 
REMARK  8 active torsions:
REMARK  status: ('A' for Active; 'I' for Inactive)
REMARK    1  A    between atoms: C_1  and  C_2
REMARK    2  A    between atoms: C_2  and  S_3
REMARK    3  A    between atoms: C_2  and  C_10
REMARK    4  A    between atoms: S_3  and  C_4
REMARK    5  A    between atoms: N_8  and  C_9
REMARK    6  A    between atoms: C_14  and  N_15
REMARK    7  A    between atoms: C_16  and  C_18
REMARK    8  A    between atoms: N_20  and  C_21
REMARK                            x       y       z     vdW  Elec       q    Type
REMARK                         _______ _______ _______ _____ _____    ______ ____
ROOT
ATOM      1  C   UNL     1       2.673   6.839  19.370  0.00  0.00    +0.000 A 
ATOM      2  C   UNL     1       3.031   7.236  18.071  0.00  0.00    +0.000 A 
ATOM      3  C   UNL     1       2.579   8.446  17.549  0.00  0.00    +0.000 A 
ATOM      4  C   UNL     1       1.736   9.265  18.300  0.00  0.00    +0.000 A 
ATOM      5  C   UNL     1       1.315   8.881  19.574  0.00  0.00    +0.000 A 
ATOM      6  C   UNL     1       1.811   7.679  20.112  0.00  0.00    +0.000 A 
ENDROOT
BRANCH   5   7
ATOM      7  N   UNL     1       0.405   9.646  20.351  0.00  0.00    +0.000 N 
ATOM      8  C   UNL     1       0.629  10.101  21.642  0.00  0.00    +0.000 C 
ATOM      9  O   UNL     1       1.668   9.930  22.272  0.00  0.00    +0.000 OA
ATOM     10  H   UNL     1      -0.414   9.994  19.872  0.00  0.00    +0.000 HD
BRANCH   8  11
ATOM     11  C   UNL     1      -0.506  10.859  22.177  0.00  0.00    +0.000 C 
ATOM     12  C   UNL     1      -1.005  12.023  21.706  0.00  0.00    +0.000 C 
ATOM     13  N   UNL     1      -1.896  12.128  22.656  0.00  0.00    +0.000 N 
ATOM     14  C   UNL     1      -1.479  10.917  23.305  0.00  0.00    +0.000 C 
BRANCH  13  15
ATOM     15  C   UNL     1      -2.800  13.135  23.027  0.00  0.00    +0.000 A 
ATOM     16  C   UNL     1      -2.450  14.106  23.979  0.00  0.00    +0.000 A 
ATOM     17  C   UNL     1      -3.352  15.112  24.360  0.00  0.00    +0.000 A 
ATOM     18  C   UNL     1      -4.622  15.164  23.790  0.00  0.00    +0.000 A 
ATOM     19  C   UNL     1      -4.991  14.214  22.841  0.00  0.00    +0.000 A 
ATOM     20  C   UNL     1      -4.087  13.217  22.469  0.00  0.00    +0.000 A 
ATOM     21  F   UNL     1      -4.482  12.321  21.551  0.00  0.00    +0.000 F 
ENDBRANCH  13  15
ENDBRANCH   8  11
ENDBRANCH   5   7
BRANCH   1  23
ATOM     22  C   UNL     1       2.210   4.790  20.823  0.00  0.00    +0.000 C 
ATOM     23  C   UNL     1       3.197   5.499  19.893  0.00  0.00    +0.000 C 
BRANCH  23  24
ATOM     24  S   UNL     1       3.640   4.423  18.472  0.00  0.00    +0.000 S 
BRANCH  24  25
ATOM     25  C   UNL     1       5.357   4.606  18.389  0.00  0.00    +0.000 A 
ATOM     26  N   UNL     1       6.188   4.839  19.378  0.00  0.00    +0.000 NA
ATOM     27  N   UNL     1       7.464   4.874  18.853  0.00  0.00    +0.000 NA
ATOM     28  C   UNL     1       7.369   4.670  17.559  0.00  0.00    +0.000 A 
ATOM     29  N   UNL     1       6.059   4.504  17.222  0.00  0.00    +0.000 N 
ATOM     30  C   UNL     1       5.549   4.244  15.902  0.00  0.00    +0.000 C 
ENDBRANCH  24  25
ENDBRANCH  23  24
ENDBRANCH   1  23
TORSDOF 6
ENDMDL
MODEL 8
REMARK VINA RESULT:      -7.8      2.507      3.457
REMARK  Name = 
REMARK  8 active torsions:
REMARK  status: ('A' for Active; 'I' for Inactive)
REMARK    1  A    between atoms: C_1  and  C_2
REMARK    2  A    between atoms: C_2  and  S_3
REMARK    3  A    between atoms: C_2  and  C_10
REMARK    4  A    between atoms: S_3  and  C_4
REMARK    5  A    between atoms: N_8  and  C_9
REMARK    6  A    between atoms: C_14  and  N_15
REMARK    7  A    between atoms: C_16  and  C_18
REMARK    8  A    between atoms: N_20  and  C_21
REMARK                            x       y       z     vdW  Elec       q    Type
REMARK                         _______ _______ _______ _____ _____    ______ ____
ROOT
ATOM      1  C   UNL     1       6.328   6.043  17.251  0.00  0.00    +0.000 A 
ATOM      2  C   UNL     1       7.044   5.227  18.142  0.00  0.00    +0.000 A 
ATOM      3  C   UNL     1       8.043   5.765  18.951  0.00  0.00    +0.000 A 
ATOM      4  C   UNL     1       8.367   7.119  18.862  0.00  0.00    +0.000 A 
ATOM      5  C   UNL     1       7.715   7.952  17.952  0.00  0.00    +0.000 A 
ATOM      6  C   UNL     1       6.677   7.411  17.170  0.00  0.00    +0.000 A 
ENDROOT
BRANCH   5   7
ATOM      7  N   UNL     1       8.053   9.320  17.776  0.00  0.00    +0.000 N 
ATOM      8  C   UNL     1       8.821  10.080  18.646  0.00  0.00    +0.000 C 
ATOM      9  O   UNL     1       9.342   9.654  19.672  0.00  0.00    +0.000 OA
ATOM     10  H   UNL     1       7.824   9.729  16.881  0.00  0.00    +0.000 HD
BRANCH   8  11
ATOM     11  C   UNL     1       8.988  11.463  18.188  0.00  0.00    +0.000 C 
ATOM     12  C   UNL     1       9.927  12.348  18.591  0.00  0.00    +0.000 C 
ATOM     13  N   UNL     1       9.447  13.322  17.863  0.00  0.00    +0.000 N 
ATOM     14  C   UNL     1       8.368  12.526  17.347  0.00  0.00    +0.000 C 
BRANCH  13  15
ATOM     15  C   UNL     1       9.747  14.689  17.758  0.00  0.00    +0.000 A 
ATOM     16  C   UNL     1       8.904  15.659  18.325  0.00  0.00    +0.000 A 
ATOM     17  C   UNL     1       9.193  17.029  18.218  0.00  0.00    +0.000 A 
ATOM     18  C   UNL     1      10.335  17.450  17.542  0.00  0.00    +0.000 A 
ATOM     19  C   UNL     1      11.188  16.507  16.975  0.00  0.00    +0.000 A 
ATOM     20  C   UNL     1      10.892  15.147  17.086  0.00  0.00    +0.000 A 
ATOM     21  F   UNL     1      11.740  14.271  16.525  0.00  0.00    +0.000 F 
ENDBRANCH  13  15
ENDBRANCH   8  11
ENDBRANCH   5   7
BRANCH   1  23
ATOM     22  C   UNL     1       5.588   5.396  14.894  0.00  0.00    +0.000 C 
ATOM     23  C   UNL     1       5.243   5.400  16.385  0.00  0.00    +0.000 C 
BRANCH  23  24
ATOM     24  S   UNL     1       4.921   3.693  16.983  0.00  0.00    +0.000 S 
BRANCH  24  25
ATOM     25  C   UNL     1       3.282   3.793  17.524  0.00  0.00    +0.000 A 
ATOM     26  N   UNL     1       2.210   3.327  16.927  0.00  0.00    +0.000 NA
ATOM     27  N   UNL     1       1.126   3.604  17.736  0.00  0.00    +0.000 NA
ATOM     28  C   UNL     1       1.573   4.237  18.798  0.00  0.00    +0.000 A 
ATOM     29  N   UNL     1       2.924   4.384  18.702  0.00  0.00    +0.000 N 
ATOM     30  C   UNL     1       3.779   5.012  19.674  0.00  0.00    +0.000 C 
ENDBRANCH  24  25
ENDBRANCH  23  24
ENDBRANCH   1  23
TORSDOF 6
ENDMDL
MODEL 9
REMARK VINA RESULT:      -7.8      5.880      8.214
REMARK  Name = 
REMARK  8 active torsions:
REMARK  status: ('A' for Active; 'I' for Inactive)
REMARK    1  A    between atoms: C_1  and  C_2
REMARK    2  A    between atoms: C_2  and  S_3
REMARK    3  A    between atoms: C_2  and  C_10
REMARK    4  A    between atoms: S_3  and  C_4
REMARK    5  A    between atoms: N_8  and  C_9
REMARK    6  A    between atoms: C_14  and  N_15
REMARK    7  A    between atoms: C_16  and  C_18
REMARK    8  A    between atoms: N_20  and  C_21
REMARK                            x       y       z     vdW  Elec       q    Type
REMARK                         _______ _______ _______ _____ _____    ______ ____
ROOT
ATOM      1  C   UNL     1       4.993   4.970  18.079  0.00  0.00    +0.000 A 
ATOM      2  C   UNL     1       4.737   3.756  18.737  0.00  0.00    +0.000 A 
ATOM      3  C   UNL     1       3.687   3.649  19.646  0.00  0.00    +0.000 A 
ATOM      4  C   UNL     1       2.895   4.760  19.940  0.00  0.00    +0.000 A 
ATOM      5  C   UNL     1       3.151   5.997  19.347  0.00  0.00    +0.000 A 
ATOM      6  C   UNL     1       4.184   6.086  18.397  0.00  0.00    +0.000 A 
ENDROOT
BRANCH   5   7
ATOM      7  N   UNL     1       2.418   7.172  19.663  0.00  0.00    +0.000 N 
ATOM      8  C   UNL     1       2.140   8.211  18.786  0.00  0.00    +0.000 C 
ATOM      9  O   UNL     1       2.465   8.231  17.602  0.00  0.00    +0.000 OA
ATOM     10  H   UNL     1       1.954   7.186  20.560  0.00  0.00    +0.000 HD
BRANCH   8  11
ATOM     11  C   UNL     1       1.369   9.287  19.414  0.00  0.00    +0.000 C 
ATOM     12  C   UNL     1       0.503   9.175  20.447  0.00  0.00    +0.000 C 
ATOM     13  N   UNL     1       0.168  10.439  20.417  0.00  0.00    +0.000 N 
ATOM     14  C   UNL     1       1.024  10.733  19.302  0.00  0.00    +0.000 C 
BRANCH  13  15
ATOM     15  C   UNL     1      -0.803  11.197  21.089  0.00  0.00    +0.000 A 
ATOM     16  C   UNL     1      -1.695  12.019  20.382  0.00  0.00    +0.000 A 
ATOM     17  C   UNL     1      -2.664  12.787  21.048  0.00  0.00    +0.000 A 
ATOM     18  C   UNL     1      -2.757  12.742  22.437  0.00  0.00    +0.000 A 
ATOM     19  C   UNL     1      -1.885  11.931  23.159  0.00  0.00    +0.000 A 
ATOM     20  C   UNL     1      -0.924  11.172  22.488  0.00  0.00    +0.000 A 
ATOM     21  F   UNL     1      -0.103  10.405  23.222  0.00  0.00    +0.000 F 
ENDBRANCH  13  15
ENDBRANCH   8  11
ENDBRANCH   5   7
BRANCH   1  23
ATOM     22  C   UNL     1       7.496   4.613  17.711  0.00  0.00    +0.000 C 
ATOM     23  C   UNL     1       6.160   5.031  17.091  0.00  0.00    +0.000 C 
BRANCH  23  24
ATOM     24  S   UNL     1       5.771   3.995  15.625  0.00  0.00    +0.000 S 
BRANCH  24  25
ATOM     25  C   UNL     1       6.816   4.655  14.416  0.00  0.00    +0.000 A 
ATOM     26  N   UNL     1       7.767   5.545  14.577  0.00  0.00    +0.000 NA
ATOM     27  N   UNL     1       8.363   5.747  13.348  0.00  0.00    +0.000 NA
ATOM     28  C   UNL     1       7.750   4.979  12.476  0.00  0.00    +0.000 A 
ATOM     29  N   UNL     1       6.764   4.279  13.104  0.00  0.00    +0.000 N 
ATOM     30  C   UNL     1       5.881   3.322  12.492  0.00  0.00    +0.000 C 
ENDBRANCH  24  25
ENDBRANCH  23  24
ENDBRANCH   1  23
TORSDOF 6
ENDMDL
