MODEL 1
REMARK VINA RESULT:      -9.0      0.000      0.000
REMARK  Name = 
REMARK  5 active torsions:
REMARK  status: ('A' for Active; 'I' for Inactive)
REMARK    1  A    between atoms: C_1  and  N_2
REMARK    2  A    between atoms: N_2  and  C_3
REMARK    3  A    between atoms: C_3  and  C_4
REMARK    4  A    between atoms: N_6  and  C_7
REMARK    5  A    between atoms: C_12  and  C_13
REMARK                            x       y       z     vdW  Elec       q    Type
REMARK                         _______ _______ _______ _____ _____    ______ ____
ROOT
ATOM      1  C   UNL     1       1.769   8.836  18.490  0.00  0.00    +0.000 C 
ATOM      2  O   UNL     1       2.032   9.442  17.452  0.00  0.00    +0.000 OA
ATOM      3  N   UNL     1       2.335   7.629  18.894  0.00  0.00    +0.000 N 
ATOM      4  H   UNL     1       2.264   7.389  19.876  0.00  0.00    +0.000 HD
ENDROOT
BRANCH   3   5
ATOM      5  C   UNL     1       3.229   6.863  18.098  0.00  0.00    +0.000 A 
ATOM      6  C   UNL     1       3.977   7.522  17.104  0.00  0.00    +0.000 A 
ATOM      7  C   UNL     1       4.856   6.834  16.273  0.00  0.00    +0.000 A 
ATOM      8  C   UNL     1       5.029   5.472  16.442  0.00  0.00    +0.000 A 
ATOM      9  C   UNL     1       4.284   4.797  17.411  0.00  0.00    +0.000 A 
ATOM     10  C   UNL     1       3.332   5.452  18.232  0.00  0.00    +0.000 A 
BRANCH  10  11
ATOM     11  C   UNL     1       2.498   4.617  19.142  0.00  0.00    +0.000 A 
ATOM     12  C   UNL     1       1.445   3.810  18.686  0.00  0.00    +0.000 A 
ATOM     13  C   UNL     1       0.768   2.930  19.538  0.00  0.00    +0.000 A 
ATOM     14  C   UNL     1       1.071   2.903  20.894  0.00  0.00    +0.000 A 
ATOM     15  C   UNL     1       2.041   3.763  21.397  0.00  0.00    +0.000 A 
ATOM     16  C   UNL     1       2.752   4.598  20.528  0.00  0.00    +0.000 A 
ENDBRANCH  10  11
ENDBRANCH   3   5
BRANCH   1  17
ATOM     17  C   UNL     1       0.739   9.400  19.451  0.00  0.00    +0.000 C 
BRANCH  17  19
ATOM     18  C   UNL     1       1.478   8.639  21.751  0.00  0.00    +0.000 C 
ATOM     19  N   UNL     1       1.190   9.734  20.831  0.00  0.00    +0.000 N 
ATOM     20  C   UNL     1       0.706  10.942  21.298  0.00  0.00    +0.000 C 
ATOM     21  N   UNL     1      -0.139  11.038  22.284  0.00  0.00    +0.000 NA
ATOM     22  S   UNL     1      -0.919  12.483  22.206  0.00  0.00    +0.000 S 
ATOM     23  O   UNL     1      -0.497  13.350  23.289  0.00  0.00    +0.000 OA
ATOM     24  O   UNL     1      -2.303  12.265  21.868  0.00  0.00    +0.000 OA
ATOM     25  C   UNL     1      -0.122  13.042  20.763  0.00  0.00    +0.000 A 
ATOM     26  C   UNL     1      -0.479  14.046  19.891  0.00  0.00    +0.000 A 
ATOM     27  C   UNL     1       0.347  14.251  18.780  0.00  0.00    +0.000 A 
ATOM     28  C   UNL     1       1.511  13.473  18.596  0.00  0.00    +0.000 A 
ATOM     29  C   UNL     1       1.797  12.410  19.453  0.00  0.00    +0.000 A 
ATOM     30  C   UNL     1       0.910  12.173  20.495  0.00  0.00    +0.000 A 
ENDBRANCH  17  19
ENDBRANCH   1  17
TORSDOF 4
ENDMDL
MODEL 2
REMARK VINA RESULT:      -8.7      1.968      3.620
REMARK  Name = 
REMARK  5 active torsions:
REMARK  status: ('A' for Active; 'I' for Inactive)
REMARK    1  A    between atoms: C_1  and  N_2
REMARK    2  A    between atoms: N_2  and  C_3
REMARK    3  A    between atoms: C_3  and  C_4
REMARK    4  A    between atoms: N_6  and  C_7
REMARK    5  A    between atoms: C_12  and  C_13
REMARK                            x       y       z     vdW  Elec       q    Type
REMARK                         _______ _______ _______ _____ _____    ______ ____
ROOT
ATOM      1  C   UNL     1       2.125   8.040  18.702  0.00  0.00    +0.000 C 
ATOM      2  O   UNL     1       1.705   8.187  17.556  0.00  0.00    +0.000 OA
ATOM      3  N   UNL     1       2.678   6.873  19.224  0.00  0.00    +0.000 N 
ATOM      4  H   UNL     1       3.245   6.962  20.059  0.00  0.00    +0.000 HD
ENDROOT
BRANCH   3   5
ATOM      5  C   UNL     1       2.733   5.637  18.526  0.00  0.00    +0.000 A 
ATOM      6  C   UNL     1       1.561   4.860  18.442  0.00  0.00    +0.000 A 
ATOM      7  C   UNL     1       1.545   3.630  17.791  0.00  0.00    +0.000 A 
ATOM      8  C   UNL     1       2.696   3.165  17.182  0.00  0.00    +0.000 A 
ATOM      9  C   UNL     1       3.873   3.913  17.269  0.00  0.00    +0.000 A 
ATOM     10  C   UNL     1       3.945   5.138  17.977  0.00  0.00    +0.000 A 
BRANCH  10  11
ATOM     11  C   UNL     1       5.278   5.789  18.117  0.00  0.00    +0.000 A 
ATOM     12  C   UNL     1       6.229   5.383  19.065  0.00  0.00    +0.000 A 
ATOM     13  C   UNL     1       7.523   5.915  19.086  0.00  0.00    +0.000 A 
ATOM     14  C   UNL     1       7.869   6.938  18.211  0.00  0.00    +0.000 A 
ATOM     15  C   UNL     1       6.918   7.434  17.327  0.00  0.00    +0.000 A 
ATOM     16  C   UNL     1       5.645   6.857  17.273  0.00  0.00    +0.000 A 
ENDBRANCH  10  11
ENDBRANCH   3   5
BRANCH   1  17
ATOM     17  C   UNL     1       2.054   9.196  19.683  0.00  0.00    +0.000 C 
BRANCH  17  19
ATOM     18  C   UNL     1       0.335   8.114  21.197  0.00  0.00    +0.000 C 
ATOM     19  N   UNL     1       0.833   9.312  20.528  0.00  0.00    +0.000 N 
ATOM     20  C   UNL     1      -0.037  10.306  20.117  0.00  0.00    +0.000 C 
ATOM     21  N   UNL     1      -1.221  10.062  19.635  0.00  0.00    +0.000 NA
ATOM     22  S   UNL     1      -1.732  11.348  18.746  0.00  0.00    +0.000 S 
ATOM     23  O   UNL     1      -2.818  12.034  19.420  0.00  0.00    +0.000 OA
ATOM     24  O   UNL     1      -1.778  10.982  17.353  0.00  0.00    +0.000 OA
ATOM     25  C   UNL     1      -0.299  12.309  18.976  0.00  0.00    +0.000 A 
ATOM     26  C   UNL     1       0.156  13.397  18.265  0.00  0.00    +0.000 A 
ATOM     27  C   UNL     1       1.377  13.953  18.662  0.00  0.00    +0.000 A 
ATOM     28  C   UNL     1       2.083  13.428  19.766  0.00  0.00    +0.000 A 
ATOM     29  C   UNL     1       1.634  12.274  20.410  0.00  0.00    +0.000 A 
ATOM     30  C   UNL     1       0.466  11.691  19.937  0.00  0.00    +0.000 A 
ENDBRANCH  17  19
ENDBRANCH   1  17
TORSDOF 4
ENDMDL
MODEL 3
REMARK VINA RESULT:      -8.7      2.370      4.236
REMARK  Name = 
REMARK  5 active torsions:
REMARK  status: ('A' for Active; 'I' for Inactive)
REMARK    1  A    between atoms: C_1  and  N_2
REMARK    2  A    between atoms: N_2  and  C_3
REMARK    3  A    between atoms: C_3  and  C_4
REMARK    4  A    between atoms: N_6  and  C_7
REMARK    5  A    between atoms: C_12  and  C_13
REMARK                            x       y       z     vdW  Elec       q    Type
REMARK                         _______ _______ _______ _____ _____    ______ ____
ROOT
ATOM      1  C   UNL     1       2.207   6.808  19.765  0.00  0.00    +0.000 C 
ATOM      2  O   UNL     1       1.863   6.158  20.750  0.00  0.00    +0.000 OA
ATOM      3  N   UNL     1       2.592   6.280  18.535  0.00  0.00    +0.000 N 
ATOM      4  H   UNL     1       2.564   6.900  17.734  0.00  0.00    +0.000 HD
ENDROOT
BRANCH   3   5
ATOM      5  C   UNL     1       2.749   4.891  18.279  0.00  0.00    +0.000 A 
ATOM      6  C   UNL     1       1.613   4.062  18.354  0.00  0.00    +0.000 A 
ATOM      7  C   UNL     1       1.693   2.690  18.136  0.00  0.00    +0.000 A 
ATOM      8  C   UNL     1       2.911   2.122  17.805  0.00  0.00    +0.000 A 
ATOM      9  C   UNL     1       4.052   2.924  17.741  0.00  0.00    +0.000 A 
ATOM     10  C   UNL     1       4.021   4.314  18.020  0.00  0.00    +0.000 A 
BRANCH  10  11
ATOM     11  C   UNL     1       5.315   5.051  18.051  0.00  0.00    +0.000 A 
ATOM     12  C   UNL     1       5.744   5.884  17.006  0.00  0.00    +0.000 A 
ATOM     13  C   UNL     1       6.894   6.674  17.116  0.00  0.00    +0.000 A 
ATOM     14  C   UNL     1       7.697   6.579  18.247  0.00  0.00    +0.000 A 
ATOM     15  C   UNL     1       7.355   5.688  19.258  0.00  0.00    +0.000 A 
ATOM     16  C   UNL     1       6.173   4.946  19.164  0.00  0.00    +0.000 A 
ENDBRANCH  10  11
ENDBRANCH   3   5
BRANCH   1  17
ATOM     17  C   UNL     1       2.243   8.323  19.837  0.00  0.00    +0.000 C 
BRANCH  17  19
ATOM     18  C   UNL     1       1.765   9.078  17.467  0.00  0.00    +0.000 C 
ATOM     19  N   UNL     1       1.393   9.082  18.878  0.00  0.00    +0.000 N 
ATOM     20  C   UNL     1       0.760  10.176  19.439  0.00  0.00    +0.000 C 
ATOM     21  N   UNL     1       1.037  11.405  19.113  0.00  0.00    +0.000 NA
ATOM     22  S   UNL     1       0.558  12.419  20.316  0.00  0.00    +0.000 S 
ATOM     23  O   UNL     1      -0.582  13.209  19.893  0.00  0.00    +0.000 OA
ATOM     24  O   UNL     1       1.717  12.990  20.953  0.00  0.00    +0.000 OA
ATOM     25  C   UNL     1      -0.046  11.174  21.372  0.00  0.00    +0.000 A 
ATOM     26  C   UNL     1      -0.318  11.219  22.722  0.00  0.00    +0.000 A 
ATOM     27  C   UNL     1      -0.765  10.037  23.322  0.00  0.00    +0.000 A 
ATOM     28  C   UNL     1      -0.956   8.867  22.554  0.00  0.00    +0.000 A 
ATOM     29  C   UNL     1      -0.592   8.836  21.208  0.00  0.00    +0.000 A 
ATOM     30  C   UNL     1      -0.065   9.998  20.660  0.00  0.00    +0.000 A 
ENDBRANCH  17  19
ENDBRANCH   1  17
TORSDOF 4
ENDMDL
MODEL 4
REMARK VINA RESULT:      -8.5      2.400      4.435
REMARK  Name = 
REMARK  5 active torsions:
REMARK  status: ('A' for Active; 'I' for Inactive)
REMARK    1  A    between atoms: C_1  and  N_2
REMARK    2  A    between atoms: N_2  and  C_3
REMARK    3  A    between atoms: C_3  and  C_4
REMARK    4  A    between atoms: N_6  and  C_7
REMARK    5  A    between atoms: C_12  and  C_13
REMARK                            x       y       z     vdW  Elec       q    Type
REMARK                         _______ _______ _______ _____ _____    ______ ____
ROOT
ATOM      1  C   UNL     1       2.146   6.537  19.869  0.00  0.00    +0.000 C 
ATOM      2  O   UNL     1       1.775   6.012  20.917  0.00  0.00    +0.000 OA
ATOM      3  N   UNL     1       2.399   5.874  18.670  0.00  0.00    +0.000 N 
ATOM      4  H   UNL     1       2.407   6.432  17.824  0.00  0.00    +0.000 HD
ENDROOT
BRANCH   3   5
ATOM      5  C   UNL     1       2.368   4.461  18.520  0.00  0.00    +0.000 A 
ATOM      6  C   UNL     1       1.243   3.760  18.996  0.00  0.00    +0.000 A 
ATOM      7  C   UNL     1       1.151   2.375  18.902  0.00  0.00    +0.000 A 
ATOM      8  C   UNL     1       2.173   1.663  18.298  0.00  0.00    +0.000 A 
ATOM      9  C   UNL     1       3.305   2.338  17.836  0.00  0.00    +0.000 A 
ATOM     10  C   UNL     1       3.462   3.740  17.972  0.00  0.00    +0.000 A 
BRANCH  10  11
ATOM     11  C   UNL     1       4.762   4.342  17.562  0.00  0.00    +0.000 A 
ATOM     12  C   UNL     1       5.800   4.606  18.469  0.00  0.00    +0.000 A 
ATOM     13  C   UNL     1       7.060   5.041  18.042  0.00  0.00    +0.000 A 
ATOM     14  C   UNL     1       7.284   5.310  16.697  0.00  0.00    +0.000 A 
ATOM     15  C   UNL     1       6.247   5.155  15.785  0.00  0.00    +0.000 A 
ATOM     16  C   UNL     1       5.008   4.665  16.213  0.00  0.00    +0.000 A 
ENDBRANCH  10  11
ENDBRANCH   3   5
BRANCH   1  17
ATOM     17  C   UNL     1       2.374   8.037  19.818  0.00  0.00    +0.000 C 
BRANCH  17  19
ATOM     18  C   UNL     1       1.989   8.793  17.431  0.00  0.00    +0.000 C 
ATOM     19  N   UNL     1       1.582   8.824  18.832  0.00  0.00    +0.000 N 
ATOM     20  C   UNL     1       0.982   9.948  19.370  0.00  0.00    +0.000 C 
ATOM     21  N   UNL     1       1.320  11.162  19.042  0.00  0.00    +0.000 NA
ATOM     22  S   UNL     1       0.855  12.204  20.226  0.00  0.00    +0.000 S 
ATOM     23  O   UNL     1      -0.239  13.039  19.769  0.00  0.00    +0.000 OA
ATOM     24  O   UNL     1       2.021  12.730  20.889  0.00  0.00    +0.000 OA
ATOM     25  C   UNL     1       0.172  10.995  21.275  0.00  0.00    +0.000 A 
ATOM     26  C   UNL     1      -0.131  11.062  22.617  0.00  0.00    +0.000 A 
ATOM     27  C   UNL     1      -0.644   9.904  23.213  0.00  0.00    +0.000 A 
ATOM     28  C   UNL     1      -0.866   8.738  22.449  0.00  0.00    +0.000 A 
ATOM     29  C   UNL     1      -0.469   8.680  21.112  0.00  0.00    +0.000 A 
ATOM     30  C   UNL     1       0.120   9.815  20.571  0.00  0.00    +0.000 A 
ENDBRANCH  17  19
ENDBRANCH   1  17
TORSDOF 4
ENDMDL
MODEL 5
REMARK VINA RESULT:      -8.4      4.834      8.283
REMARK  Name = 
REMARK  5 active torsions:
REMARK  status: ('A' for Active; 'I' for Inactive)
REMARK    1  A    between atoms: C_1  and  N_2
REMARK    2  A    between atoms: N_2  and  C_3
REMARK    3  A    between atoms: C_3  and  C_4
REMARK    4  A    between atoms: N_6  and  C_7
REMARK    5  A    between atoms: C_12  and  C_13
REMARK                            x       y       z     vdW  Elec       q    Type
REMARK                         _______ _______ _______ _____ _____    ______ ____
ROOT
ATOM      1  C   UNL     1      -3.997  12.982  21.579  0.00  0.00    +0.000 C 
ATOM      2  O   UNL     1      -3.625  14.078  21.164  0.00  0.00    +0.000 OA
ATOM      3  N   UNL     1      -4.972  12.177  20.994  0.00  0.00    +0.000 N 
ATOM      4  H   UNL     1      -4.978  11.196  21.249  0.00  0.00    +0.000 HD
ENDROOT
BRANCH   3   5
ATOM      5  C   UNL     1      -5.763  12.567  19.880  0.00  0.00    +0.000 A 
ATOM      6  C   UNL     1      -7.014  13.166  20.121  0.00  0.00    +0.000 A 
ATOM      7  C   UNL     1      -7.851  13.555  19.079  0.00  0.00    +0.000 A 
ATOM      8  C   UNL     1      -7.437  13.383  17.771  0.00  0.00    +0.000 A 
ATOM      9  C   UNL     1      -6.207  12.775  17.511  0.00  0.00    +0.000 A 
ATOM     10  C   UNL     1      -5.356  12.307  18.543  0.00  0.00    +0.000 A 
BRANCH  10  11
ATOM     11  C   UNL     1      -4.128  11.558  18.155  0.00  0.00    +0.000 A 
ATOM     12  C   UNL     1      -2.837  12.090  18.289  0.00  0.00    +0.000 A 
ATOM     13  C   UNL     1      -1.693  11.319  18.049  0.00  0.00    +0.000 A 
ATOM     14  C   UNL     1      -1.818  10.017  17.579  0.00  0.00    +0.000 A 
ATOM     15  C   UNL     1      -3.083   9.493  17.339  0.00  0.00    +0.000 A 
ATOM     16  C   UNL     1      -4.221  10.251  17.636  0.00  0.00    +0.000 A 
ENDBRANCH  10  11
ENDBRANCH   3   5
BRANCH   1  17
ATOM     17  C   UNL     1      -3.381  12.407  22.841  0.00  0.00    +0.000 C 
BRANCH  17  19
ATOM     18  C   UNL     1      -2.554  14.389  24.184  0.00  0.00    +0.000 C 
ATOM     19  N   UNL     1      -2.254  13.156  23.464  0.00  0.00    +0.000 N 
ATOM     20  C   UNL     1      -1.048  12.995  22.807  0.00  0.00    +0.000 C 
ATOM     21  N   UNL     1      -0.445  13.962  22.177  0.00  0.00    +0.000 NA
ATOM     22  S   UNL     1       0.601  13.336  21.073  0.00  0.00    +0.000 S 
ATOM     23  O   UNL     1       1.973  13.567  21.482  0.00  0.00    +0.000 OA
ATOM     24  O   UNL     1       0.119  13.613  19.744  0.00  0.00    +0.000 OA
ATOM     25  C   UNL     1       0.242  11.666  21.409  0.00  0.00    +0.000 A 
ATOM     26  C   UNL     1       0.492  10.542  20.655  0.00  0.00    +0.000 A 
ATOM     27  C   UNL     1       0.052   9.317  21.170  0.00  0.00    +0.000 A 
ATOM     28  C   UNL     1      -0.590   9.253  22.426  0.00  0.00    +0.000 A 
ATOM     29  C   UNL     1      -0.901  10.420  23.123  0.00  0.00    +0.000 A 
ATOM     30  C   UNL     1      -0.533  11.628  22.545  0.00  0.00    +0.000 A 
ENDBRANCH  17  19
ENDBRANCH   1  17
TORSDOF 4
ENDMDL
MODEL 6
REMARK VINA RESULT:      -8.2      4.983      7.139
REMARK  Name = 
REMARK  5 active torsions:
REMARK  status: ('A' for Active; 'I' for Inactive)
REMARK    1  A    between atoms: C_1  and  N_2
REMARK    2  A    between atoms: N_2  and  C_3
REMARK    3  A    between atoms: C_3  and  C_4
REMARK    4  A    between atoms: N_6  and  C_7
REMARK    5  A    between atoms: C_12  and  C_13
REMARK                            x       y       z     vdW  Elec       q    Type
REMARK                         _______ _______ _______ _____ _____    ______ ____
ROOT
ATOM      1  C   UNL     1      -2.687  11.203  18.682  0.00  0.00    +0.000 C 
ATOM      2  O   UNL     1      -3.087  11.974  19.553  0.00  0.00    +0.000 OA
ATOM      3  N   UNL     1      -1.382  11.121  18.202  0.00  0.00    +0.000 N 
ATOM      4  H   UNL     1      -1.119  10.271  17.718  0.00  0.00    +0.000 HD
ENDROOT
BRANCH   3   5
ATOM      5  C   UNL     1      -0.338  12.006  18.582  0.00  0.00    +0.000 A 
ATOM      6  C   UNL     1      -0.546  13.392  18.440  0.00  0.00    +0.000 A 
ATOM      7  C   UNL     1       0.438  14.317  18.773  0.00  0.00    +0.000 A 
ATOM      8  C   UNL     1       1.644  13.875  19.287  0.00  0.00    +0.000 A 
ATOM      9  C   UNL     1       1.877  12.505  19.419  0.00  0.00    +0.000 A 
ATOM     10  C   UNL     1       0.924  11.530  19.031  0.00  0.00    +0.000 A 
BRANCH  10  11
ATOM     11  C   UNL     1       1.323  10.096  19.093  0.00  0.00    +0.000 A 
ATOM     12  C   UNL     1       1.943   9.430  18.025  0.00  0.00    +0.000 A 
ATOM     13  C   UNL     1       2.434   8.126  18.154  0.00  0.00    +0.000 A 
ATOM     14  C   UNL     1       2.233   7.420  19.336  0.00  0.00    +0.000 A 
ATOM     15  C   UNL     1       1.533   8.016  20.378  0.00  0.00    +0.000 A 
ATOM     16  C   UNL     1       1.097   9.340  20.261  0.00  0.00    +0.000 A 
ENDBRANCH  10  11
ENDBRANCH   3   5
BRANCH   1  17
ATOM     17  C   UNL     1      -3.659  10.238  18.028  0.00  0.00    +0.000 C 
BRANCH  17  19
ATOM     18  C   UNL     1      -3.928  11.003  15.629  0.00  0.00    +0.000 C 
ATOM     19  N   UNL     1      -4.527  10.763  16.937  0.00  0.00    +0.000 N 
ATOM     20  C   UNL     1      -5.580  11.539  17.388  0.00  0.00    +0.000 C 
ATOM     21  N   UNL     1      -5.675  12.816  17.152  0.00  0.00    +0.000 NA
ATOM     22  S   UNL     1      -6.673  13.510  18.259  0.00  0.00    +0.000 S 
ATOM     23  O   UNL     1      -7.916  13.923  17.637  0.00  0.00    +0.000 OA
ATOM     24  O   UNL     1      -5.906  14.366  19.127  0.00  0.00    +0.000 OA
ATOM     25  C   UNL     1      -7.005  12.049  19.145  0.00  0.00    +0.000 A 
ATOM     26  C   UNL     1      -7.514  11.884  20.414  0.00  0.00    +0.000 A 
ATOM     27  C   UNL     1      -7.641  10.573  20.885  0.00  0.00    +0.000 A 
ATOM     28  C   UNL     1      -7.289   9.477  20.068  0.00  0.00    +0.000 A 
ATOM     29  C   UNL     1      -6.699   9.683  18.820  0.00  0.00    +0.000 A 
ATOM     30  C   UNL     1      -6.502  10.997  18.416  0.00  0.00    +0.000 A 
ENDBRANCH  17  19
ENDBRANCH   1  17
TORSDOF 4
ENDMDL
MODEL 7
REMARK VINA RESULT:      -8.2      4.883      8.003
REMARK  Name = 
REMARK  5 active torsions:
REMARK  status: ('A' for Active; 'I' for Inactive)
REMARK    1  A    between atoms: C_1  and  N_2
REMARK    2  A    between atoms: N_2  and  C_3
REMARK    3  A    between atoms: C_3  and  C_4
REMARK    4  A    between atoms: N_6  and  C_7
REMARK    5  A    between atoms: C_12  and  C_13
REMARK                            x       y       z     vdW  Elec       q    Type
REMARK                         _______ _______ _______ _____ _____    ______ ____
ROOT
ATOM      1  C   UNL     1      -2.941  13.069  20.797  0.00  0.00    +0.000 C 
ATOM      2  O   UNL     1      -2.922  12.308  21.763  0.00  0.00    +0.000 OA
ATOM      3  N   UNL     1      -3.972  13.179  19.866  0.00  0.00    +0.000 N 
ATOM      4  H   UNL     1      -4.004  14.024  19.308  0.00  0.00    +0.000 HD
ENDROOT
BRANCH   3   5
ATOM      5  C   UNL     1      -5.115  12.335  19.842  0.00  0.00    +0.000 A 
ATOM      6  C   UNL     1      -6.073  12.472  20.866  0.00  0.00    +0.000 A 
ATOM      7  C   UNL     1      -7.207  11.667  20.918  0.00  0.00    +0.000 A 
ATOM      8  C   UNL     1      -7.423  10.728  19.925  0.00  0.00    +0.000 A 
ATOM      9  C   UNL     1      -6.477  10.566  18.911  0.00  0.00    +0.000 A 
ATOM     10  C   UNL     1      -5.279  11.321  18.860  0.00  0.00    +0.000 A 
BRANCH  10  11
ATOM     11  C   UNL     1      -4.279  10.979  17.810  0.00  0.00    +0.000 A 
ATOM     12  C   UNL     1      -3.100  10.269  18.083  0.00  0.00    +0.000 A 
ATOM     13  C   UNL     1      -2.245   9.839  17.062  0.00  0.00    +0.000 A 
ATOM     14  C   UNL     1      -2.506  10.189  15.742  0.00  0.00    +0.000 A 
ATOM     15  C   UNL     1      -3.612  10.977  15.448  0.00  0.00    +0.000 A 
ATOM     16  C   UNL     1      -4.492  11.355  16.469  0.00  0.00    +0.000 A 
ENDBRANCH  10  11
ENDBRANCH   3   5
BRANCH   1  17
ATOM     17  C   UNL     1      -1.761  13.987  20.539  0.00  0.00    +0.000 C 
BRANCH  17  19
ATOM     18  C   UNL     1      -1.033  15.046  22.722  0.00  0.00    +0.000 C 
ATOM     19  N   UNL     1      -0.747  14.131  21.621  0.00  0.00    +0.000 N 
ATOM     20  C   UNL     1       0.552  13.914  21.200  0.00  0.00    +0.000 C 
ATOM     21  N   UNL     1       1.455  14.851  21.164  0.00  0.00    +0.000 NA
ATOM     22  S   UNL     1       2.653  14.425  20.120  0.00  0.00    +0.000 S 
ATOM     23  O   UNL     1       3.874  14.123  20.841  0.00  0.00    +0.000 OA
ATOM     24  O   UNL     1       2.614  15.287  18.966  0.00  0.00    +0.000 OA
ATOM     25  C   UNL     1       1.949  12.905  19.647  0.00  0.00    +0.000 A 
ATOM     26  C   UNL     1       2.215  12.113  18.552  0.00  0.00    +0.000 A 
ATOM     27  C   UNL     1       1.456  10.946  18.409  0.00  0.00    +0.000 A 
ATOM     28  C   UNL     1       0.487  10.595  19.374  0.00  0.00    +0.000 A 
ATOM     29  C   UNL     1       0.186  11.462  20.425  0.00  0.00    +0.000 A 
ATOM     30  C   UNL     1       0.892  12.656  20.491  0.00  0.00    +0.000 A 
ENDBRANCH  17  19
ENDBRANCH   1  17
TORSDOF 4
ENDMDL
MODEL 8
REMARK VINA RESULT:      -8.1      2.322      4.224
REMARK  Name = 
REMARK  5 active torsions:
REMARK  status: ('A' for Active; 'I' for Inactive)
REMARK    1  A    between atoms: C_1  and  N_2
REMARK    2  A    between atoms: N_2  and  C_3
REMARK    3  A    between atoms: C_3  and  C_4
REMARK    4  A    between atoms: N_6  and  C_7
REMARK    5  A    between atoms: C_12  and  C_13
REMARK                            x       y       z     vdW  Elec       q    Type
REMARK                         _______ _______ _______ _____ _____    ______ ____
ROOT
ATOM      1  C   UNL     1       1.508   7.751  20.559  0.00  0.00    +0.000 C 
ATOM      2  O   UNL     1       0.557   7.305  21.198  0.00  0.00    +0.000 OA
ATOM      3  N   UNL     1       2.501   6.994  19.940  0.00  0.00    +0.000 N 
ATOM      4  H   UNL     1       3.044   7.447  19.215  0.00  0.00    +0.000 HD
ENDROOT
BRANCH   3   5
ATOM      5  C   UNL     1       2.614   5.583  20.057  0.00  0.00    +0.000 A 
ATOM      6  C   UNL     1       1.641   4.890  20.802  0.00  0.00    +0.000 A 
ATOM      7  C   UNL     1       1.698   3.510  20.976  0.00  0.00    +0.000 A 
ATOM      8  C   UNL     1       2.717   2.789  20.378  0.00  0.00    +0.000 A 
ATOM      9  C   UNL     1       3.701   3.460  19.649  0.00  0.00    +0.000 A 
ATOM     10  C   UNL     1       3.713   4.870  19.504  0.00  0.00    +0.000 A 
BRANCH  10  11
ATOM     11  C   UNL     1       4.878   5.495  18.818  0.00  0.00    +0.000 A 
ATOM     12  C   UNL     1       6.190   5.402  19.306  0.00  0.00    +0.000 A 
ATOM     13  C   UNL     1       7.285   5.876  18.574  0.00  0.00    +0.000 A 
ATOM     14  C   UNL     1       7.081   6.539  17.369  0.00  0.00    +0.000 A 
ATOM     15  C   UNL     1       5.786   6.737  16.906  0.00  0.00    +0.000 A 
ATOM     16  C   UNL     1       4.702   6.209  17.616  0.00  0.00    +0.000 A 
ENDBRANCH  10  11
ENDBRANCH   3   5
BRANCH   1  17
ATOM     17  C   UNL     1       1.673   9.251  20.403  0.00  0.00    +0.000 C 
BRANCH  17  19
ATOM     18  C   UNL     1       1.595   9.318  17.872  0.00  0.00    +0.000 C 
ATOM     19  N   UNL     1       1.165   9.877  19.150  0.00  0.00    +0.000 N 
ATOM     20  C   UNL     1       0.883  11.225  19.274  0.00  0.00    +0.000 C 
ATOM     21  N   UNL     1       1.557  12.153  18.658  0.00  0.00    +0.000 NA
ATOM     22  S   UNL     1       1.359  13.589  19.436  0.00  0.00    +0.000 S 
ATOM     23  O   UNL     1       0.557  14.495  18.637  0.00  0.00    +0.000 OA
ATOM     24  O   UNL     1       2.602  13.975  20.053  0.00  0.00    +0.000 OA
ATOM     25  C   UNL     1       0.331  12.972  20.697  0.00  0.00    +0.000 A 
ATOM     26  C   UNL     1       0.011  13.518  21.920  0.00  0.00    +0.000 A 
ATOM     27  C   UNL     1      -0.824  12.768  22.756  0.00  0.00    +0.000 A 
ATOM     28  C   UNL     1      -1.334  11.521  22.332  0.00  0.00    +0.000 A 
ATOM     29  C   UNL     1      -0.923  10.961  21.122  0.00  0.00    +0.000 A 
ATOM     30  C   UNL     1      -0.022  11.687  20.354  0.00  0.00    +0.000 A 
ENDBRANCH  17  19
ENDBRANCH   1  17
TORSDOF 4
ENDMDL
MODEL 9
REMARK VINA RESULT:      -8.0      2.431      4.214
REMARK  Name = 
REMARK  5 active torsions:
REMARK  status: ('A' for Active; 'I' for Inactive)
REMARK    1  A    between atoms: C_1  and  N_2
REMARK    2  A    between atoms: N_2  and  C_3
REMARK    3  A    between atoms: C_3  and  C_4
REMARK    4  A    between atoms: N_6  and  C_7
REMARK    5  A    between atoms: C_12  and  C_13
REMARK                            x       y       z     vdW  Elec       q    Type
REMARK                         _______ _______ _______ _____ _____    ______ ____
ROOT
ATOM      1  C   UNL     1       2.137   6.925  19.883  0.00  0.00    +0.000 C 
ATOM      2  O   UNL     1       1.975   6.263  20.906  0.00  0.00    +0.000 OA
ATOM      3  N   UNL     1       2.390   6.413  18.612  0.00  0.00    +0.000 N 
ATOM      4  H   UNL     1       2.211   7.022  17.823  0.00  0.00    +0.000 HD
ENDROOT
BRANCH   3   5
ATOM      5  C   UNL     1       2.610   5.036  18.339  0.00  0.00    +0.000 A 
ATOM      6  C   UNL     1       1.507   4.160  18.372  0.00  0.00    +0.000 A 
ATOM      7  C   UNL     1       1.649   2.796  18.135  0.00  0.00    +0.000 A 
ATOM      8  C   UNL     1       2.896   2.284  17.826  0.00  0.00    +0.000 A 
ATOM      9  C   UNL     1       4.005   3.133  17.804  0.00  0.00    +0.000 A 
ATOM     10  C   UNL     1       3.911   4.515  18.104  0.00  0.00    +0.000 A 
BRANCH  10  11
ATOM     11  C   UNL     1       5.173   5.303  18.179  0.00  0.00    +0.000 A 
ATOM     12  C   UNL     1       6.121   5.130  19.199  0.00  0.00    +0.000 A 
ATOM     13  C   UNL     1       7.359   5.780  19.172  0.00  0.00    +0.000 A 
ATOM     14  C   UNL     1       7.644   6.695  18.165  0.00  0.00    +0.000 A 
ATOM     15  C   UNL     1       6.686   6.966  17.195  0.00  0.00    +0.000 A 
ATOM     16  C   UNL     1       5.473   6.268  17.196  0.00  0.00    +0.000 A 
ENDBRANCH  10  11
ENDBRANCH   3   5
BRANCH   1  17
ATOM     17  C   UNL     1       2.074   8.440  19.949  0.00  0.00    +0.000 C 
BRANCH  17  19
ATOM     18  C   UNL     1       1.990   8.790  17.441  0.00  0.00    +0.000 C 
ATOM     19  N   UNL     1       1.516   9.161  18.771  0.00  0.00    +0.000 N 
ATOM     20  C   UNL     1       1.125  10.459  19.046  0.00  0.00    +0.000 C 
ATOM     21  N   UNL     1       1.720  11.503  18.546  0.00  0.00    +0.000 NA
ATOM     22  S   UNL     1       1.406  12.819  19.481  0.00  0.00    +0.000 S 
ATOM     23  O   UNL     1       0.532  13.743  18.784  0.00  0.00    +0.000 OA
ATOM     24  O   UNL     1       2.614  13.232  20.149  0.00  0.00    +0.000 OA
ATOM     25  C   UNL     1       0.433  11.980  20.655  0.00  0.00    +0.000 A 
ATOM     26  C   UNL     1       0.071  12.355  21.930  0.00  0.00    +0.000 A 
ATOM     27  C   UNL     1      -0.699  11.448  22.667  0.00  0.00    +0.000 A 
ATOM     28  C   UNL     1      -1.106  10.221  22.099  0.00  0.00    +0.000 A 
ATOM     29  C   UNL     1      -0.652   9.839  20.837  0.00  0.00    +0.000 A 
ATOM     30  C   UNL     1       0.186  10.719  20.165  0.00  0.00    +0.000 A 
ENDBRANCH  17  19
ENDBRANCH   1  17
TORSDOF 4
ENDMDL
