MODEL 1
REMARK VINA RESULT:      -8.5      0.000      0.000
REMARK  Name = 
REMARK  7 active torsions:
REMARK  status: ('A' for Active; 'I' for Inactive)
REMARK    1  A    between atoms: C_2  and  C_3
REMARK    2  A    between atoms: C_3  and  C_4
REMARK    3  A    between atoms: C_8  and  O_9
REMARK    4  A    between atoms: O_9  and  C_10
REMARK    5  A    between atoms: C_10  and  C_11
REMARK    6  A    between atoms: N_19  and  C_20
REMARK    7  A    between atoms: C_20  and  C_21
REMARK                            x       y       z     vdW  Elec       q    Type
REMARK                         _______ _______ _______ _____ _____    ______ ____
ROOT
ATOM      1  C   UNL     1       1.824   6.396  20.705  0.00  0.00    +0.000 C 
ENDROOT
BRANCH   1   2
ATOM      2  C   UNL     1       1.844   7.626  19.835  0.00  0.00    +0.000 A 
ATOM      3  C   UNL     1       2.320   7.595  18.514  0.00  0.00    +0.000 A 
ATOM      4  C   UNL     1       2.218   8.727  17.701  0.00  0.00    +0.000 A 
ATOM      5  C   UNL     1       1.599   9.883  18.179  0.00  0.00    +0.000 A 
ATOM      6  C   UNL     1       1.095   9.916  19.478  0.00  0.00    +0.000 A 
ATOM      7  C   UNL     1       1.280   8.811  20.314  0.00  0.00    +0.000 A 
BRANCH   6   8
ATOM      8  O   UNL     1       0.395  11.042  19.836  0.00  0.00    +0.000 OA
BRANCH   8   9
ATOM      9  C   UNL     1       0.298  11.232  21.253  0.00  0.00    +0.000 C 
BRANCH   9  10
ATOM     10  C   UNL     1      -1.055  11.744  21.683  0.00  0.00    +0.000 A 
ATOM     11  C   UNL     1      -1.913  12.285  20.711  0.00  0.00    +0.000 A 
ATOM     12  C   UNL     1      -3.193  12.719  21.053  0.00  0.00    +0.000 A 
ATOM     13  C   UNL     1      -3.625  12.601  22.372  0.00  0.00    +0.000 A 
ATOM     14 CL   UNL     1      -5.210  13.127  22.792  0.00  0.00    +0.000 Cl
ATOM     15  C   UNL     1      -2.790  12.055  23.344  0.00  0.00    +0.000 A 
ATOM     16  C   UNL     1      -1.509  11.622  23.001  0.00  0.00    +0.000 A 
ENDBRANCH   9  10
ENDBRANCH   8   9
ENDBRANCH   6   8
ENDBRANCH   1   2
BRANCH   1  18
ATOM     17  O   UNL     1       1.306   4.248  19.777  0.00  0.00    +0.000 OA
ATOM     18  C   UNL     1       2.157   5.105  19.987  0.00  0.00    +0.000 C 
ATOM     19  N   UNL     1       3.483   5.000  19.637  0.00  0.00    +0.000 N 
ATOM     20  H   UNL     1       4.079   5.794  19.870  0.00  0.00    +0.000 HD
BRANCH  19  21
ATOM     21  C   UNL     1       4.157   3.880  18.954  0.00  0.00    +0.000 C 
ATOM     22  C   UNL     1       3.412   3.398  17.673  0.00  0.00    +0.000 C 
ATOM     23  C   UNL     1       3.738   1.946  18.047  0.00  0.00    +0.000 C 
ATOM     24  C   UNL     1       3.995   2.425  19.486  0.00  0.00    +0.000 C 
BRANCH  21  25
ATOM     25  C   UNL     1       5.621   4.283  18.692  0.00  0.00    +0.000 A 
ATOM     26  N   UNL     1       6.371   4.905  19.580  0.00  0.00    +0.000 NA
ATOM     27  N   UNL     1       7.607   5.119  19.018  0.00  0.00    +0.000 NA
ATOM     28  C   UNL     1       7.582   4.624  17.804  0.00  0.00    +0.000 A 
ATOM     29  N   UNL     1       6.358   4.082  17.557  0.00  0.00    +0.000 N 
ATOM     30  H   UNL     1       6.061   3.628  16.706  0.00  0.00    +0.000 HD
ENDBRANCH  21  25
ENDBRANCH  19  21
ENDBRANCH   1  18
TORSDOF 7
ENDMDL
MODEL 2
REMARK VINA RESULT:      -8.4      2.756      5.046
REMARK  Name = 
REMARK  7 active torsions:
REMARK  status: ('A' for Active; 'I' for Inactive)
REMARK    1  A    between atoms: C_2  and  C_3
REMARK    2  A    between atoms: C_3  and  C_4
REMARK    3  A    between atoms: C_8  and  O_9
REMARK    4  A    between atoms: O_9  and  C_10
REMARK    5  A    between atoms: C_10  and  C_11
REMARK    6  A    between atoms: N_19  and  C_20
REMARK    7  A    between atoms: C_20  and  C_21
REMARK                            x       y       z     vdW  Elec       q    Type
REMARK                         _______ _______ _______ _____ _____    ______ ____
ROOT
ATOM      1  C   UNL     1       3.576   2.494  17.641  0.00  0.00    +0.000 C 
ENDROOT
BRANCH   1   2
ATOM      2  C   UNL     1       2.544   2.916  18.656  0.00  0.00    +0.000 A 
ATOM      3  C   UNL     1       1.718   1.985  19.307  0.00  0.00    +0.000 A 
ATOM      4  C   UNL     1       0.853   2.400  20.324  0.00  0.00    +0.000 A 
ATOM      5  C   UNL     1       0.838   3.734  20.733  0.00  0.00    +0.000 A 
ATOM      6  C   UNL     1       1.675   4.661  20.115  0.00  0.00    +0.000 A 
ATOM      7  C   UNL     1       2.472   4.257  19.040  0.00  0.00    +0.000 A 
BRANCH   6   8
ATOM      8  O   UNL     1       1.692   5.925  20.651  0.00  0.00    +0.000 OA
BRANCH   8   9
ATOM      9  C   UNL     1       2.456   6.865  19.884  0.00  0.00    +0.000 C 
BRANCH   9  10
ATOM     10  C   UNL     1       1.726   8.165  19.658  0.00  0.00    +0.000 A 
ATOM     11  C   UNL     1       1.844   8.798  18.409  0.00  0.00    +0.000 A 
ATOM     12  C   UNL     1       1.143   9.973  18.136  0.00  0.00    +0.000 A 
ATOM     13  C   UNL     1       0.308  10.513  19.113  0.00  0.00    +0.000 A 
ATOM     14 CL   UNL     1      -0.566  11.957  18.772  0.00  0.00    +0.000 Cl
ATOM     15  C   UNL     1       0.171   9.890  20.350  0.00  0.00    +0.000 A 
ATOM     16  C   UNL     1       0.874   8.715  20.623  0.00  0.00    +0.000 A 
ENDBRANCH   9  10
ENDBRANCH   8   9
ENDBRANCH   6   8
ENDBRANCH   1   2
BRANCH   1  18
ATOM     17  O   UNL     1       3.893   4.228  16.019  0.00  0.00    +0.000 OA
ATOM     18  C   UNL     1       4.334   3.634  16.996  0.00  0.00    +0.000 C 
ATOM     19  N   UNL     1       5.545   3.895  17.596  0.00  0.00    +0.000 N 
ATOM     20  H   UNL     1       5.783   3.323  18.407  0.00  0.00    +0.000 HD
BRANCH  19  21
ATOM     21  C   UNL     1       6.546   4.910  17.219  0.00  0.00    +0.000 C 
ATOM     22  C   UNL     1       7.816   4.892  18.122  0.00  0.00    +0.000 C 
ATOM     23  C   UNL     1       7.839   6.427  18.096  0.00  0.00    +0.000 C 
ATOM     24  C   UNL     1       6.363   6.393  17.661  0.00  0.00    +0.000 C 
BRANCH  21  25
ATOM     25  C   UNL     1       6.861   4.746  15.720  0.00  0.00    +0.000 A 
ATOM     26  N   UNL     1       7.527   5.641  15.018  0.00  0.00    +0.000 NA
ATOM     27  N   UNL     1       7.619   5.185  13.725  0.00  0.00    +0.000 NA
ATOM     28  C   UNL     1       7.007   4.026  13.669  0.00  0.00    +0.000 A 
ATOM     29  N   UNL     1       6.522   3.706  14.899  0.00  0.00    +0.000 N 
ATOM     30  H   UNL     1       6.014   2.870  15.148  0.00  0.00    +0.000 HD
ENDBRANCH  21  25
ENDBRANCH  19  21
ENDBRANCH   1  18
TORSDOF 7
ENDMDL
MODEL 3
REMARK VINA RESULT:      -8.4      3.423      4.450
REMARK  Name = 
REMARK  7 active torsions:
REMARK  status: ('A' for Active; 'I' for Inactive)
REMARK    1  A    between atoms: C_2  and  C_3
REMARK    2  A    between atoms: C_3  and  C_4
REMARK    3  A    between atoms: C_8  and  O_9
REMARK    4  A    between atoms: O_9  and  C_10
REMARK    5  A    between atoms: C_10  and  C_11
REMARK    6  A    between atoms: N_19  and  C_20
REMARK    7  A    between atoms: C_20  and  C_21
REMARK                            x       y       z     vdW  Elec       q    Type
REMARK                         _______ _______ _______ _____ _____    ______ ____
ROOT
ATOM      1  C   UNL     1       2.921   7.856  17.393  0.00  0.00    +0.000 C 
ENDROOT
BRANCH   1   2
ATOM      2  C   UNL     1       2.116   8.176  18.626  0.00  0.00    +0.000 A 
ATOM      3  C   UNL     1       2.190   7.389  19.787  0.00  0.00    +0.000 A 
ATOM      4  C   UNL     1       1.519   7.781  20.949  0.00  0.00    +0.000 A 
ATOM      5  C   UNL     1       0.808   8.982  20.979  0.00  0.00    +0.000 A 
ATOM      6  C   UNL     1       0.753   9.786  19.843  0.00  0.00    +0.000 A 
ATOM      7  C   UNL     1       1.352   9.346  18.659  0.00  0.00    +0.000 A 
BRANCH   6   8
ATOM      8  O   UNL     1       0.139  11.006  19.985  0.00  0.00    +0.000 OA
BRANCH   8   9
ATOM      9  C   UNL     1       0.010  11.731  18.755  0.00  0.00    +0.000 C 
BRANCH   9  10
ATOM     10  C   UNL     1       0.845  12.988  18.728  0.00  0.00    +0.000 A 
ATOM     11  C   UNL     1       2.184  12.901  18.314  0.00  0.00    +0.000 A 
ATOM     12  C   UNL     1       2.977  14.045  18.221  0.00  0.00    +0.000 A 
ATOM     13  C   UNL     1       2.425  15.286  18.531  0.00  0.00    +0.000 A 
ATOM     14 CL   UNL     1       3.400  16.700  18.405  0.00  0.00    +0.000 Cl
ATOM     15  C   UNL     1       1.095  15.390  18.930  0.00  0.00    +0.000 A 
ATOM     16  C   UNL     1       0.303  14.244  19.025  0.00  0.00    +0.000 A 
ENDBRANCH   9  10
ENDBRANCH   8   9
ENDBRANCH   6   8
ENDBRANCH   1   2
BRANCH   1  18
ATOM     17  O   UNL     1       3.469   5.535  17.615  0.00  0.00    +0.000 OA
ATOM     18  C   UNL     1       3.874   6.690  17.541  0.00  0.00    +0.000 C 
ATOM     19  N   UNL     1       5.195   7.068  17.610  0.00  0.00    +0.000 N 
ATOM     20  H   UNL     1       5.387   8.066  17.530  0.00  0.00    +0.000 HD
BRANCH  19  21
ATOM     21  C   UNL     1       6.379   6.205  17.778  0.00  0.00    +0.000 C 
ATOM     22  C   UNL     1       6.383   5.412  19.119  0.00  0.00    +0.000 C 
ATOM     23  C   UNL     1       7.891   5.664  19.248  0.00  0.00    +0.000 C 
ATOM     24  C   UNL     1       7.736   6.816  18.240  0.00  0.00    +0.000 C 
BRANCH  21  25
ATOM     25  C   UNL     1       6.499   5.301  16.536  0.00  0.00    +0.000 A 
ATOM     26  N   UNL     1       7.146   5.655  15.442  0.00  0.00    +0.000 NA
ATOM     27  N   UNL     1       7.047   4.626  14.537  0.00  0.00    +0.000 NA
ATOM     28  C   UNL     1       6.342   3.672  15.097  0.00  0.00    +0.000 A 
ATOM     29  N   UNL     1       5.983   4.047  16.355  0.00  0.00    +0.000 N 
ATOM     30  H   UNL     1       5.443   3.507  17.014  0.00  0.00    +0.000 HD
ENDBRANCH  21  25
ENDBRANCH  19  21
ENDBRANCH   1  18
TORSDOF 7
ENDMDL
MODEL 4
REMARK VINA RESULT:      -8.4      2.424      4.651
REMARK  Name = 
REMARK  7 active torsions:
REMARK  status: ('A' for Active; 'I' for Inactive)
REMARK    1  A    between atoms: C_2  and  C_3
REMARK    2  A    between atoms: C_3  and  C_4
REMARK    3  A    between atoms: C_8  and  O_9
REMARK    4  A    between atoms: O_9  and  C_10
REMARK    5  A    between atoms: C_10  and  C_11
REMARK    6  A    between atoms: N_19  and  C_20
REMARK    7  A    between atoms: C_20  and  C_21
REMARK                            x       y       z     vdW  Elec       q    Type
REMARK                         _______ _______ _______ _____ _____    ______ ____
ROOT
ATOM      1  C   UNL     1       4.828   3.148  19.517  0.00  0.00    +0.000 C 
ENDROOT
BRANCH   1   2
ATOM      2  C   UNL     1       3.352   3.423  19.643  0.00  0.00    +0.000 A 
ATOM      3  C   UNL     1       2.390   2.415  19.466  0.00  0.00    +0.000 A 
ATOM      4  C   UNL     1       1.038   2.681  19.702  0.00  0.00    +0.000 A 
ATOM      5  C   UNL     1       0.638   3.936  20.162  0.00  0.00    +0.000 A 
ATOM      6  C   UNL     1       1.587   4.936  20.370  0.00  0.00    +0.000 A 
ATOM      7  C   UNL     1       2.925   4.690  20.047  0.00  0.00    +0.000 A 
BRANCH   6   8
ATOM      8  O   UNL     1       1.135   6.102  20.936  0.00  0.00    +0.000 OA
BRANCH   8   9
ATOM      9  C   UNL     1       1.925   7.249  20.597  0.00  0.00    +0.000 C 
BRANCH   9  10
ATOM     10  C   UNL     1       1.218   8.551  20.882  0.00  0.00    +0.000 A 
ATOM     11  C   UNL     1       0.787   9.337  19.800  0.00  0.00    +0.000 A 
ATOM     12  C   UNL     1       0.081  10.520  20.015  0.00  0.00    +0.000 A 
ATOM     13  C   UNL     1      -0.209  10.915  21.320  0.00  0.00    +0.000 A 
ATOM     14 CL   UNL     1      -1.091  12.370  21.586  0.00  0.00    +0.000 Cl
ATOM     15  C   UNL     1       0.200  10.140  22.402  0.00  0.00    +0.000 A 
ATOM     16  C   UNL     1       0.908   8.957  22.185  0.00  0.00    +0.000 A 
ENDBRANCH   9  10
ENDBRANCH   8   9
ENDBRANCH   6   8
ENDBRANCH   1   2
BRANCH   1  18
ATOM     17  O   UNL     1       6.264   5.024  19.918  0.00  0.00    +0.000 OA
ATOM     18  C   UNL     1       5.663   4.339  19.098  0.00  0.00    +0.000 C 
ATOM     19  N   UNL     1       5.642   4.571  17.741  0.00  0.00    +0.000 N 
ATOM     20  H   UNL     1       5.102   3.916  17.176  0.00  0.00    +0.000 HD
BRANCH  19  21
ATOM     21  C   UNL     1       6.316   5.649  16.994  0.00  0.00    +0.000 C 
ATOM     22  C   UNL     1       7.614   6.164  17.684  0.00  0.00    +0.000 C 
ATOM     23  C   UNL     1       7.240   7.598  17.289  0.00  0.00    +0.000 C 
ATOM     24  C   UNL     1       5.793   7.114  17.088  0.00  0.00    +0.000 C 
BRANCH  21  25
ATOM     25  C   UNL     1       6.545   5.166  15.549  0.00  0.00    +0.000 A 
ATOM     26  N   UNL     1       7.558   5.564  14.804  0.00  0.00    +0.000 NA
ATOM     27  N   UNL     1       7.451   4.951  13.579  0.00  0.00    +0.000 NA
ATOM     28  C   UNL     1       6.378   4.197  13.604  0.00  0.00    +0.000 A 
ATOM     29  N   UNL     1       5.781   4.294  14.823  0.00  0.00    +0.000 N 
ATOM     30  H   UNL     1       4.943   3.818  15.123  0.00  0.00    +0.000 HD
ENDBRANCH  21  25
ENDBRANCH  19  21
ENDBRANCH   1  18
TORSDOF 7
ENDMDL
MODEL 5
REMARK VINA RESULT:      -8.3      6.302      9.227
REMARK  Name = 
REMARK  7 active torsions:
REMARK  status: ('A' for Active; 'I' for Inactive)
REMARK    1  A    between atoms: C_2  and  C_3
REMARK    2  A    between atoms: C_3  and  C_4
REMARK    3  A    between atoms: C_8  and  O_9
REMARK    4  A    between atoms: O_9  and  C_10
REMARK    5  A    between atoms: C_10  and  C_11
REMARK    6  A    between atoms: N_19  and  C_20
REMARK    7  A    between atoms: C_20  and  C_21
REMARK                            x       y       z     vdW  Elec       q    Type
REMARK                         _______ _______ _______ _____ _____    ______ ____
ROOT
ATOM      1  C   UNL     1       7.902   9.301  17.567  0.00  0.00    +0.000 C 
ENDROOT
BRANCH   1   2
ATOM      2  C   UNL     1       7.622   7.837  17.793  0.00  0.00    +0.000 A 
ATOM      3  C   UNL     1       8.305   7.092  18.768  0.00  0.00    +0.000 A 
ATOM      4  C   UNL     1       7.939   5.768  19.028  0.00  0.00    +0.000 A 
ATOM      5  C   UNL     1       6.861   5.191  18.355  0.00  0.00    +0.000 A 
ATOM      6  C   UNL     1       6.156   5.931  17.408  0.00  0.00    +0.000 A 
ATOM      7  C   UNL     1       6.582   7.224  17.089  0.00  0.00    +0.000 A 
BRANCH   6   8
ATOM      8  O   UNL     1       5.036   5.340  16.877  0.00  0.00    +0.000 OA
BRANCH   8   9
ATOM      9  C   UNL     1       3.810   5.959  17.285  0.00  0.00    +0.000 C 
BRANCH   9  10
ATOM     10  C   UNL     1       3.098   5.187  18.369  0.00  0.00    +0.000 A 
ATOM     11  C   UNL     1       2.305   4.086  18.004  0.00  0.00    +0.000 A 
ATOM     12  C   UNL     1       1.673   3.310  18.976  0.00  0.00    +0.000 A 
ATOM     13  C   UNL     1       1.845   3.627  20.322  0.00  0.00    +0.000 A 
ATOM     14 CL   UNL     1       1.075   2.662  21.522  0.00  0.00    +0.000 Cl
ATOM     15  C   UNL     1       2.639   4.707  20.699  0.00  0.00    +0.000 A 
ATOM     16  C   UNL     1       3.269   5.484  19.726  0.00  0.00    +0.000 A 
ENDBRANCH   9  10
ENDBRANCH   8   9
ENDBRANCH   6   8
ENDBRANCH   1   2
BRANCH   1  18
ATOM     17  O   UNL     1       9.123   9.403  19.626  0.00  0.00    +0.000 OA
ATOM     18  C   UNL     1       8.887   9.916  18.537  0.00  0.00    +0.000 C 
ATOM     19  N   UNL     1       9.443  11.090  18.083  0.00  0.00    +0.000 N 
ATOM     20  H   UNL     1       9.158  11.398  17.154  0.00  0.00    +0.000 HD
BRANCH  19  21
ATOM     21  C   UNL     1      10.413  11.962  18.771  0.00  0.00    +0.000 C 
ATOM     22  C   UNL     1      10.920  13.142  17.888  0.00  0.00    +0.000 C 
ATOM     23  C   UNL     1      12.331  12.945  18.459  0.00  0.00    +0.000 C 
ATOM     24  C   UNL     1      11.906  11.531  18.892  0.00  0.00    +0.000 C 
BRANCH  21  25
ATOM     25  C   UNL     1       9.792  12.422  20.103  0.00  0.00    +0.000 A 
ATOM     26  N   UNL     1       8.978  13.455  20.205  0.00  0.00    +0.000 NA
ATOM     27  N   UNL     1       8.623  13.587  21.526  0.00  0.00    +0.000 NA
ATOM     28  C   UNL     1       9.227  12.636  22.197  0.00  0.00    +0.000 A 
ATOM     29  N   UNL     1       9.966  11.875  21.345  0.00  0.00    +0.000 N 
ATOM     30  H   UNL     1      10.528  11.072  21.587  0.00  0.00    +0.000 HD
ENDBRANCH  21  25
ENDBRANCH  19  21
ENDBRANCH   1  18
TORSDOF 7
ENDMDL
MODEL 6
REMARK VINA RESULT:      -8.2      2.361      4.354
REMARK  Name = 
REMARK  7 active torsions:
REMARK  status: ('A' for Active; 'I' for Inactive)
REMARK    1  A    between atoms: C_2  and  C_3
REMARK    2  A    between atoms: C_3  and  C_4
REMARK    3  A    between atoms: C_8  and  O_9
REMARK    4  A    between atoms: O_9  and  C_10
REMARK    5  A    between atoms: C_10  and  C_11
REMARK    6  A    between atoms: N_19  and  C_20
REMARK    7  A    between atoms: C_20  and  C_21
REMARK                            x       y       z     vdW  Elec       q    Type
REMARK                         _______ _______ _______ _____ _____    ______ ____
ROOT
ATOM      1  C   UNL     1       2.324   3.440  17.301  0.00  0.00    +0.000 C 
ENDROOT
BRANCH   1   2
ATOM      2  C   UNL     1       1.966   3.585  18.758  0.00  0.00    +0.000 A 
ATOM      3  C   UNL     1       1.857   2.476  19.611  0.00  0.00    +0.000 A 
ATOM      4  C   UNL     1       1.636   2.657  20.979  0.00  0.00    +0.000 A 
ATOM      5  C   UNL     1       1.571   3.943  21.516  0.00  0.00    +0.000 A 
ATOM      6  C   UNL     1       1.708   5.053  20.684  0.00  0.00    +0.000 A 
ATOM      7  C   UNL     1       1.840   4.865  19.305  0.00  0.00    +0.000 A 
BRANCH   6   8
ATOM      8  O   UNL     1       1.753   6.280  21.299  0.00  0.00    +0.000 OA
BRANCH   8   9
ATOM      9  C   UNL     1       1.824   7.380  20.384  0.00  0.00    +0.000 C 
BRANCH   9  10
ATOM     10  C   UNL     1       1.055   8.587  20.860  0.00  0.00    +0.000 A 
ATOM     11  C   UNL     1       0.835   8.747  22.239  0.00  0.00    +0.000 A 
ATOM     12  C   UNL     1       0.178   9.876  22.729  0.00  0.00    +0.000 A 
ATOM     13  C   UNL     1      -0.251  10.858  21.838  0.00  0.00    +0.000 A 
ATOM     14 CL   UNL     1      -1.052  12.256  22.445  0.00  0.00    +0.000 Cl
ATOM     15  C   UNL     1      -0.028  10.719  20.471  0.00  0.00    +0.000 A 
ATOM     16  C   UNL     1       0.628   9.589  19.981  0.00  0.00    +0.000 A 
ENDBRANCH   9  10
ENDBRANCH   8   9
ENDBRANCH   6   8
ENDBRANCH   1   2
BRANCH   1  18
ATOM     17  O   UNL     1       4.488   2.419  17.421  0.00  0.00    +0.000 OA
ATOM     18  C   UNL     1       3.808   3.356  17.017  0.00  0.00    +0.000 C 
ATOM     19  N   UNL     1       4.291   4.429  16.304  0.00  0.00    +0.000 N 
ATOM     20  H   UNL     1       3.609   5.135  16.029  0.00  0.00    +0.000 HD
BRANCH  19  21
ATOM     21  C   UNL     1       5.679   4.686  15.877  0.00  0.00    +0.000 C 
ATOM     22  C   UNL     1       5.783   5.653  14.660  0.00  0.00    +0.000 C 
ATOM     23  C   UNL     1       6.913   4.787  14.086  0.00  0.00    +0.000 C 
ATOM     24  C   UNL     1       6.435   3.644  14.998  0.00  0.00    +0.000 C 
BRANCH  21  25
ATOM     25  C   UNL     1       6.483   5.160  17.103  0.00  0.00    +0.000 A 
ATOM     26  N   UNL     1       6.777   6.425  17.331  0.00  0.00    +0.000 NA
ATOM     27  N   UNL     1       7.505   6.489  18.495  0.00  0.00    +0.000 NA
ATOM     28  C   UNL     1       7.640   5.265  18.947  0.00  0.00    +0.000 A 
ATOM     29  N   UNL     1       7.008   4.398  18.110  0.00  0.00    +0.000 N 
ATOM     30  H   UNL     1       6.945   3.396  18.216  0.00  0.00    +0.000 HD
ENDBRANCH  21  25
ENDBRANCH  19  21
ENDBRANCH   1  18
TORSDOF 7
ENDMDL
MODEL 7
REMARK VINA RESULT:      -8.2      5.085     10.077
REMARK  Name = 
REMARK  7 active torsions:
REMARK  status: ('A' for Active; 'I' for Inactive)
REMARK    1  A    between atoms: C_2  and  C_3
REMARK    2  A    between atoms: C_3  and  C_4
REMARK    3  A    between atoms: C_8  and  O_9
REMARK    4  A    between atoms: O_9  and  C_10
REMARK    5  A    between atoms: C_10  and  C_11
REMARK    6  A    between atoms: N_19  and  C_20
REMARK    7  A    between atoms: C_20  and  C_21
REMARK                            x       y       z     vdW  Elec       q    Type
REMARK                         _______ _______ _______ _____ _____    ______ ____
ROOT
ATOM      1  C   UNL     1       1.757   9.173  17.750  0.00  0.00    +0.000 C 
ENDROOT
BRANCH   1   2
ATOM      2  C   UNL     1       1.938   8.049  18.737  0.00  0.00    +0.000 A 
ATOM      3  C   UNL     1       1.480   8.140  20.061  0.00  0.00    +0.000 A 
ATOM      4  C   UNL     1       1.563   7.036  20.915  0.00  0.00    +0.000 A 
ATOM      5  C   UNL     1       2.059   5.820  20.444  0.00  0.00    +0.000 A 
ATOM      6  C   UNL     1       2.489   5.708  19.123  0.00  0.00    +0.000 A 
ATOM      7  C   UNL     1       2.485   6.839  18.302  0.00  0.00    +0.000 A 
BRANCH   6   8
ATOM      8  O   UNL     1       2.850   4.452  18.700  0.00  0.00    +0.000 OA
BRANCH   8   9
ATOM      9  C   UNL     1       4.228   4.140  18.939  0.00  0.00    +0.000 C 
BRANCH   9  10
ATOM     10  C   UNL     1       5.090   4.325  17.714  0.00  0.00    +0.000 A 
ATOM     11  C   UNL     1       4.487   4.258  16.447  0.00  0.00    +0.000 A 
ATOM     12  C   UNL     1       5.234   4.477  15.290  0.00  0.00    +0.000 A 
ATOM     13  C   UNL     1       6.590   4.779  15.399  0.00  0.00    +0.000 A 
ATOM     14 CL   UNL     1       7.510   5.061  13.971  0.00  0.00    +0.000 Cl
ATOM     15  C   UNL     1       7.199   4.862  16.649  0.00  0.00    +0.000 A 
ATOM     16  C   UNL     1       6.451   4.640  17.806  0.00  0.00    +0.000 A 
ENDBRANCH   9  10
ENDBRANCH   8   9
ENDBRANCH   6   8
ENDBRANCH   1   2
BRANCH   1  18
ATOM     17  O   UNL     1       1.748  11.199  19.030  0.00  0.00    +0.000 OA
ATOM     18  C   UNL     1       1.119  10.421  18.320  0.00  0.00    +0.000 C 
ATOM     19  N   UNL     1      -0.209  10.559  17.985  0.00  0.00    +0.000 N 
ATOM     20  H   UNL     1      -0.603   9.837  17.382  0.00  0.00    +0.000 HD
BRANCH  19  21
ATOM     21  C   UNL     1      -1.140  11.633  18.382  0.00  0.00    +0.000 C 
ATOM     22  C   UNL     1      -0.507  13.055  18.320  0.00  0.00    +0.000 C 
ATOM     23  C   UNL     1      -1.239  13.423  19.618  0.00  0.00    +0.000 C 
ATOM     24  C   UNL     1      -1.410  11.918  19.890  0.00  0.00    +0.000 C 
BRANCH  21  25
ATOM     25  C   UNL     1      -2.421  11.498  17.538  0.00  0.00    +0.000 A 
ATOM     26  N   UNL     1      -2.443  10.964  16.333  0.00  0.00    +0.000 NA
ATOM     27  N   UNL     1      -3.735  11.013  15.869  0.00  0.00    +0.000 NA
ATOM     28  C   UNL     1      -4.470  11.576  16.798  0.00  0.00    +0.000 A 
ATOM     29  N   UNL     1      -3.690  11.891  17.868  0.00  0.00    +0.000 N 
ATOM     30  H   UNL     1      -3.992  12.327  18.726  0.00  0.00    +0.000 HD
ENDBRANCH  21  25
ENDBRANCH  19  21
ENDBRANCH   1  18
TORSDOF 7
ENDMDL
MODEL 8
REMARK VINA RESULT:      -8.1      2.033      2.801
REMARK  Name = 
REMARK  7 active torsions:
REMARK  status: ('A' for Active; 'I' for Inactive)
REMARK    1  A    between atoms: C_2  and  C_3
REMARK    2  A    between atoms: C_3  and  C_4
REMARK    3  A    between atoms: C_8  and  O_9
REMARK    4  A    between atoms: O_9  and  C_10
REMARK    5  A    between atoms: C_10  and  C_11
REMARK    6  A    between atoms: N_19  and  C_20
REMARK    7  A    between atoms: C_20  and  C_21
REMARK                            x       y       z     vdW  Elec       q    Type
REMARK                         _______ _______ _______ _____ _____    ______ ____
ROOT
ATOM      1  C   UNL     1       3.116   4.904  19.340  0.00  0.00    +0.000 C 
ENDROOT
BRANCH   1   2
ATOM      2  C   UNL     1       2.590   6.317  19.362  0.00  0.00    +0.000 A 
ATOM      3  C   UNL     1       2.593   7.129  18.217  0.00  0.00    +0.000 A 
ATOM      4  C   UNL     1       1.993   8.391  18.245  0.00  0.00    +0.000 A 
ATOM      5  C   UNL     1       1.344   8.835  19.397  0.00  0.00    +0.000 A 
ATOM      6  C   UNL     1       1.307   8.025  20.531  0.00  0.00    +0.000 A 
ATOM      7  C   UNL     1       1.985   6.802  20.524  0.00  0.00    +0.000 A 
BRANCH   6   8
ATOM      8  O   UNL     1       0.549   8.477  21.584  0.00  0.00    +0.000 OA
BRANCH   8   9
ATOM      9  C   UNL     1       0.865   9.815  21.986  0.00  0.00    +0.000 C 
BRANCH   9  10
ATOM     10  C   UNL     1      -0.339  10.725  21.985  0.00  0.00    +0.000 A 
ATOM     11  C   UNL     1      -1.119  10.816  23.150  0.00  0.00    +0.000 A 
ATOM     12  C   UNL     1      -2.208  11.685  23.212  0.00  0.00    +0.000 A 
ATOM     13  C   UNL     1      -2.512  12.479  22.109  0.00  0.00    +0.000 A 
ATOM     14 CL   UNL     1      -3.850  13.560  22.190  0.00  0.00    +0.000 Cl
ATOM     15  C   UNL     1      -1.740  12.410  20.952  0.00  0.00    +0.000 A 
ATOM     16  C   UNL     1      -0.652  11.538  20.890  0.00  0.00    +0.000 A 
ENDBRANCH   9  10
ENDBRANCH   8   9
ENDBRANCH   6   8
ENDBRANCH   1   2
BRANCH   1  18
ATOM     17  O   UNL     1       5.419   4.252  19.460  0.00  0.00    +0.000 OA
ATOM     18  C   UNL     1       4.521   4.759  18.796  0.00  0.00    +0.000 C 
ATOM     19  N   UNL     1       4.672   5.270  17.527  0.00  0.00    +0.000 N 
ATOM     20  H   UNL     1       3.837   5.660  17.092  0.00  0.00    +0.000 HD
BRANCH  19  21
ATOM     21  C   UNL     1       5.897   5.320  16.707  0.00  0.00    +0.000 C 
ATOM     22  C   UNL     1       5.617   5.507  15.186  0.00  0.00    +0.000 C 
ATOM     23  C   UNL     1       6.744   4.514  14.870  0.00  0.00    +0.000 C 
ATOM     24  C   UNL     1       6.633   4.003  16.317  0.00  0.00    +0.000 C 
BRANCH  21  25
ATOM     25  C   UNL     1       6.829   6.399  17.293  0.00  0.00    +0.000 A 
ATOM     26  N   UNL     1       6.927   7.617  16.797  0.00  0.00    +0.000 NA
ATOM     27  N   UNL     1       7.847   8.308  17.548  0.00  0.00    +0.000 NA
ATOM     28  C   UNL     1       8.289   7.497  18.480  0.00  0.00    +0.000 A 
ATOM     29  N   UNL     1       7.672   6.290  18.364  0.00  0.00    +0.000 N 
ATOM     30  H   UNL     1       7.815   5.482  18.951  0.00  0.00    +0.000 HD
ENDBRANCH  21  25
ENDBRANCH  19  21
ENDBRANCH   1  18
TORSDOF 7
ENDMDL
MODEL 9
REMARK VINA RESULT:      -8.1      2.066      3.035
REMARK  Name = 
REMARK  7 active torsions:
REMARK  status: ('A' for Active; 'I' for Inactive)
REMARK    1  A    between atoms: C_2  and  C_3
REMARK    2  A    between atoms: C_3  and  C_4
REMARK    3  A    between atoms: C_8  and  O_9
REMARK    4  A    between atoms: O_9  and  C_10
REMARK    5  A    between atoms: C_10  and  C_11
REMARK    6  A    between atoms: N_19  and  C_20
REMARK    7  A    between atoms: C_20  and  C_21
REMARK                            x       y       z     vdW  Elec       q    Type
REMARK                         _______ _______ _______ _____ _____    ______ ____
ROOT
ATOM      1  C   UNL     1       1.884   6.800  20.183  0.00  0.00    +0.000 C 
ENDROOT
BRANCH   1   2
ATOM      2  C   UNL     1       1.674   8.195  19.652  0.00  0.00    +0.000 A 
ATOM      3  C   UNL     1       2.147   8.589  18.390  0.00  0.00    +0.000 A 
ATOM      4  C   UNL     1       1.834   9.854  17.883  0.00  0.00    +0.000 A 
ATOM      5  C   UNL     1       1.009  10.717  18.606  0.00  0.00    +0.000 A 
ATOM      6  C   UNL     1       0.509  10.325  19.846  0.00  0.00    +0.000 A 
ATOM      7  C   UNL     1       0.897   9.095  20.386  0.00  0.00    +0.000 A 
BRANCH   6   8
ATOM      8  O   UNL     1      -0.391  11.175  20.441  0.00  0.00    +0.000 OA
BRANCH   8   9
ATOM      9  C   UNL     1      -0.946  12.144  19.543  0.00  0.00    +0.000 C 
BRANCH   9  10
ATOM     10  C   UNL     1      -2.384  11.856  19.189  0.00  0.00    +0.000 A 
ATOM     11  C   UNL     1      -3.400  12.531  19.886  0.00  0.00    +0.000 A 
ATOM     12  C   UNL     1      -4.741  12.337  19.555  0.00  0.00    +0.000 A 
ATOM     13  C   UNL     1      -5.070  11.473  18.513  0.00  0.00    +0.000 A 
ATOM     14 CL   UNL     1      -6.725  11.242  18.097  0.00  0.00    +0.000 Cl
ATOM     15  C   UNL     1      -4.073  10.807  17.805  0.00  0.00    +0.000 A 
ATOM     16  C   UNL     1      -2.732  11.000  18.137  0.00  0.00    +0.000 A 
ENDBRANCH   9  10
ENDBRANCH   8   9
ENDBRANCH   6   8
ENDBRANCH   1   2
BRANCH   1  18
ATOM     17  O   UNL     1       2.063   5.231  18.381  0.00  0.00    +0.000 OA
ATOM     18  C   UNL     1       2.638   5.874  19.253  0.00  0.00    +0.000 C 
ATOM     19  N   UNL     1       3.988   5.819  19.510  0.00  0.00    +0.000 N 
ATOM     20  H   UNL     1       4.331   6.413  20.265  0.00  0.00    +0.000 HD
BRANCH  19  21
ATOM     21  C   UNL     1       5.012   5.011  18.823  0.00  0.00    +0.000 C 
ATOM     22  C   UNL     1       6.458   5.271  19.342  0.00  0.00    +0.000 C 
ATOM     23  C   UNL     1       6.977   5.187  17.901  0.00  0.00    +0.000 C 
ATOM     24  C   UNL     1       5.537   5.439  17.419  0.00  0.00    +0.000 C 
BRANCH  21  25
ATOM     25  C   UNL     1       4.594   3.530  18.901  0.00  0.00    +0.000 A 
ATOM     26  N   UNL     1       4.808   2.772  19.959  0.00  0.00    +0.000 NA
ATOM     27  N   UNL     1       4.322   1.516  19.687  0.00  0.00    +0.000 NA
ATOM     28  C   UNL     1       3.825   1.536  18.473  0.00  0.00    +0.000 A 
ATOM     29  N   UNL     1       3.967   2.782  17.943  0.00  0.00    +0.000 N 
ATOM     30  H   UNL     1       3.669   3.085  17.028  0.00  0.00    +0.000 HD
ENDBRANCH  21  25
ENDBRANCH  19  21
ENDBRANCH   1  18
TORSDOF 7
ENDMDL
