MODEL 1
REMARK VINA RESULT:      -8.9      0.000      0.000
REMARK  Name = 
REMARK  3 active torsions:
REMARK  status: ('A' for Active; 'I' for Inactive)
REMARK    1  A    between atoms: C_8  and  N_9
REMARK    2  A    between atoms: C_10  and  C_12
REMARK    3  A    between atoms: C_16  and  C_17
REMARK                            x       y       z     vdW  Elec       q    Type
REMARK                         _______ _______ _______ _____ _____    ______ ____
ROOT
ATOM      1  N   UNL     1       2.620   6.619  20.138  0.00  0.00    +0.000 N 
ATOM      2  C   UNL     1       2.584   5.550  19.250  0.00  0.00    +0.000 C 
ATOM      3  O   UNL     1       1.917   5.514  18.225  0.00  0.00    +0.000 OA
ATOM      4  H   UNL     1       3.307   6.584  20.880  0.00  0.00    +0.000 HD
ENDROOT
BRANCH   1  12
ATOM      5  O   UNL     1      -0.589   9.917  23.010  0.00  0.00    +0.000 OA
ATOM      6  C   UNL     1      -0.341  10.254  21.869  0.00  0.00    +0.000 C 
ATOM      7  N   UNL     1      -0.774  11.396  21.226  0.00  0.00    +0.000 N 
ATOM      8  C   UNL     1      -0.293  11.496  19.870  0.00  0.00    +0.000 C 
ATOM      9  C   UNL     1       0.506  10.249  19.727  0.00  0.00    +0.000 A 
ATOM     10  C   UNL     1       1.206   9.780  18.640  0.00  0.00    +0.000 A 
ATOM     11  C   UNL     1       1.884   8.564  18.778  0.00  0.00    +0.000 A 
ATOM     12  C   UNL     1       1.889   7.826  19.983  0.00  0.00    +0.000 A 
ATOM     13  C   UNL     1       1.149   8.305  21.071  0.00  0.00    +0.000 A 
ATOM     14  C   UNL     1       0.481   9.511  20.911  0.00  0.00    +0.000 A 
ATOM     15  H   UNL     1      -1.362  12.076  21.690  0.00  0.00    +0.000 HD
ENDBRANCH   1  12
BRANCH   2  16
ATOM     16  C   UNL     1       3.448   4.426  19.581  0.00  0.00    +0.000 A 
ATOM     17  C   UNL     1       3.096   3.226  20.168  0.00  0.00    +0.000 A 
ATOM     18  N   UNL     1       4.200   2.431  20.087  0.00  0.00    +0.000 N 
ATOM     19  N   UNL     1       5.271   3.045  19.573  0.00  0.00    +0.000 NA
ATOM     20  C   UNL     1       4.843   4.282  19.261  0.00  0.00    +0.000 A 
ATOM     21  H   UNL     1       4.293   1.455  20.350  0.00  0.00    +0.000 HD
BRANCH  20  22
ATOM     22  C   UNL     1       5.761   5.271  18.673  0.00  0.00    +0.000 A 
ATOM     23  C   UNL     1       5.387   6.007  17.539  0.00  0.00    +0.000 A 
ATOM     24  C   UNL     1       6.240   6.977  17.001  0.00  0.00    +0.000 A 
ATOM     25  C   UNL     1       7.480   7.223  17.591  0.00  0.00    +0.000 A 
ATOM     26  C   UNL     1       7.874   6.486  18.703  0.00  0.00    +0.000 A 
ATOM     27  C   UNL     1       7.027   5.507  19.229  0.00  0.00    +0.000 A 
ENDBRANCH  20  22
ENDBRANCH   2  16
TORSDOF 3
ENDMDL
MODEL 2
REMARK VINA RESULT:      -8.8      0.734      1.194
REMARK  Name = 
REMARK  3 active torsions:
REMARK  status: ('A' for Active; 'I' for Inactive)
REMARK    1  A    between atoms: C_8  and  N_9
REMARK    2  A    between atoms: C_10  and  C_12
REMARK    3  A    between atoms: C_16  and  C_17
REMARK                            x       y       z     vdW  Elec       q    Type
REMARK                         _______ _______ _______ _____ _____    ______ ____
ROOT
ATOM      1  N   UNL     1       2.858   6.403  19.813  0.00  0.00    +0.000 N 
ATOM      2  C   UNL     1       2.463   5.136  19.402  0.00  0.00    +0.000 C 
ATOM      3  O   UNL     1       1.463   4.896  18.737  0.00  0.00    +0.000 OA
ATOM      4  H   UNL     1       3.769   6.489  20.246  0.00  0.00    +0.000 HD
ENDROOT
BRANCH   1  12
ATOM      5  O   UNL     1      -0.423   9.987  22.225  0.00  0.00    +0.000 OA
ATOM      6  C   UNL     1      -0.111  10.221  21.074  0.00  0.00    +0.000 C 
ATOM      7  N   UNL     1      -0.486  11.311  20.315  0.00  0.00    +0.000 N 
ATOM      8  C   UNL     1       0.066  11.288  18.983  0.00  0.00    +0.000 C 
ATOM      9  C   UNL     1       0.845  10.020  18.987  0.00  0.00    +0.000 A 
ATOM     10  C   UNL     1       1.588   9.449  17.982  0.00  0.00    +0.000 A 
ATOM     11  C   UNL     1       2.234   8.237  18.257  0.00  0.00    +0.000 A 
ATOM     12  C   UNL     1       2.161   7.605  19.519  0.00  0.00    +0.000 A 
ATOM     13  C   UNL     1       1.377   8.187  20.523  0.00  0.00    +0.000 A 
ATOM     14  C   UNL     1       0.743   9.386  20.226  0.00  0.00    +0.000 A 
ATOM     15  H   UNL     1      -1.082  12.038  20.688  0.00  0.00    +0.000 HD
ENDBRANCH   1  12
BRANCH   2  16
ATOM     16  C   UNL     1       3.350   4.045  19.779  0.00  0.00    +0.000 A 
ATOM     17  C   UNL     1       3.050   2.923  20.527  0.00  0.00    +0.000 A 
ATOM     18  N   UNL     1       4.141   2.110  20.437  0.00  0.00    +0.000 N 
ATOM     19  N   UNL     1       5.162   2.649  19.763  0.00  0.00    +0.000 NA
ATOM     20  C   UNL     1       4.710   3.848  19.352  0.00  0.00    +0.000 A 
ATOM     21  H   UNL     1       4.254   1.168  20.799  0.00  0.00    +0.000 HD
BRANCH  20  22
ATOM     22  C   UNL     1       5.573   4.753  18.576  0.00  0.00    +0.000 A 
ATOM     23  C   UNL     1       6.635   5.432  19.192  0.00  0.00    +0.000 A 
ATOM     24  C   UNL     1       7.481   6.262  18.449  0.00  0.00    +0.000 A 
ATOM     25  C   UNL     1       7.277   6.425  17.079  0.00  0.00    +0.000 A 
ATOM     26  C   UNL     1       6.214   5.775  16.458  0.00  0.00    +0.000 A 
ATOM     27  C   UNL     1       5.360   4.959  17.204  0.00  0.00    +0.000 A 
ENDBRANCH  20  22
ENDBRANCH   2  16
TORSDOF 3
ENDMDL
MODEL 3
REMARK VINA RESULT:      -8.4      1.381      3.551
REMARK  Name = 
REMARK  3 active torsions:
REMARK  status: ('A' for Active; 'I' for Inactive)
REMARK    1  A    between atoms: C_8  and  N_9
REMARK    2  A    between atoms: C_10  and  C_12
REMARK    3  A    between atoms: C_16  and  C_17
REMARK                            x       y       z     vdW  Elec       q    Type
REMARK                         _______ _______ _______ _____ _____    ______ ____
ROOT
ATOM      1  N   UNL     1       2.983   6.857  19.168  0.00  0.00    +0.000 N 
ATOM      2  C   UNL     1       3.888   6.604  18.145  0.00  0.00    +0.000 C 
ATOM      3  O   UNL     1       4.000   7.274  17.127  0.00  0.00    +0.000 OA
ATOM      4  H   UNL     1       3.074   6.311  20.016  0.00  0.00    +0.000 HD
ENDROOT
BRANCH   1  12
ATOM      5  O   UNL     1      -0.036   9.677  22.684  0.00  0.00    +0.000 OA
ATOM      6  C   UNL     1      -0.084  10.026  21.521  0.00  0.00    +0.000 C 
ATOM      7  N   UNL     1      -0.812  11.074  20.996  0.00  0.00    +0.000 N 
ATOM      8  C   UNL     1      -0.642  11.221  19.572  0.00  0.00    +0.000 C 
ATOM      9  C   UNL     1       0.294  10.109  19.250  0.00  0.00    +0.000 A 
ATOM     10  C   UNL     1       0.818   9.733  18.036  0.00  0.00    +0.000 A 
ATOM     11  C   UNL     1       1.691   8.639  18.015  0.00  0.00    +0.000 A 
ATOM     12  C   UNL     1       2.058   7.934  19.184  0.00  0.00    +0.000 A 
ATOM     13  C   UNL     1       1.494   8.314  20.407  0.00  0.00    +0.000 A 
ATOM     14  C   UNL     1       0.628   9.400  20.404  0.00  0.00    +0.000 A 
ATOM     15  H   UNL     1      -1.389  11.664  21.580  0.00  0.00    +0.000 HD
ENDBRANCH   1  12
BRANCH   2  16
ATOM     16  C   UNL     1       4.777   5.469  18.355  0.00  0.00    +0.000 A 
ATOM     17  C   UNL     1       6.142   5.409  18.153  0.00  0.00    +0.000 A 
ATOM     18  N   UNL     1       6.544   4.215  18.676  0.00  0.00    +0.000 N 
ATOM     19  N   UNL     1       5.540   3.455  19.124  0.00  0.00    +0.000 NA
ATOM     20  C   UNL     1       4.434   4.196  18.930  0.00  0.00    +0.000 A 
ATOM     21  H   UNL     1       7.490   3.859  18.773  0.00  0.00    +0.000 HD
BRANCH  20  22
ATOM     22  C   UNL     1       3.105   3.677  19.297  0.00  0.00    +0.000 A 
ATOM     23  C   UNL     1       2.682   3.678  20.634  0.00  0.00    +0.000 A 
ATOM     24  C   UNL     1       1.405   3.223  20.981  0.00  0.00    +0.000 A 
ATOM     25  C   UNL     1       0.534   2.762  19.994  0.00  0.00    +0.000 A 
ATOM     26  C   UNL     1       0.948   2.735  18.666  0.00  0.00    +0.000 A 
ATOM     27  C   UNL     1       2.229   3.174  18.323  0.00  0.00    +0.000 A 
ENDBRANCH  20  22
ENDBRANCH   2  16
TORSDOF 3
ENDMDL
MODEL 4
REMARK VINA RESULT:      -8.4      2.629      4.294
REMARK  Name = 
REMARK  3 active torsions:
REMARK  status: ('A' for Active; 'I' for Inactive)
REMARK    1  A    between atoms: C_8  and  N_9
REMARK    2  A    between atoms: C_10  and  C_12
REMARK    3  A    between atoms: C_16  and  C_17
REMARK                            x       y       z     vdW  Elec       q    Type
REMARK                         _______ _______ _______ _____ _____    ______ ____
ROOT
ATOM      1  N   UNL     1       1.887   8.763  17.733  0.00  0.00    +0.000 N 
ATOM      2  C   UNL     1       2.414   7.793  18.576  0.00  0.00    +0.000 C 
ATOM      3  O   UNL     1       2.161   7.689  19.769  0.00  0.00    +0.000 OA
ATOM      4  H   UNL     1       2.069   8.667  16.742  0.00  0.00    +0.000 HD
ENDROOT
BRANCH   1  12
ATOM      5  O   UNL     1      -3.403   9.925  17.432  0.00  0.00    +0.000 OA
ATOM      6  C   UNL     1      -2.705  10.712  18.040  0.00  0.00    +0.000 C 
ATOM      7  N   UNL     1      -3.114  11.865  18.680  0.00  0.00    +0.000 N 
ATOM      8  C   UNL     1      -2.029  12.573  19.314  0.00  0.00    +0.000 C 
ATOM      9  C   UNL     1      -0.858  11.716  18.983  0.00  0.00    +0.000 A 
ATOM     10  C   UNL     1       0.467  11.884  19.309  0.00  0.00    +0.000 A 
ATOM     11  C   UNL     1       1.374  10.912  18.870  0.00  0.00    +0.000 A 
ATOM     12  C   UNL     1       0.974   9.775  18.133  0.00  0.00    +0.000 A 
ATOM     13  C   UNL     1      -0.375   9.633  17.787  0.00  0.00    +0.000 A 
ATOM     14  C   UNL     1      -1.256  10.611  18.229  0.00  0.00    +0.000 A 
ATOM     15  H   UNL     1      -4.083  12.151  18.690  0.00  0.00    +0.000 HD
ENDBRANCH   1  12
BRANCH   2  16
ATOM     16  C   UNL     1       3.301   6.824  17.946  0.00  0.00    +0.000 A 
ATOM     17  C   UNL     1       4.290   7.058  17.011  0.00  0.00    +0.000 A 
ATOM     18  N   UNL     1       4.968   5.883  16.881  0.00  0.00    +0.000 N 
ATOM     19  N   UNL     1       4.447   4.877  17.593  0.00  0.00    +0.000 NA
ATOM     20  C   UNL     1       3.410   5.423  18.253  0.00  0.00    +0.000 A 
ATOM     21  H   UNL     1       5.805   5.696  16.336  0.00  0.00    +0.000 HD
BRANCH  20  22
ATOM     22  C   UNL     1       2.570   4.606  19.145  0.00  0.00    +0.000 A 
ATOM     23  C   UNL     1       1.505   3.851  18.630  0.00  0.00    +0.000 A 
ATOM     24  C   UNL     1       0.730   3.043  19.469  0.00  0.00    +0.000 A 
ATOM     25  C   UNL     1       1.010   2.978  20.833  0.00  0.00    +0.000 A 
ATOM     26  C   UNL     1       2.049   3.738  21.362  0.00  0.00    +0.000 A 
ATOM     27  C   UNL     1       2.812   4.558  20.526  0.00  0.00    +0.000 A 
ENDBRANCH  20  22
ENDBRANCH   2  16
TORSDOF 3
ENDMDL
MODEL 5
REMARK VINA RESULT:      -8.4      1.861      3.645
REMARK  Name = 
REMARK  3 active torsions:
REMARK  status: ('A' for Active; 'I' for Inactive)
REMARK    1  A    between atoms: C_8  and  N_9
REMARK    2  A    between atoms: C_10  and  C_12
REMARK    3  A    between atoms: C_16  and  C_17
REMARK                            x       y       z     vdW  Elec       q    Type
REMARK                         _______ _______ _______ _____ _____    ______ ____
ROOT
ATOM      1  N   UNL     1       2.314   7.789  19.300  0.00  0.00    +0.000 N 
ATOM      2  C   UNL     1       2.807   7.757  18.001  0.00  0.00    +0.000 C 
ATOM      3  O   UNL     1       2.482   8.530  17.110  0.00  0.00    +0.000 OA
ATOM      4  H   UNL     1       2.754   7.181  19.979  0.00  0.00    +0.000 HD
ENDROOT
BRANCH   1  12
ATOM      5  O   UNL     1       0.261   9.563  23.997  0.00  0.00    +0.000 OA
ATOM      6  C   UNL     1      -0.145  10.100  22.986  0.00  0.00    +0.000 C 
ATOM      7  N   UNL     1      -1.063  11.128  22.901  0.00  0.00    +0.000 N 
ATOM      8  C   UNL     1      -1.323  11.541  21.545  0.00  0.00    +0.000 C 
ATOM      9  C   UNL     1      -0.448  10.625  20.763  0.00  0.00    +0.000 A 
ATOM     10  C   UNL     1      -0.275  10.533  19.403  0.00  0.00    +0.000 A 
ATOM     11  C   UNL     1       0.626   9.573  18.925  0.00  0.00    +0.000 A 
ATOM     12  C   UNL     1       1.362   8.726  19.783  0.00  0.00    +0.000 A 
ATOM     13  C   UNL     1       1.153   8.815  21.164  0.00  0.00    +0.000 A 
ATOM     14  C   UNL     1       0.252   9.770  21.615  0.00  0.00    +0.000 A 
ATOM     15  H   UNL     1      -1.484  11.533  23.727  0.00  0.00    +0.000 HD
ENDBRANCH   1  12
BRANCH   2  16
ATOM     16  C   UNL     1       3.811   6.737  17.732  0.00  0.00    +0.000 A 
ATOM     17  C   UNL     1       5.013   6.880  17.068  0.00  0.00    +0.000 A 
ATOM     18  N   UNL     1       5.682   5.706  17.247  0.00  0.00    +0.000 N 
ATOM     19  N   UNL     1       4.978   4.777  17.902  0.00  0.00    +0.000 NA
ATOM     20  C   UNL     1       3.813   5.378  18.206  0.00  0.00    +0.000 A 
ATOM     21  H   UNL     1       6.629   5.472  16.963  0.00  0.00    +0.000 HD
BRANCH  20  22
ATOM     22  C   UNL     1       2.756   4.653  18.930  0.00  0.00    +0.000 A 
ATOM     23  C   UNL     1       1.794   3.908  18.232  0.00  0.00    +0.000 A 
ATOM     24  C   UNL     1       0.812   3.185  18.918  0.00  0.00    +0.000 A 
ATOM     25  C   UNL     1       0.780   3.197  20.312  0.00  0.00    +0.000 A 
ATOM     26  C   UNL     1       1.715   3.948  21.018  0.00  0.00    +0.000 A 
ATOM     27  C   UNL     1       2.685   4.683  20.331  0.00  0.00    +0.000 A 
ENDBRANCH  20  22
ENDBRANCH   2  16
TORSDOF 3
ENDMDL
MODEL 6
REMARK VINA RESULT:      -8.3      1.602      1.959
REMARK  Name = 
REMARK  3 active torsions:
REMARK  status: ('A' for Active; 'I' for Inactive)
REMARK    1  A    between atoms: C_8  and  N_9
REMARK    2  A    between atoms: C_10  and  C_12
REMARK    3  A    between atoms: C_16  and  C_17
REMARK                            x       y       z     vdW  Elec       q    Type
REMARK                         _______ _______ _______ _____ _____    ______ ____
ROOT
ATOM      1  N   UNL     1       2.577   5.821  19.034  0.00  0.00    +0.000 N 
ATOM      2  C   UNL     1       2.000   4.833  18.245  0.00  0.00    +0.000 C 
ATOM      3  O   UNL     1       1.064   5.009  17.476  0.00  0.00    +0.000 OA
ATOM      4  H   UNL     1       3.426   5.583  19.530  0.00  0.00    +0.000 HD
ENDROOT
BRANCH   1  12
ATOM      5  O   UNL     1       0.766   9.534  22.549  0.00  0.00    +0.000 OA
ATOM      6  C   UNL     1       0.927   9.901  21.402  0.00  0.00    +0.000 C 
ATOM      7  N   UNL     1       0.715  11.168  20.896  0.00  0.00    +0.000 N 
ATOM      8  C   UNL     1       1.007  11.269  19.488  0.00  0.00    +0.000 C 
ATOM      9  C   UNL     1       1.430   9.881  19.154  0.00  0.00    +0.000 A 
ATOM     10  C   UNL     1       1.823   9.355  17.946  0.00  0.00    +0.000 A 
ATOM     11  C   UNL     1       2.179   8.002  17.911  0.00  0.00    +0.000 A 
ATOM     12  C   UNL     1       2.166   7.180  19.060  0.00  0.00    +0.000 A 
ATOM     13  C   UNL     1       1.737   7.726  20.276  0.00  0.00    +0.000 A 
ATOM     14  C   UNL     1       1.385   9.069  20.287  0.00  0.00    +0.000 A 
ATOM     15  H   UNL     1       0.394  11.927  21.482  0.00  0.00    +0.000 HD
ENDBRANCH   1  12
BRANCH   2  16
ATOM     16  C   UNL     1       2.608   3.513  18.342  0.00  0.00    +0.000 A 
ATOM     17  C   UNL     1       2.039   2.348  18.817  0.00  0.00    +0.000 A 
ATOM     18  N   UNL     1       2.922   1.353  18.520  0.00  0.00    +0.000 N 
ATOM     19  N   UNL     1       4.059   1.787  17.967  0.00  0.00    +0.000 NA
ATOM     20  C   UNL     1       3.902   3.118  17.854  0.00  0.00    +0.000 A 
ATOM     21  H   UNL     1       2.810   0.352  18.652  0.00  0.00    +0.000 HD
BRANCH  20  22
ATOM     22  C   UNL     1       4.971   3.959  17.290  0.00  0.00    +0.000 A 
ATOM     23  C   UNL     1       5.933   4.546  18.124  0.00  0.00    +0.000 A 
ATOM     24  C   UNL     1       6.974   5.313  17.588  0.00  0.00    +0.000 A 
ATOM     25  C   UNL     1       7.065   5.502  16.209  0.00  0.00    +0.000 A 
ATOM     26  C   UNL     1       6.105   4.944  15.370  0.00  0.00    +0.000 A 
ATOM     27  C   UNL     1       5.057   4.192  15.909  0.00  0.00    +0.000 A 
ENDBRANCH  20  22
ENDBRANCH   2  16
TORSDOF 3
ENDMDL
MODEL 7
REMARK VINA RESULT:      -8.3      1.384      3.465
REMARK  Name = 
REMARK  3 active torsions:
REMARK  status: ('A' for Active; 'I' for Inactive)
REMARK    1  A    between atoms: C_8  and  N_9
REMARK    2  A    between atoms: C_10  and  C_12
REMARK    3  A    between atoms: C_16  and  C_17
REMARK                            x       y       z     vdW  Elec       q    Type
REMARK                         _______ _______ _______ _____ _____    ______ ____
ROOT
ATOM      1  N   UNL     1       2.903   6.952  19.357  0.00  0.00    +0.000 N 
ATOM      2  C   UNL     1       3.758   6.707  18.290  0.00  0.00    +0.000 C 
ATOM      3  O   UNL     1       3.829   7.391  17.278  0.00  0.00    +0.000 OA
ATOM      4  H   UNL     1       3.028   6.393  20.192  0.00  0.00    +0.000 HD
ENDROOT
BRANCH   1  12
ATOM      5  O   UNL     1       0.334   9.964  23.067  0.00  0.00    +0.000 OA
ATOM      6  C   UNL     1       0.148  10.256  21.903  0.00  0.00    +0.000 C 
ATOM      7  N   UNL     1      -0.635  11.284  21.418  0.00  0.00    +0.000 N 
ATOM      8  C   UNL     1      -0.637  11.360  19.978  0.00  0.00    +0.000 C 
ATOM      9  C   UNL     1       0.251  10.226  19.601  0.00  0.00    +0.000 A 
ATOM     10  C   UNL     1       0.624   9.787  18.353  0.00  0.00    +0.000 A 
ATOM     11  C   UNL     1       1.486   8.686  18.281  0.00  0.00    +0.000 A 
ATOM     12  C   UNL     1       1.988   8.036  19.431  0.00  0.00    +0.000 A 
ATOM     13  C   UNL     1       1.577   8.480  20.693  0.00  0.00    +0.000 A 
ATOM     14  C   UNL     1       0.719   9.571  20.740  0.00  0.00    +0.000 A 
ATOM     15  H   UNL     1      -1.137  11.906  22.037  0.00  0.00    +0.000 HD
ENDBRANCH   1  12
BRANCH   2  16
ATOM     16  C   UNL     1       4.645   5.562  18.443  0.00  0.00    +0.000 A 
ATOM     17  C   UNL     1       6.008   5.505  18.220  0.00  0.00    +0.000 A 
ATOM     18  N   UNL     1       6.413   4.291  18.689  0.00  0.00    +0.000 N 
ATOM     19  N   UNL     1       5.412   3.517  19.121  0.00  0.00    +0.000 NA
ATOM     20  C   UNL     1       4.306   4.268  18.972  0.00  0.00    +0.000 A 
ATOM     21  H   UNL     1       7.359   3.928  18.759  0.00  0.00    +0.000 HD
BRANCH  20  22
ATOM     22  C   UNL     1       2.981   3.739  19.336  0.00  0.00    +0.000 A 
ATOM     23  C   UNL     1       2.105   3.263  18.349  0.00  0.00    +0.000 A 
ATOM     24  C   UNL     1       0.862   2.723  18.695  0.00  0.00    +0.000 A 
ATOM     25  C   UNL     1       0.477   2.653  20.033  0.00  0.00    +0.000 A 
ATOM     26  C   UNL     1       1.326   3.141  21.022  0.00  0.00    +0.000 A 
ATOM     27  C   UNL     1       2.560   3.695  20.674  0.00  0.00    +0.000 A 
ENDBRANCH  20  22
ENDBRANCH   2  16
TORSDOF 3
ENDMDL
MODEL 8
REMARK VINA RESULT:      -8.3      1.507      2.169
REMARK  Name = 
REMARK  3 active torsions:
REMARK  status: ('A' for Active; 'I' for Inactive)
REMARK    1  A    between atoms: C_8  and  N_9
REMARK    2  A    between atoms: C_10  and  C_12
REMARK    3  A    between atoms: C_16  and  C_17
REMARK                            x       y       z     vdW  Elec       q    Type
REMARK                         _______ _______ _______ _____ _____    ______ ____
ROOT
ATOM      1  N   UNL     1       2.504   6.298  20.463  0.00  0.00    +0.000 N 
ATOM      2  C   UNL     1       2.503   5.289  19.507  0.00  0.00    +0.000 C 
ATOM      3  O   UNL     1       1.844   5.304  18.476  0.00  0.00    +0.000 OA
ATOM      4  H   UNL     1       3.186   6.232  21.208  0.00  0.00    +0.000 HD
ENDROOT
BRANCH   1  12
ATOM      5  O   UNL     1       2.074  10.729  17.363  0.00  0.00    +0.000 OA
ATOM      6  C   UNL     1       1.293  10.632  18.289  0.00  0.00    +0.000 C 
ATOM      7  N   UNL     1       0.293  11.520  18.630  0.00  0.00    +0.000 N 
ATOM      8  C   UNL     1      -0.462  11.103  19.786  0.00  0.00    +0.000 C 
ATOM      9  C   UNL     1       0.201   9.820  20.148  0.00  0.00    +0.000 A 
ATOM     10  C   UNL     1      -0.075   8.957  21.182  0.00  0.00    +0.000 A 
ATOM     11  C   UNL     1       0.709   7.803  21.292  0.00  0.00    +0.000 A 
ATOM     12  C   UNL     1       1.744   7.494  20.380  0.00  0.00    +0.000 A 
ATOM     13  C   UNL     1       2.028   8.398  19.350  0.00  0.00    +0.000 A 
ATOM     14  C   UNL     1       1.240   9.538  19.262  0.00  0.00    +0.000 A 
ATOM     15  H   UNL     1       0.129  12.365  18.099  0.00  0.00    +0.000 HD
ENDBRANCH   1  12
BRANCH   2  16
ATOM     16  C   UNL     1       3.392   4.167  19.772  0.00  0.00    +0.000 A 
ATOM     17  C   UNL     1       3.087   2.965  20.382  0.00  0.00    +0.000 A 
ATOM     18  N   UNL     1       4.185   2.174  20.219  0.00  0.00    +0.000 N 
ATOM     19  N   UNL     1       5.213   2.792  19.628  0.00  0.00    +0.000 NA
ATOM     20  C   UNL     1       4.760   4.027  19.349  0.00  0.00    +0.000 A 
ATOM     21  H   UNL     1       4.300   1.198  20.473  0.00  0.00    +0.000 HD
BRANCH  20  22
ATOM     22  C   UNL     1       5.629   5.020  18.696  0.00  0.00    +0.000 A 
ATOM     23  C   UNL     1       6.822   5.436  19.304  0.00  0.00    +0.000 A 
ATOM     24  C   UNL     1       7.670   6.349  18.668  0.00  0.00    +0.000 A 
ATOM     25  C   UNL     1       7.335   6.858  17.414  0.00  0.00    +0.000 A 
ATOM     26  C   UNL     1       6.144   6.472  16.807  0.00  0.00    +0.000 A 
ATOM     27  C   UNL     1       5.290   5.572  17.451  0.00  0.00    +0.000 A 
ENDBRANCH  20  22
ENDBRANCH   2  16
TORSDOF 3
ENDMDL
MODEL 9
REMARK VINA RESULT:      -8.2      2.047      3.597
REMARK  Name = 
REMARK  3 active torsions:
REMARK  status: ('A' for Active; 'I' for Inactive)
REMARK    1  A    between atoms: C_8  and  N_9
REMARK    2  A    between atoms: C_10  and  C_12
REMARK    3  A    between atoms: C_16  and  C_17
REMARK                            x       y       z     vdW  Elec       q    Type
REMARK                         _______ _______ _______ _____ _____    ______ ____
ROOT
ATOM      1  N   UNL     1       2.618   6.645  18.065  0.00  0.00    +0.000 N 
ATOM      2  C   UNL     1       3.928   6.528  17.617  0.00  0.00    +0.000 C 
ATOM      3  O   UNL     1       4.736   7.445  17.571  0.00  0.00    +0.000 OA
ATOM      4  H   UNL     1       2.087   5.791  18.178  0.00  0.00    +0.000 HD
ENDROOT
BRANCH   1  12
ATOM      5  O   UNL     1       1.026   8.933  22.718  0.00  0.00    +0.000 OA
ATOM      6  C   UNL     1       0.898   9.600  21.710  0.00  0.00    +0.000 C 
ATOM      7  N   UNL     1       0.407  10.886  21.620  0.00  0.00    +0.000 N 
ATOM      8  C   UNL     1       0.393  11.392  20.270  0.00  0.00    +0.000 C 
ATOM      9  C   UNL     1       0.938  10.242  19.498  0.00  0.00    +0.000 A 
ATOM     10  C   UNL     1       1.154  10.122  18.145  0.00  0.00    +0.000 A 
ATOM     11  C   UNL     1       1.689   8.916  17.676  0.00  0.00    +0.000 A 
ATOM     12  C   UNL     1       2.027   7.847  18.536  0.00  0.00    +0.000 A 
ATOM     13  C   UNL     1       1.776   7.976  19.907  0.00  0.00    +0.000 A 
ATOM     14  C   UNL     1       1.240   9.179  20.349  0.00  0.00    +0.000 A 
ATOM     15  H   UNL     1       0.102  11.397  22.438  0.00  0.00    +0.000 HD
ENDBRANCH   1  12
BRANCH   2  16
ATOM     16  C   UNL     1       4.342   5.189  17.219  0.00  0.00    +0.000 A 
ATOM     17  C   UNL     1       5.277   4.836  16.265  0.00  0.00    +0.000 A 
ATOM     18  N   UNL     1       5.457   3.491  16.398  0.00  0.00    +0.000 N 
ATOM     19  N   UNL     1       4.652   2.925  17.303  0.00  0.00    +0.000 NA
ATOM     20  C   UNL     1       3.943   3.945  17.820  0.00  0.00    +0.000 A 
ATOM     21  H   UNL     1       6.122   2.895  15.915  0.00  0.00    +0.000 HD
BRANCH  20  22
ATOM     22  C   UNL     1       2.925   3.706  18.857  0.00  0.00    +0.000 A 
ATOM     23  C   UNL     1       1.663   3.197  18.517  0.00  0.00    +0.000 A 
ATOM     24  C   UNL     1       0.708   2.932  19.505  0.00  0.00    +0.000 A 
ATOM     25  C   UNL     1       1.003   3.172  20.846  0.00  0.00    +0.000 A 
ATOM     26  C   UNL     1       2.243   3.697  21.197  0.00  0.00    +0.000 A 
ATOM     27  C   UNL     1       3.190   3.977  20.208  0.00  0.00    +0.000 A 
ENDBRANCH  20  22
ENDBRANCH   2  16
TORSDOF 3
ENDMDL
