MODEL 1
REMARK VINA RESULT:      -8.2      0.000      0.000
REMARK  Name = 
REMARK  8 active torsions:
REMARK  status: ('A' for Active; 'I' for Inactive)
REMARK    1  A    between atoms: C_1  and  C_2
REMARK    2  A    between atoms: C_5  and  C_6
REMARK    3  A    between atoms: C_7  and  N_8
REMARK    4  A    between atoms: C_11  and  N_12
REMARK    5  A    between atoms: N_12  and  C_13
REMARK    6  A    between atoms: C_13  and  C_14
REMARK    7  A    between atoms: C_13  and  C_20
REMARK    8  A    between atoms: C_25  and  C_26
REMARK                            x       y       z     vdW  Elec       q    Type
REMARK                         _______ _______ _______ _____ _____    ______ ____
ROOT
ATOM      1  N   UNL     1       2.558   6.686  19.761  0.00  0.00    +0.000 N 
ATOM      2  H   UNL     1       3.011   6.683  20.675  0.00  0.00    +0.000 HD
ENDROOT
BRANCH   1   6
ATOM      3  N   UNL     1       1.346   9.811  18.713  0.00  0.00    +0.000 N 
ATOM      4  N   UNL     1       1.963   9.428  17.561  0.00  0.00    +0.000 NA
ATOM      5  C   UNL     1       2.490   8.237  17.828  0.00  0.00    +0.000 A 
ATOM      6  C   UNL     1       2.204   7.819  19.131  0.00  0.00    +0.000 A 
ATOM      7  C   UNL     1       1.422   8.808  19.682  0.00  0.00    +0.000 A 
ATOM      8  C   UNL     1       0.708   8.821  20.987  0.00  0.00    +0.000 C 
BRANCH   3  15
ATOM      9  C   UNL     1       1.817  14.626  19.798  0.00  0.00    +0.000 C 
ATOM     10  C   UNL     1       0.958  13.481  19.354  0.00  0.00    +0.000 A 
ATOM     11  C   UNL     1      -0.396  13.659  19.082  0.00  0.00    +0.000 A 
ATOM     12  C   UNL     1      -1.175  12.584  18.646  0.00  0.00    +0.000 A 
ATOM     13  C   UNL     1      -0.630  11.297  18.499  0.00  0.00    +0.000 A 
ATOM     14  C   UNL     1      -1.555  10.193  18.058  0.00  0.00    +0.000 C 
ATOM     15  C   UNL     1       0.736  11.102  18.803  0.00  0.00    +0.000 A 
ATOM     16  C   UNL     1       1.518  12.204  19.195  0.00  0.00    +0.000 A 
ENDBRANCH   3  15
ENDBRANCH   1   6
BRANCH   1  17
ATOM     17  C   UNL     1       2.678   5.370  19.119  0.00  0.00    +0.000 C 
BRANCH  17  18
ATOM     18  C   UNL     1       4.060   5.131  18.491  0.00  0.00    +0.000 A 
ATOM     19  C   UNL     1       4.196   4.646  17.184  0.00  0.00    +0.000 A 
ATOM     20  C   UNL     1       5.467   4.367  16.688  0.00  0.00    +0.000 A 
ATOM     21  C   UNL     1       6.576   4.600  17.490  0.00  0.00    +0.000 A 
ATOM     22  C   UNL     1       6.367   5.127  18.753  0.00  0.00    +0.000 A 
ATOM     23  N   UNL     1       5.148   5.409  19.266  0.00  0.00    +0.000 NA
ENDBRANCH  17  18
BRANCH  17  24
ATOM     24  C   UNL     1       2.335   4.279  20.109  0.00  0.00    +0.000 A 
ATOM     25  N   UNL     1       1.147   4.050  20.647  0.00  0.00    +0.000 NA
ATOM     26  C   UNL     1       1.307   2.944  21.437  0.00  0.00    +0.000 A 
ATOM     27  C   UNL     1       2.607   2.508  21.405  0.00  0.00    +0.000 A 
ATOM     28  N   UNL     1       3.255   3.362  20.556  0.00  0.00    +0.000 N 
ATOM     29  H   UNL     1       4.236   3.347  20.301  0.00  0.00    +0.000 HD
ENDBRANCH  17  24
ENDBRANCH   1  17
TORSDOF 5
ENDMDL
MODEL 2
REMARK VINA RESULT:      -8.0      0.949      2.407
REMARK  Name = 
REMARK  8 active torsions:
REMARK  status: ('A' for Active; 'I' for Inactive)
REMARK    1  A    between atoms: C_1  and  C_2
REMARK    2  A    between atoms: C_5  and  C_6
REMARK    3  A    between atoms: C_7  and  N_8
REMARK    4  A    between atoms: C_11  and  N_12
REMARK    5  A    between atoms: N_12  and  C_13
REMARK    6  A    between atoms: C_13  and  C_14
REMARK    7  A    between atoms: C_13  and  C_20
REMARK    8  A    between atoms: C_25  and  C_26
REMARK                            x       y       z     vdW  Elec       q    Type
REMARK                         _______ _______ _______ _____ _____    ______ ____
ROOT
ATOM      1  N   UNL     1       2.924   6.724  20.034  0.00  0.00    +0.000 N 
ATOM      2  H   UNL     1       3.902   6.889  20.271  0.00  0.00    +0.000 HD
ENDROOT
BRANCH   1   6
ATOM      3  N   UNL     1       0.580   9.317  19.696  0.00  0.00    +0.000 N 
ATOM      4  N   UNL     1       0.360   9.004  21.003  0.00  0.00    +0.000 NA
ATOM      5  C   UNL     1       1.193   8.002  21.266  0.00  0.00    +0.000 A 
ATOM      6  C   UNL     1       1.978   7.670  20.158  0.00  0.00    +0.000 A 
ATOM      7  C   UNL     1       1.620   8.552  19.164  0.00  0.00    +0.000 A 
ATOM      8  C   UNL     1       2.235   8.755  17.824  0.00  0.00    +0.000 C 
BRANCH   3  15
ATOM      9  C   UNL     1      -3.382  10.394  16.916  0.00  0.00    +0.000 C 
ATOM     10  C   UNL     1      -2.168  10.853  17.666  0.00  0.00    +0.000 A 
ATOM     11  C   UNL     1      -1.808  12.197  17.700  0.00  0.00    +0.000 A 
ATOM     12  C   UNL     1      -0.686  12.608  18.424  0.00  0.00    +0.000 A 
ATOM     13  C   UNL     1       0.122  11.684  19.110  0.00  0.00    +0.000 A 
ATOM     14  C   UNL     1       1.331  12.216  19.834  0.00  0.00    +0.000 C 
ATOM     15  C   UNL     1      -0.220  10.314  19.054  0.00  0.00    +0.000 A 
ATOM     16  C   UNL     1      -1.379   9.922  18.360  0.00  0.00    +0.000 A 
ENDBRANCH   3  15
ENDBRANCH   1   6
BRANCH   1  17
ATOM     17  C   UNL     1       2.784   5.494  19.243  0.00  0.00    +0.000 C 
BRANCH  17  18
ATOM     18  C   UNL     1       4.043   5.156  18.429  0.00  0.00    +0.000 A 
ATOM     19  C   UNL     1       3.959   4.691  17.111  0.00  0.00    +0.000 A 
ATOM     20  C   UNL     1       5.122   4.319  16.442  0.00  0.00    +0.000 A 
ATOM     21  C   UNL     1       6.346   4.442  17.086  0.00  0.00    +0.000 A 
ATOM     22  C   UNL     1       6.356   4.957  18.371  0.00  0.00    +0.000 A 
ATOM     23  N   UNL     1       5.245   5.326  19.050  0.00  0.00    +0.000 NA
ENDBRANCH  17  18
BRANCH  17  24
ATOM     24  C   UNL     1       2.393   4.342  20.142  0.00  0.00    +0.000 A 
ATOM     25  N   UNL     1       1.195   4.121  20.661  0.00  0.00    +0.000 NA
ATOM     26  C   UNL     1       1.307   2.949  21.360  0.00  0.00    +0.000 A 
ATOM     27  C   UNL     1       2.588   2.464  21.293  0.00  0.00    +0.000 A 
ATOM     28  N   UNL     1       3.274   3.355  20.515  0.00  0.00    +0.000 N 
ATOM     29  H   UNL     1       4.255   3.321  20.260  0.00  0.00    +0.000 HD
ENDBRANCH  17  24
ENDBRANCH   1  17
TORSDOF 5
ENDMDL
MODEL 3
REMARK VINA RESULT:      -8.0      1.358      2.516
REMARK  Name = 
REMARK  8 active torsions:
REMARK  status: ('A' for Active; 'I' for Inactive)
REMARK    1  A    between atoms: C_1  and  C_2
REMARK    2  A    between atoms: C_5  and  C_6
REMARK    3  A    between atoms: C_7  and  N_8
REMARK    4  A    between atoms: C_11  and  N_12
REMARK    5  A    between atoms: N_12  and  C_13
REMARK    6  A    between atoms: C_13  and  C_14
REMARK    7  A    between atoms: C_13  and  C_20
REMARK    8  A    between atoms: C_25  and  C_26
REMARK                            x       y       z     vdW  Elec       q    Type
REMARK                         _______ _______ _______ _____ _____    ______ ____
ROOT
ATOM      1  N   UNL     1       2.760   6.804  19.789  0.00  0.00    +0.000 N 
ATOM      2  H   UNL     1       3.771   6.917  19.863  0.00  0.00    +0.000 HD
ENDROOT
BRANCH   1   6
ATOM      3  N   UNL     1       0.587   9.558  19.956  0.00  0.00    +0.000 N 
ATOM      4  N   UNL     1       0.451   9.105  21.233  0.00  0.00    +0.000 NA
ATOM      5  C   UNL     1       1.229   8.030  21.306  0.00  0.00    +0.000 A 
ATOM      6  C   UNL     1       1.896   7.785  20.102  0.00  0.00    +0.000 A 
ATOM      7  C   UNL     1       1.525   8.800  19.251  0.00  0.00    +0.000 A 
ATOM      8  C   UNL     1       2.043   9.124  17.895  0.00  0.00    +0.000 C 
BRANCH   3  15
ATOM      9  C   UNL     1      -3.396  11.203  17.503  0.00  0.00    +0.000 C 
ATOM     10  C   UNL     1      -2.147  11.494  18.279  0.00  0.00    +0.000 A 
ATOM     11  C   UNL     1      -1.734  12.802  18.515  0.00  0.00    +0.000 A 
ATOM     12  C   UNL     1      -0.579  13.052  19.262  0.00  0.00    +0.000 A 
ATOM     13  C   UNL     1       0.209  12.003  19.767  0.00  0.00    +0.000 A 
ATOM     14  C   UNL     1       1.454  12.370  20.531  0.00  0.00    +0.000 C 
ATOM     15  C   UNL     1      -0.189  10.673  19.506  0.00  0.00    +0.000 A 
ATOM     16  C   UNL     1      -1.379  10.437  18.793  0.00  0.00    +0.000 A 
ENDBRANCH   3  15
ENDBRANCH   1   6
BRANCH   1  17
ATOM     17  C   UNL     1       2.429   5.617  18.991  0.00  0.00    +0.000 C 
BRANCH  17  18
ATOM     18  C   UNL     1       3.496   5.281  17.938  0.00  0.00    +0.000 A 
ATOM     19  C   UNL     1       4.259   6.283  17.324  0.00  0.00    +0.000 A 
ATOM     20  C   UNL     1       5.156   5.937  16.317  0.00  0.00    +0.000 A 
ATOM     21  C   UNL     1       5.296   4.603  15.959  0.00  0.00    +0.000 A 
ATOM     22  C   UNL     1       4.545   3.663  16.644  0.00  0.00    +0.000 A 
ATOM     23  N   UNL     1       3.664   3.964  17.626  0.00  0.00    +0.000 NA
ENDBRANCH  17  18
BRANCH  17  24
ATOM     24  C   UNL     1       2.175   4.436  19.902  0.00  0.00    +0.000 A 
ATOM     25  N   UNL     1       0.993   3.949  20.247  0.00  0.00    +0.000 NA
ATOM     26  C   UNL     1       1.259   2.864  21.039  0.00  0.00    +0.000 A 
ATOM     27  C   UNL     1       2.611   2.702  21.203  0.00  0.00    +0.000 A 
ATOM     28  N   UNL     1       3.188   3.705  20.475  0.00  0.00    +0.000 N 
ATOM     29  H   UNL     1       4.178   3.900  20.375  0.00  0.00    +0.000 HD
ENDBRANCH  17  24
ENDBRANCH   1  17
TORSDOF 5
ENDMDL
MODEL 4
REMARK VINA RESULT:      -8.0      1.322      1.461
REMARK  Name = 
REMARK  8 active torsions:
REMARK  status: ('A' for Active; 'I' for Inactive)
REMARK    1  A    between atoms: C_1  and  C_2
REMARK    2  A    between atoms: C_5  and  C_6
REMARK    3  A    between atoms: C_7  and  N_8
REMARK    4  A    between atoms: C_11  and  N_12
REMARK    5  A    between atoms: N_12  and  C_13
REMARK    6  A    between atoms: C_13  and  C_14
REMARK    7  A    between atoms: C_13  and  C_20
REMARK    8  A    between atoms: C_25  and  C_26
REMARK                            x       y       z     vdW  Elec       q    Type
REMARK                         _______ _______ _______ _____ _____    ______ ____
ROOT
ATOM      1  N   UNL     1       2.775   6.596  19.239  0.00  0.00    +0.000 N 
ATOM      2  H   UNL     1       2.917   6.326  20.212  0.00  0.00    +0.000 HD
ENDROOT
BRANCH   1   6
ATOM      3  N   UNL     1       1.234   9.739  18.957  0.00  0.00    +0.000 N 
ATOM      4  N   UNL     1       1.725   9.632  17.692  0.00  0.00    +0.000 NA
ATOM      5  C   UNL     1       2.361   8.465  17.663  0.00  0.00    +0.000 A 
ATOM      6  C   UNL     1       2.269   7.790  18.883  0.00  0.00    +0.000 A 
ATOM      7  C   UNL     1       1.498   8.585  19.699  0.00  0.00    +0.000 A 
ATOM      8  C   UNL     1       0.956   8.294  21.053  0.00  0.00    +0.000 C 
BRANCH   3  15
ATOM      9  C   UNL     1       1.426  14.113  21.285  0.00  0.00    +0.000 C 
ATOM     10  C   UNL     1       0.638  13.088  20.527  0.00  0.00    +0.000 A 
ATOM     11  C   UNL     1      -0.717  13.270  20.266  0.00  0.00    +0.000 A 
ATOM     12  C   UNL     1      -1.428  12.314  19.537  0.00  0.00    +0.000 A 
ATOM     13  C   UNL     1      -0.813  11.137  19.075  0.00  0.00    +0.000 A 
ATOM     14  C   UNL     1      -1.670  10.148  18.328  0.00  0.00    +0.000 C 
ATOM     15  C   UNL     1       0.555  10.931  19.363  0.00  0.00    +0.000 A 
ATOM     16  C   UNL     1       1.269  11.925  20.057  0.00  0.00    +0.000 A 
ENDBRANCH   3  15
ENDBRANCH   1   6
BRANCH   1  17
ATOM     17  C   UNL     1       3.502   5.691  18.340  0.00  0.00    +0.000 C 
BRANCH  17  18
ATOM     18  C   UNL     1       5.024   5.900  18.376  0.00  0.00    +0.000 A 
ATOM     19  C   UNL     1       5.694   6.581  17.352  0.00  0.00    +0.000 A 
ATOM     20  C   UNL     1       7.083   6.673  17.388  0.00  0.00    +0.000 A 
ATOM     21  C   UNL     1       7.775   6.112  18.453  0.00  0.00    +0.000 A 
ATOM     22  C   UNL     1       7.041   5.498  19.454  0.00  0.00    +0.000 A 
ATOM     23  N   UNL     1       5.693   5.390  19.450  0.00  0.00    +0.000 NA
ENDBRANCH  17  18
BRANCH  17  24
ATOM     24  C   UNL     1       3.144   4.254  18.652  0.00  0.00    +0.000 A 
ATOM     25  N   UNL     1       2.019   3.827  19.204  0.00  0.00    +0.000 NA
ATOM     26  C   UNL     1       2.126   2.462  19.247  0.00  0.00    +0.000 A 
ATOM     27  C   UNL     1       3.334   2.053  18.744  0.00  0.00    +0.000 A 
ATOM     28  N   UNL     1       3.977   3.200  18.366  0.00  0.00    +0.000 N 
ATOM     29  H   UNL     1       4.902   3.279  17.961  0.00  0.00    +0.000 HD
ENDBRANCH  17  24
ENDBRANCH   1  17
TORSDOF 5
ENDMDL
MODEL 5
REMARK VINA RESULT:      -7.8      1.096      1.128
REMARK  Name = 
REMARK  8 active torsions:
REMARK  status: ('A' for Active; 'I' for Inactive)
REMARK    1  A    between atoms: C_1  and  C_2
REMARK    2  A    between atoms: C_5  and  C_6
REMARK    3  A    between atoms: C_7  and  N_8
REMARK    4  A    between atoms: C_11  and  N_12
REMARK    5  A    between atoms: N_12  and  C_13
REMARK    6  A    between atoms: C_13  and  C_14
REMARK    7  A    between atoms: C_13  and  C_20
REMARK    8  A    between atoms: C_25  and  C_26
REMARK                            x       y       z     vdW  Elec       q    Type
REMARK                         _______ _______ _______ _____ _____    ______ ____
ROOT
ATOM      1  N   UNL     1       2.702   6.601  19.151  0.00  0.00    +0.000 N 
ATOM      2  H   UNL     1       3.131   6.392  20.053  0.00  0.00    +0.000 HD
ENDROOT
BRANCH   1   6
ATOM      3  N   UNL     1       1.298   9.814  18.947  0.00  0.00    +0.000 N 
ATOM      4  N   UNL     1       1.817   9.731  17.692  0.00  0.00    +0.000 NA
ATOM      5  C   UNL     1       2.405   8.540  17.635  0.00  0.00    +0.000 A 
ATOM      6  C   UNL     1       2.255   7.827  18.828  0.00  0.00    +0.000 A 
ATOM      7  C   UNL     1       1.496   8.624  19.652  0.00  0.00    +0.000 A 
ATOM      8  C   UNL     1       0.907   8.308  20.982  0.00  0.00    +0.000 C 
BRANCH   3  15
ATOM      9  C   UNL     1       1.673  14.197  21.235  0.00  0.00    +0.000 C 
ATOM     10  C   UNL     1       0.833  13.179  20.525  0.00  0.00    +0.000 A 
ATOM     11  C   UNL     1      -0.531  13.380  20.332  0.00  0.00    +0.000 A 
ATOM     12  C   UNL     1      -1.293  12.431  19.647  0.00  0.00    +0.000 A 
ATOM     13  C   UNL     1      -0.720  11.242  19.161  0.00  0.00    +0.000 A 
ATOM     14  C   UNL     1      -1.628  10.262  18.465  0.00  0.00    +0.000 C 
ATOM     15  C   UNL     1       0.658  11.018  19.380  0.00  0.00    +0.000 A 
ATOM     16  C   UNL     1       1.421  12.005  20.030  0.00  0.00    +0.000 A 
ENDBRANCH   3  15
ENDBRANCH   1   6
BRANCH   1  17
ATOM     17  C   UNL     1       2.966   5.522  18.190  0.00  0.00    +0.000 C 
BRANCH  17  18
ATOM     18  C   UNL     1       4.466   5.273  17.962  0.00  0.00    +0.000 A 
ATOM     19  C   UNL     1       4.962   4.901  16.706  0.00  0.00    +0.000 A 
ATOM     20  C   UNL     1       6.316   4.606  16.568  0.00  0.00    +0.000 A 
ATOM     21  C   UNL     1       7.152   4.713  17.671  0.00  0.00    +0.000 A 
ATOM     22  C   UNL     1       6.599   5.135  18.868  0.00  0.00    +0.000 A 
ATOM     23  N   UNL     1       5.289   5.429  19.038  0.00  0.00    +0.000 NA
ENDBRANCH  17  18
BRANCH  17  24
ATOM     24  C   UNL     1       2.266   4.255  18.629  0.00  0.00    +0.000 A 
ATOM     25  N   UNL     1       1.317   3.612  17.968  0.00  0.00    +0.000 NA
ATOM     26  C   UNL     1       1.025   2.508  18.724  0.00  0.00    +0.000 A 
ATOM     27  C   UNL     1       1.779   2.490  19.868  0.00  0.00    +0.000 A 
ATOM     28  N   UNL     1       2.568   3.605  19.801  0.00  0.00    +0.000 N 
ATOM     29  H   UNL     1       3.247   3.919  20.486  0.00  0.00    +0.000 HD
ENDBRANCH  17  24
ENDBRANCH   1  17
TORSDOF 5
ENDMDL
MODEL 6
REMARK VINA RESULT:      -7.8      0.687      1.024
REMARK  Name = 
REMARK  8 active torsions:
REMARK  status: ('A' for Active; 'I' for Inactive)
REMARK    1  A    between atoms: C_1  and  C_2
REMARK    2  A    between atoms: C_5  and  C_6
REMARK    3  A    between atoms: C_7  and  N_8
REMARK    4  A    between atoms: C_11  and  N_12
REMARK    5  A    between atoms: N_12  and  C_13
REMARK    6  A    between atoms: C_13  and  C_14
REMARK    7  A    between atoms: C_13  and  C_20
REMARK    8  A    between atoms: C_25  and  C_26
REMARK                            x       y       z     vdW  Elec       q    Type
REMARK                         _______ _______ _______ _____ _____    ______ ____
ROOT
ATOM      1  N   UNL     1       2.690   6.648  19.669  0.00  0.00    +0.000 N 
ATOM      2  H   UNL     1       3.163   6.639  20.573  0.00  0.00    +0.000 HD
ENDROOT
BRANCH   1   6
ATOM      3  N   UNL     1       1.375   9.760  18.711  0.00  0.00    +0.000 N 
ATOM      4  N   UNL     1       1.979   9.418  17.540  0.00  0.00    +0.000 NA
ATOM      5  C   UNL     1       2.543   8.237  17.772  0.00  0.00    +0.000 A 
ATOM      6  C   UNL     1       2.294   7.784  19.070  0.00  0.00    +0.000 A 
ATOM      7  C   UNL     1       1.497   8.740  19.657  0.00  0.00    +0.000 A 
ATOM      8  C   UNL     1       0.809   8.707  20.976  0.00  0.00    +0.000 C 
BRANCH   3  15
ATOM      9  C   UNL     1       1.690  14.522  20.057  0.00  0.00    +0.000 C 
ATOM     10  C   UNL     1       0.876  13.383  19.520  0.00  0.00    +0.000 A 
ATOM     11  C   UNL     1      -0.468  13.548  19.199  0.00  0.00    +0.000 A 
ATOM     12  C   UNL     1      -1.203  12.481  18.677  0.00  0.00    +0.000 A 
ATOM     13  C   UNL     1      -0.624  11.214  18.488  0.00  0.00    +0.000 A 
ATOM     14  C   UNL     1      -1.505  10.115  17.952  0.00  0.00    +0.000 C 
ATOM     15  C   UNL     1       0.732  11.032  18.840  0.00  0.00    +0.000 A 
ATOM     16  C   UNL     1       1.472  12.128  19.320  0.00  0.00    +0.000 A 
ENDBRANCH   3  15
ENDBRANCH   1   6
BRANCH   1  17
ATOM     17  C   UNL     1       2.832   5.350  18.998  0.00  0.00    +0.000 C 
BRANCH  17  18
ATOM     18  C   UNL     1       4.256   5.092  18.480  0.00  0.00    +0.000 A 
ATOM     19  C   UNL     1       5.383   5.470  19.218  0.00  0.00    +0.000 A 
ATOM     20  C   UNL     1       6.651   5.289  18.670  0.00  0.00    +0.000 A 
ATOM     21  C   UNL     1       6.772   4.714  17.413  0.00  0.00    +0.000 A 
ATOM     22  C   UNL     1       5.615   4.320  16.763  0.00  0.00    +0.000 A 
ATOM     23  N   UNL     1       4.369   4.480  17.266  0.00  0.00    +0.000 NA
ENDBRANCH  17  18
BRANCH  17  24
ATOM     24  C   UNL     1       2.380   4.239  19.921  0.00  0.00    +0.000 A 
ATOM     25  N   UNL     1       1.991   4.371  21.179  0.00  0.00    +0.000 NA
ATOM     26  C   UNL     1       1.635   3.114  21.588  0.00  0.00    +0.000 A 
ATOM     27  C   UNL     1       1.834   2.202  20.584  0.00  0.00    +0.000 A 
ATOM     28  N   UNL     1       2.307   2.925  19.525  0.00  0.00    +0.000 N 
ATOM     29  H   UNL     1       2.573   2.574  18.612  0.00  0.00    +0.000 HD
ENDBRANCH  17  24
ENDBRANCH   1  17
TORSDOF 5
ENDMDL
MODEL 7
REMARK VINA RESULT:      -7.8      1.181      2.615
REMARK  Name = 
REMARK  8 active torsions:
REMARK  status: ('A' for Active; 'I' for Inactive)
REMARK    1  A    between atoms: C_1  and  C_2
REMARK    2  A    between atoms: C_5  and  C_6
REMARK    3  A    between atoms: C_7  and  N_8
REMARK    4  A    between atoms: C_11  and  N_12
REMARK    5  A    between atoms: N_12  and  C_13
REMARK    6  A    between atoms: C_13  and  C_14
REMARK    7  A    between atoms: C_13  and  C_20
REMARK    8  A    between atoms: C_25  and  C_26
REMARK                            x       y       z     vdW  Elec       q    Type
REMARK                         _______ _______ _______ _____ _____    ______ ____
ROOT
ATOM      1  N   UNL     1       2.947   6.657  19.997  0.00  0.00    +0.000 N 
ATOM      2  H   UNL     1       3.911   6.778  20.308  0.00  0.00    +0.000 HD
ENDROOT
BRANCH   1   6
ATOM      3  N   UNL     1       0.640   9.286  19.688  0.00  0.00    +0.000 N 
ATOM      4  N   UNL     1       0.424   8.970  20.995  0.00  0.00    +0.000 NA
ATOM      5  C   UNL     1       1.244   7.954  21.247  0.00  0.00    +0.000 A 
ATOM      6  C   UNL     1       2.016   7.616  20.132  0.00  0.00    +0.000 A 
ATOM      7  C   UNL     1       1.666   8.509  19.145  0.00  0.00    +0.000 A 
ATOM      8  C   UNL     1       2.275   8.711  17.803  0.00  0.00    +0.000 C 
BRANCH   3  15
ATOM      9  C   UNL     1      -3.332  10.440  16.953  0.00  0.00    +0.000 C 
ATOM     10  C   UNL     1      -2.102  10.875  17.691  0.00  0.00    +0.000 A 
ATOM     11  C   UNL     1      -1.717  12.213  17.724  0.00  0.00    +0.000 A 
ATOM     12  C   UNL     1      -0.581  12.602  18.437  0.00  0.00    +0.000 A 
ATOM     13  C   UNL     1       0.218  11.662  19.112  0.00  0.00    +0.000 A 
ATOM     14  C   UNL     1       1.444  12.172  19.825  0.00  0.00    +0.000 C 
ATOM     15  C   UNL     1      -0.149  10.299  19.058  0.00  0.00    +0.000 A 
ATOM     16  C   UNL     1      -1.322   9.929  18.374  0.00  0.00    +0.000 A 
ENDBRANCH   3  15
ENDBRANCH   1   6
BRANCH   1  17
ATOM     17  C   UNL     1       2.834   5.495  19.106  0.00  0.00    +0.000 C 
BRANCH  17  18
ATOM     18  C   UNL     1       4.149   5.156  18.387  0.00  0.00    +0.000 A 
ATOM     19  C   UNL     1       5.385   5.250  19.039  0.00  0.00    +0.000 A 
ATOM     20  C   UNL     1       6.555   5.012  18.322  0.00  0.00    +0.000 A 
ATOM     21  C   UNL     1       6.472   4.660  16.982  0.00  0.00    +0.000 A 
ATOM     22  C   UNL     1       5.213   4.537  16.418  0.00  0.00    +0.000 A 
ATOM     23  N   UNL     1       4.057   4.762  17.085  0.00  0.00    +0.000 NA
ENDBRANCH  17  18
BRANCH  17  24
ATOM     24  C   UNL     1       2.312   4.301  19.876  0.00  0.00    +0.000 A 
ATOM     25  N   UNL     1       1.884   3.159  19.361  0.00  0.00    +0.000 NA
ATOM     26  C   UNL     1       1.559   2.372  20.433  0.00  0.00    +0.000 A 
ATOM     27  C   UNL     1       1.763   3.044  21.610  0.00  0.00    +0.000 A 
ATOM     28  N   UNL     1       2.245   4.272  21.248  0.00  0.00    +0.000 N 
ATOM     29  H   UNL     1       2.497   5.038  21.862  0.00  0.00    +0.000 HD
ENDBRANCH  17  24
ENDBRANCH   1  17
TORSDOF 5
ENDMDL
MODEL 8
REMARK VINA RESULT:      -7.8      1.320      2.475
REMARK  Name = 
REMARK  8 active torsions:
REMARK  status: ('A' for Active; 'I' for Inactive)
REMARK    1  A    between atoms: C_1  and  C_2
REMARK    2  A    between atoms: C_5  and  C_6
REMARK    3  A    between atoms: C_7  and  N_8
REMARK    4  A    between atoms: C_11  and  N_12
REMARK    5  A    between atoms: N_12  and  C_13
REMARK    6  A    between atoms: C_13  and  C_14
REMARK    7  A    between atoms: C_13  and  C_20
REMARK    8  A    between atoms: C_25  and  C_26
REMARK                            x       y       z     vdW  Elec       q    Type
REMARK                         _______ _______ _______ _____ _____    ______ ____
ROOT
ATOM      1  N   UNL     1       2.854   6.582  19.789  0.00  0.00    +0.000 N 
ATOM      2  H   UNL     1       3.739   6.491  20.289  0.00  0.00    +0.000 HD
ENDROOT
BRANCH   1   6
ATOM      3  N   UNL     1       0.734   9.381  19.747  0.00  0.00    +0.000 N 
ATOM      4  N   UNL     1       0.488   8.950  21.015  0.00  0.00    +0.000 NA
ATOM      5  C   UNL     1       1.235   7.861  21.163  0.00  0.00    +0.000 A 
ATOM      6  C   UNL     1       1.990   7.585  20.020  0.00  0.00    +0.000 A 
ATOM      7  C   UNL     1       1.708   8.594  19.128  0.00  0.00    +0.000 A 
ATOM      8  C   UNL     1       2.339   8.887  17.813  0.00  0.00    +0.000 C 
BRANCH   3  15
ATOM      9  C   UNL     1      -2.922  11.072  16.855  0.00  0.00    +0.000 C 
ATOM     10  C   UNL     1      -1.775  11.348  17.780  0.00  0.00    +0.000 A 
ATOM     11  C   UNL     1      -1.390  12.651  18.081  0.00  0.00    +0.000 A 
ATOM     12  C   UNL     1      -0.333  12.888  18.964  0.00  0.00    +0.000 A 
ATOM     13  C   UNL     1       0.386  11.829  19.546  0.00  0.00    +0.000 A 
ATOM     14  C   UNL     1       1.532  12.183  20.459  0.00  0.00    +0.000 C 
ATOM     15  C   UNL     1       0.020  10.504  19.221  0.00  0.00    +0.000 A 
ATOM     16  C   UNL     1      -1.076  10.282  18.368  0.00  0.00    +0.000 A 
ENDBRANCH   3  15
ENDBRANCH   1   6
BRANCH   1  17
ATOM     17  C   UNL     1       2.842   5.718  18.601  0.00  0.00    +0.000 C 
BRANCH  17  18
ATOM     18  C   UNL     1       4.233   5.536  17.974  0.00  0.00    +0.000 A 
ATOM     19  C   UNL     1       4.572   6.138  16.756  0.00  0.00    +0.000 A 
ATOM     20  C   UNL     1       5.815   5.876  16.187  0.00  0.00    +0.000 A 
ATOM     21  C   UNL     1       6.706   5.045  16.852  0.00  0.00    +0.000 A 
ATOM     22  C   UNL     1       6.321   4.526  18.077  0.00  0.00    +0.000 A 
ATOM     23  N   UNL     1       5.121   4.758  18.657  0.00  0.00    +0.000 NA
ENDBRANCH  17  18
BRANCH  17  24
ATOM     24  C   UNL     1       2.219   4.382  18.940  0.00  0.00    +0.000 A 
ATOM     25  N   UNL     1       1.447   3.651  18.150  0.00  0.00    +0.000 NA
ATOM     26  C   UNL     1       1.164   2.516  18.861  0.00  0.00    +0.000 A 
ATOM     27  C   UNL     1       1.742   2.563  20.103  0.00  0.00    +0.000 A 
ATOM     28  N   UNL     1       2.414   3.753  20.146  0.00  0.00    +0.000 N 
ATOM     29  H   UNL     1       2.950   4.128  20.920  0.00  0.00    +0.000 HD
ENDBRANCH  17  24
ENDBRANCH   1  17
TORSDOF 5
ENDMDL
MODEL 9
REMARK VINA RESULT:      -7.7      1.297      1.874
REMARK  Name = 
REMARK  8 active torsions:
REMARK  status: ('A' for Active; 'I' for Inactive)
REMARK    1  A    between atoms: C_1  and  C_2
REMARK    2  A    between atoms: C_5  and  C_6
REMARK    3  A    between atoms: C_7  and  N_8
REMARK    4  A    between atoms: C_11  and  N_12
REMARK    5  A    between atoms: N_12  and  C_13
REMARK    6  A    between atoms: C_13  and  C_14
REMARK    7  A    between atoms: C_13  and  C_20
REMARK    8  A    between atoms: C_25  and  C_26
REMARK                            x       y       z     vdW  Elec       q    Type
REMARK                         _______ _______ _______ _____ _____    ______ ____
ROOT
ATOM      1  N   UNL     1       2.668   6.669  19.640  0.00  0.00    +0.000 N 
ATOM      2  H   UNL     1       3.601   6.507  20.018  0.00  0.00    +0.000 HD
ENDROOT
BRANCH   1   6
ATOM      3  N   UNL     1       0.970   9.742  19.707  0.00  0.00    +0.000 N 
ATOM      4  N   UNL     1       0.674   9.311  20.965  0.00  0.00    +0.000 NA
ATOM      5  C   UNL     1       1.258   8.121  21.071  0.00  0.00    +0.000 A 
ATOM      6  C   UNL     1       1.957   7.777  19.911  0.00  0.00    +0.000 A 
ATOM      7  C   UNL     1       1.816   8.844  19.054  0.00  0.00    +0.000 A 
ATOM      8  C   UNL     1       2.473   9.085  17.741  0.00  0.00    +0.000 C 
BRANCH   3  15
ATOM      9  C   UNL     1       1.382  14.666  19.296  0.00  0.00    +0.000 C 
ATOM     10  C   UNL     1       0.609  13.409  19.033  0.00  0.00    +0.000 A 
ATOM     11  C   UNL     1      -0.620  13.442  18.381  0.00  0.00    +0.000 A 
ATOM     12  C   UNL     1      -1.314  12.257  18.124  0.00  0.00    +0.000 A 
ATOM     13  C   UNL     1      -0.812  11.010  18.536  0.00  0.00    +0.000 A 
ATOM     14  C   UNL     1      -1.648   9.790  18.245  0.00  0.00    +0.000 C 
ATOM     15  C   UNL     1       0.420  10.972  19.225  0.00  0.00    +0.000 A 
ATOM     16  C   UNL     1       1.129  12.169  19.435  0.00  0.00    +0.000 A 
ENDBRANCH   3  15
ENDBRANCH   1   6
BRANCH   1  17
ATOM     17  C   UNL     1       2.390   5.742  18.535  0.00  0.00    +0.000 C 
BRANCH  17  18
ATOM     18  C   UNL     1       3.611   5.495  17.635  0.00  0.00    +0.000 A 
ATOM     19  C   UNL     1       4.503   6.524  17.313  0.00  0.00    +0.000 A 
ATOM     20  C   UNL     1       5.547   6.271  16.427  0.00  0.00    +0.000 A 
ATOM     21  C   UNL     1       5.699   4.995  15.902  0.00  0.00    +0.000 A 
ATOM     22  C   UNL     1       4.808   4.015  16.305  0.00  0.00    +0.000 A 
ATOM     23  N   UNL     1       3.782   4.227  17.162  0.00  0.00    +0.000 NA
ENDBRANCH  17  18
BRANCH  17  24
ATOM     24  C   UNL     1       1.842   4.440  19.077  0.00  0.00    +0.000 A 
ATOM     25  N   UNL     1       1.887   4.031  20.336  0.00  0.00    +0.000 NA
ATOM     26  C   UNL     1       1.232   2.829  20.356  0.00  0.00    +0.000 A 
ATOM     27  C   UNL     1       0.807   2.486  19.098  0.00  0.00    +0.000 A 
ATOM     28  N   UNL     1       1.197   3.517  18.289  0.00  0.00    +0.000 N 
ATOM     29  H   UNL     1       1.059   3.598  17.288  0.00  0.00    +0.000 HD
ENDBRANCH  17  24
ENDBRANCH   1  17
TORSDOF 5
ENDMDL
