MODEL 1
REMARK VINA RESULT:      -8.3      0.000      0.000
REMARK  Name = 
REMARK  4 active torsions:
REMARK  status: ('A' for Active; 'I' for Inactive)
REMARK    1  A    between atoms: C_2  and  C_15
REMARK    2  A    between atoms: N_3  and  C_4
REMARK    3  A    between atoms: C_4  and  C_5
REMARK    4  A    between atoms: C_9  and  C_10
REMARK                            x       y       z     vdW  Elec       q    Type
REMARK                         _______ _______ _______ _____ _____    ______ ____
ROOT
ATOM      1  O   UNL     1       2.017   9.450  17.281  0.00  0.00    +0.000 OA
ATOM      2  C   UNL     1       1.850   8.907  18.376  0.00  0.00    +0.000 C 
ATOM      3  N   UNL     1       2.484   7.728  18.694  0.00  0.00    +0.000 N 
ATOM      4  H   UNL     1       2.299   7.235  19.559  0.00  0.00    +0.000 HD
ENDROOT
BRANCH   2   5
ATOM      5  C   UNL     1       0.962   9.561  19.373  0.00  0.00    +0.000 A 
ATOM      6  C   UNL     1       0.074  10.535  18.870  0.00  0.00    +0.000 A 
ATOM      7  C   UNL     1      -0.732  11.311  19.705  0.00  0.00    +0.000 A 
ATOM      8  C   UNL     1      -0.674  10.997  21.056  0.00  0.00    +0.000 A 
ATOM      9  N   UNL     1      -1.240  11.571  22.164  0.00  0.00    +0.000 N 
ATOM     10  C   UNL     1      -1.152  10.658  23.175  0.00  0.00    +0.000 A 
ATOM     11  N   UNL     1      -0.265   9.728  22.892  0.00  0.00    +0.000 NA
ATOM     12  C   UNL     1       0.064   9.941  21.573  0.00  0.00    +0.000 A 
ATOM     13  C   UNL     1       0.962   9.250  20.743  0.00  0.00    +0.000 A 
ATOM     14  H   UNL     1      -1.662  12.488  22.217  0.00  0.00    +0.000 HD
ENDBRANCH   2   5
BRANCH   3  15
ATOM     15  C   UNL     1       3.320   7.099  17.706  0.00  0.00    +0.000 C 
BRANCH  15  16
ATOM     16  C   UNL     1       3.272   5.597  17.787  0.00  0.00    +0.000 A 
ATOM     17  C   UNL     1       4.237   4.815  17.125  0.00  0.00    +0.000 A 
ATOM     18  C   UNL     1       4.180   3.426  17.184  0.00  0.00    +0.000 A 
ATOM     19  C   UNL     1       3.171   2.789  17.916  0.00  0.00    +0.000 A 
ATOM     20  C   UNL     1       2.215   3.560  18.603  0.00  0.00    +0.000 A 
ATOM     21  C   UNL     1       2.276   4.958  18.530  0.00  0.00    +0.000 A 
BRANCH  20  22
ATOM     22  C   UNL     1       1.117   2.906  19.406  0.00  0.00    +0.000 C 
ATOM     23  F   UNL     1       0.389   3.776  20.157  0.00  0.00    +0.000 F 
ATOM     24  F   UNL     1       0.218   2.250  18.617  0.00  0.00    +0.000 F 
ATOM     25  F   UNL     1       1.600   1.974  20.273  0.00  0.00    +0.000 F 
ENDBRANCH  20  22
ENDBRANCH  15  16
ENDBRANCH   3  15
TORSDOF 4
ENDMDL
MODEL 2
REMARK VINA RESULT:      -8.2      0.715      1.600
REMARK  Name = 
REMARK  4 active torsions:
REMARK  status: ('A' for Active; 'I' for Inactive)
REMARK    1  A    between atoms: C_2  and  C_15
REMARK    2  A    between atoms: N_3  and  C_4
REMARK    3  A    between atoms: C_4  and  C_5
REMARK    4  A    between atoms: C_9  and  C_10
REMARK                            x       y       z     vdW  Elec       q    Type
REMARK                         _______ _______ _______ _____ _____    ______ ____
ROOT
ATOM      1  O   UNL     1       1.355   9.332  17.764  0.00  0.00    +0.000 OA
ATOM      2  C   UNL     1       1.582   8.842  18.873  0.00  0.00    +0.000 C 
ATOM      3  N   UNL     1       2.473   7.804  19.027  0.00  0.00    +0.000 N 
ATOM      4  H   UNL     1       2.615   7.345  19.918  0.00  0.00    +0.000 HD
ENDROOT
BRANCH   2   5
ATOM      5  C   UNL     1       0.894   9.407  20.062  0.00  0.00    +0.000 A 
ATOM      6  C   UNL     1       0.921   8.616  21.230  0.00  0.00    +0.000 A 
ATOM      7  C   UNL     1       0.216   8.965  22.383  0.00  0.00    +0.000 A 
ATOM      8  C   UNL     1      -0.436  10.190  22.341  0.00  0.00    +0.000 A 
ATOM      9  N   UNL     1      -1.274  10.824  23.221  0.00  0.00    +0.000 N 
ATOM     10  C   UNL     1      -1.327  12.135  22.847  0.00  0.00    +0.000 A 
ATOM     11  N   UNL     1      -0.896  12.290  21.613  0.00  0.00    +0.000 NA
ATOM     12  C   UNL     1      -0.355  11.072  21.271  0.00  0.00    +0.000 A 
ATOM     13  C   UNL     1       0.251  10.657  20.074  0.00  0.00    +0.000 A 
ATOM     14  H   UNL     1      -1.745  10.404  24.011  0.00  0.00    +0.000 HD
ENDBRANCH   2   5
BRANCH   3  15
ATOM     15  C   UNL     1       3.111   7.255  17.859  0.00  0.00    +0.000 C 
BRANCH  15  16
ATOM     16  C   UNL     1       3.110   5.750  17.860  0.00  0.00    +0.000 A 
ATOM     17  C   UNL     1       4.069   5.036  17.118  0.00  0.00    +0.000 A 
ATOM     18  C   UNL     1       4.055   3.644  17.104  0.00  0.00    +0.000 A 
ATOM     19  C   UNL     1       3.097   2.938  17.840  0.00  0.00    +0.000 A 
ATOM     20  C   UNL     1       2.148   3.640  18.606  0.00  0.00    +0.000 A 
ATOM     21  C   UNL     1       2.165   5.042  18.607  0.00  0.00    +0.000 A 
BRANCH  20  22
ATOM     22  C   UNL     1       1.105   2.910  19.415  0.00  0.00    +0.000 C 
ATOM     23  F   UNL     1       1.619   2.008  20.295  0.00  0.00    +0.000 F 
ATOM     24  F   UNL     1       0.336   3.758  20.155  0.00  0.00    +0.000 F 
ATOM     25  F   UNL     1       0.238   2.214  18.628  0.00  0.00    +0.000 F 
ENDBRANCH  20  22
ENDBRANCH  15  16
ENDBRANCH   3  15
TORSDOF 4
ENDMDL
MODEL 3
REMARK VINA RESULT:      -8.2      5.787      7.270
REMARK  Name = 
REMARK  4 active torsions:
REMARK  status: ('A' for Active; 'I' for Inactive)
REMARK    1  A    between atoms: C_2  and  C_15
REMARK    2  A    between atoms: N_3  and  C_4
REMARK    3  A    between atoms: C_4  and  C_5
REMARK    4  A    between atoms: C_9  and  C_10
REMARK                            x       y       z     vdW  Elec       q    Type
REMARK                         _______ _______ _______ _____ _____    ______ ____
ROOT
ATOM      1  O   UNL     1       6.636   4.492  18.588  0.00  0.00    +0.000 OA
ATOM      2  C   UNL     1       5.645   4.326  17.873  0.00  0.00    +0.000 C 
ATOM      3  N   UNL     1       5.734   4.396  16.501  0.00  0.00    +0.000 N 
ATOM      4  H   UNL     1       4.918   4.334  15.906  0.00  0.00    +0.000 HD
ENDROOT
BRANCH   2   5
ATOM      5  C   UNL     1       4.339   4.023  18.514  0.00  0.00    +0.000 A 
ATOM      6  C   UNL     1       3.194   4.221  17.715  0.00  0.00    +0.000 A 
ATOM      7  C   UNL     1       1.900   4.090  18.221  0.00  0.00    +0.000 A 
ATOM      8  C   UNL     1       1.811   3.659  19.538  0.00  0.00    +0.000 A 
ATOM      9  N   UNL     1       0.749   3.494  20.389  0.00  0.00    +0.000 N 
ATOM     10  C   UNL     1       1.183   2.713  21.421  0.00  0.00    +0.000 A 
ATOM     11  N   UNL     1       2.497   2.688  21.471  0.00  0.00    +0.000 NA
ATOM     12  C   UNL     1       2.909   3.299  20.309  0.00  0.00    +0.000 A 
ATOM     13  C   UNL     1       4.205   3.552  19.831  0.00  0.00    +0.000 A 
ATOM     14  H   UNL     1      -0.184   3.862  20.264  0.00  0.00    +0.000 HD
ENDBRANCH   2   5
BRANCH   3  15
ATOM     15  C   UNL     1       7.003   4.715  15.901  0.00  0.00    +0.000 C 
BRANCH  15  16
ATOM     16  C   UNL     1       6.958   4.652  14.399  0.00  0.00    +0.000 A 
ATOM     17  C   UNL     1       7.937   5.304  13.627  0.00  0.00    +0.000 A 
ATOM     18  C   UNL     1       7.884   5.261  12.237  0.00  0.00    +0.000 A 
ATOM     19  C   UNL     1       6.864   4.555  11.589  0.00  0.00    +0.000 A 
ATOM     20  C   UNL     1       5.893   3.877  12.349  0.00  0.00    +0.000 A 
ATOM     21  C   UNL     1       5.951   3.934  13.749  0.00  0.00    +0.000 A 
BRANCH  20  22
ATOM     22  C   UNL     1       4.783   3.102  11.683  0.00  0.00    +0.000 C 
ATOM     23  F   UNL     1       4.324   3.670  10.534  0.00  0.00    +0.000 F 
ATOM     24  F   UNL     1       5.162   1.836  11.349  0.00  0.00    +0.000 F 
ATOM     25  F   UNL     1       3.696   2.963  12.492  0.00  0.00    +0.000 F 
ENDBRANCH  20  22
ENDBRANCH  15  16
ENDBRANCH   3  15
TORSDOF 4
ENDMDL
MODEL 4
REMARK VINA RESULT:      -7.8      1.089      1.446
REMARK  Name = 
REMARK  4 active torsions:
REMARK  status: ('A' for Active; 'I' for Inactive)
REMARK    1  A    between atoms: C_2  and  C_15
REMARK    2  A    between atoms: N_3  and  C_4
REMARK    3  A    between atoms: C_4  and  C_5
REMARK    4  A    between atoms: C_9  and  C_10
REMARK                            x       y       z     vdW  Elec       q    Type
REMARK                         _______ _______ _______ _____ _____    ______ ____
ROOT
ATOM      1  O   UNL     1       1.997   9.703  17.467  0.00  0.00    +0.000 OA
ATOM      2  C   UNL     1       1.658   9.184  18.533  0.00  0.00    +0.000 C 
ATOM      3  N   UNL     1       2.164   7.967  18.929  0.00  0.00    +0.000 N 
ATOM      4  H   UNL     1       1.840   7.497  19.764  0.00  0.00    +0.000 HD
ENDROOT
BRANCH   2   5
ATOM      5  C   UNL     1       0.700   9.906  19.410  0.00  0.00    +0.000 A 
ATOM      6  C   UNL     1      -0.423  10.473  18.771  0.00  0.00    +0.000 A 
ATOM      7  C   UNL     1      -1.339  11.278  19.449  0.00  0.00    +0.000 A 
ATOM      8  C   UNL     1      -1.129  11.408  20.815  0.00  0.00    +0.000 A 
ATOM      9  N   UNL     1      -1.748  12.158  21.780  0.00  0.00    +0.000 N 
ATOM     10  C   UNL     1      -1.386  11.633  22.987  0.00  0.00    +0.000 A 
ATOM     11  N   UNL     1      -0.321  10.870  22.867  0.00  0.00    +0.000 NA
ATOM     12  C   UNL     1      -0.131  10.737  21.510  0.00  0.00    +0.000 A 
ATOM     13  C   UNL     1       0.855  10.032  20.801  0.00  0.00    +0.000 A 
ATOM     14  H   UNL     1      -2.373  12.937  21.626  0.00  0.00    +0.000 HD
ENDBRANCH   2   5
BRANCH   3  15
ATOM     15  C   UNL     1       3.072   7.272  18.053  0.00  0.00    +0.000 C 
BRANCH  15  16
ATOM     16  C   UNL     1       3.434   5.907  18.572  0.00  0.00    +0.000 A 
ATOM     17  C   UNL     1       4.671   5.324  18.241  0.00  0.00    +0.000 A 
ATOM     18  C   UNL     1       4.998   4.053  18.705  0.00  0.00    +0.000 A 
ATOM     19  C   UNL     1       4.107   3.346  19.518  0.00  0.00    +0.000 A 
ATOM     20  C   UNL     1       2.877   3.927  19.877  0.00  0.00    +0.000 A 
ATOM     21  C   UNL     1       2.553   5.205  19.398  0.00  0.00    +0.000 A 
BRANCH  20  22
ATOM     22  C   UNL     1       1.894   3.194  20.757  0.00  0.00    +0.000 C 
ATOM     23  F   UNL     1       1.656   1.911  20.369  0.00  0.00    +0.000 F 
ATOM     24  F   UNL     1       2.311   3.122  22.052  0.00  0.00    +0.000 F 
ATOM     25  F   UNL     1       0.678   3.807  20.791  0.00  0.00    +0.000 F 
ENDBRANCH  20  22
ENDBRANCH  15  16
ENDBRANCH   3  15
TORSDOF 4
ENDMDL
MODEL 5
REMARK VINA RESULT:      -7.7      3.236      4.241
REMARK  Name = 
REMARK  4 active torsions:
REMARK  status: ('A' for Active; 'I' for Inactive)
REMARK    1  A    between atoms: C_2  and  C_15
REMARK    2  A    between atoms: N_3  and  C_4
REMARK    3  A    between atoms: C_4  and  C_5
REMARK    4  A    between atoms: C_9  and  C_10
REMARK                            x       y       z     vdW  Elec       q    Type
REMARK                         _______ _______ _______ _____ _____    ______ ____
ROOT
ATOM      1  O   UNL     1       0.341  10.536  19.619  0.00  0.00    +0.000 OA
ATOM      2  C   UNL     1      -0.033  10.160  18.506  0.00  0.00    +0.000 C 
ATOM      3  N   UNL     1       0.803   9.453  17.672  0.00  0.00    +0.000 N 
ATOM      4  H   UNL     1       0.534   9.202  16.729  0.00  0.00    +0.000 HD
ENDROOT
BRANCH   2   5
ATOM      5  C   UNL     1      -1.423  10.462  18.076  0.00  0.00    +0.000 A 
ATOM      6  C   UNL     1      -1.873   9.798  16.915  0.00  0.00    +0.000 A 
ATOM      7  C   UNL     1      -3.110  10.073  16.331  0.00  0.00    +0.000 A 
ATOM      8  C   UNL     1      -3.912  10.974  17.018  0.00  0.00    +0.000 A 
ATOM      9  N   UNL     1      -5.124  11.543  16.728  0.00  0.00    +0.000 N 
ATOM     10  C   UNL     1      -5.613  12.058  17.894  0.00  0.00    +0.000 A 
ATOM     11  N   UNL     1      -4.657  12.181  18.790  0.00  0.00    +0.000 NA
ATOM     12  C   UNL     1      -3.575  11.527  18.247  0.00  0.00    +0.000 A 
ATOM     13  C   UNL     1      -2.281  11.339  18.761  0.00  0.00    +0.000 A 
ATOM     14  H   UNL     1      -5.580  11.559  15.826  0.00  0.00    +0.000 HD
ENDBRANCH   2   5
BRANCH   3  15
ATOM     15  C   UNL     1       2.153   9.193  18.097  0.00  0.00    +0.000 C 
BRANCH  15  16
ATOM     16  C   UNL     1       2.321   7.803  18.648  0.00  0.00    +0.000 A 
ATOM     17  C   UNL     1       1.936   7.508  19.969  0.00  0.00    +0.000 A 
ATOM     18  C   UNL     1       2.110   6.227  20.485  0.00  0.00    +0.000 A 
ATOM     19  C   UNL     1       2.656   5.213  19.691  0.00  0.00    +0.000 A 
ATOM     20  C   UNL     1       3.023   5.488  18.361  0.00  0.00    +0.000 A 
ATOM     21  C   UNL     1       2.852   6.784  17.853  0.00  0.00    +0.000 A 
BRANCH  20  22
ATOM     22  C   UNL     1       3.611   4.416  17.475  0.00  0.00    +0.000 C 
ATOM     23  F   UNL     1       4.414   3.536  18.132  0.00  0.00    +0.000 F 
ATOM     24  F   UNL     1       2.651   3.663  16.866  0.00  0.00    +0.000 F 
ATOM     25  F   UNL     1       4.368   4.938  16.471  0.00  0.00    +0.000 F 
ENDBRANCH  20  22
ENDBRANCH  15  16
ENDBRANCH   3  15
TORSDOF 4
ENDMDL
MODEL 6
REMARK VINA RESULT:      -7.7      4.004      5.014
REMARK  Name = 
REMARK  4 active torsions:
REMARK  status: ('A' for Active; 'I' for Inactive)
REMARK    1  A    between atoms: C_2  and  C_15
REMARK    2  A    between atoms: N_3  and  C_4
REMARK    3  A    between atoms: C_4  and  C_5
REMARK    4  A    between atoms: C_9  and  C_10
REMARK                            x       y       z     vdW  Elec       q    Type
REMARK                         _______ _______ _______ _____ _____    ______ ____
ROOT
ATOM      1  O   UNL     1       3.403   4.922  19.766  0.00  0.00    +0.000 OA
ATOM      2  C   UNL     1       3.095   5.672  18.837  0.00  0.00    +0.000 C 
ATOM      3  N   UNL     1       3.371   5.341  17.529  0.00  0.00    +0.000 N 
ATOM      4  H   UNL     1       3.190   5.978  16.764  0.00  0.00    +0.000 HD
ENDROOT
BRANCH   2   5
ATOM      5  C   UNL     1       2.391   6.944  19.143  0.00  0.00    +0.000 A 
ATOM      6  C   UNL     1       2.171   7.811  18.053  0.00  0.00    +0.000 A 
ATOM      7  C   UNL     1       1.630   9.088  18.213  0.00  0.00    +0.000 A 
ATOM      8  C   UNL     1       1.233   9.415  19.503  0.00  0.00    +0.000 A 
ATOM      9  N   UNL     1       0.747  10.570  20.058  0.00  0.00    +0.000 N 
ATOM     10  C   UNL     1       0.186  10.232  21.255  0.00  0.00    +0.000 A 
ATOM     11  N   UNL     1       0.603   9.049  21.652  0.00  0.00    +0.000 NA
ATOM     12  C   UNL     1       1.283   8.531  20.573  0.00  0.00    +0.000 A 
ATOM     13  C   UNL     1       1.941   7.299  20.427  0.00  0.00    +0.000 A 
ATOM     14  H   UNL     1       0.778  11.493  19.647  0.00  0.00    +0.000 HD
ENDBRANCH   2   5
BRANCH   3  15
ATOM     15  C   UNL     1       4.075   4.116  17.255  0.00  0.00    +0.000 C 
BRANCH  15  16
ATOM     16  C   UNL     1       5.181   4.303  16.253  0.00  0.00    +0.000 A 
ATOM     17  C   UNL     1       6.395   4.905  16.633  0.00  0.00    +0.000 A 
ATOM     18  C   UNL     1       7.410   5.095  15.701  0.00  0.00    +0.000 A 
ATOM     19  C   UNL     1       7.242   4.677  14.376  0.00  0.00    +0.000 A 
ATOM     20  C   UNL     1       6.043   4.051  13.988  0.00  0.00    +0.000 A 
ATOM     21  C   UNL     1       5.023   3.871  14.933  0.00  0.00    +0.000 A 
BRANCH  20  22
ATOM     22  C   UNL     1       5.831   3.583  12.569  0.00  0.00    +0.000 C 
ATOM     23  F   UNL     1       6.699   4.126  11.672  0.00  0.00    +0.000 F 
ATOM     24  F   UNL     1       5.961   2.232  12.444  0.00  0.00    +0.000 F 
ATOM     25  F   UNL     1       4.583   3.881  12.111  0.00  0.00    +0.000 F 
ENDBRANCH  20  22
ENDBRANCH  15  16
ENDBRANCH   3  15
TORSDOF 4
ENDMDL
MODEL 7
REMARK VINA RESULT:      -7.7      4.117      5.418
REMARK  Name = 
REMARK  4 active torsions:
REMARK  status: ('A' for Active; 'I' for Inactive)
REMARK    1  A    between atoms: C_2  and  C_15
REMARK    2  A    between atoms: N_3  and  C_4
REMARK    3  A    between atoms: C_4  and  C_5
REMARK    4  A    between atoms: C_9  and  C_10
REMARK                            x       y       z     vdW  Elec       q    Type
REMARK                         _______ _______ _______ _____ _____    ______ ____
ROOT
ATOM      1  O   UNL     1       4.566   5.319  19.391  0.00  0.00    +0.000 OA
ATOM      2  C   UNL     1       3.658   5.643  18.623  0.00  0.00    +0.000 C 
ATOM      3  N   UNL     1       3.388   4.915  17.486  0.00  0.00    +0.000 N 
ATOM      4  H   UNL     1       2.695   5.211  16.811  0.00  0.00    +0.000 HD
ENDROOT
BRANCH   2   5
ATOM      5  C   UNL     1       2.830   6.833  18.952  0.00  0.00    +0.000 A 
ATOM      6  C   UNL     1       2.244   6.847  20.235  0.00  0.00    +0.000 A 
ATOM      7  C   UNL     1       1.349   7.840  20.635  0.00  0.00    +0.000 A 
ATOM      8  C   UNL     1       1.144   8.867  19.723  0.00  0.00    +0.000 A 
ATOM      9  N   UNL     1       0.302   9.947  19.720  0.00  0.00    +0.000 N 
ATOM     10  C   UNL     1       0.768  10.814  18.773  0.00  0.00    +0.000 A 
ATOM     11  N   UNL     1       1.595  10.207  17.949  0.00  0.00    +0.000 NA
ATOM     12  C   UNL     1       1.823   8.975  18.517  0.00  0.00    +0.000 A 
ATOM     13  C   UNL     1       2.625   7.911  18.073  0.00  0.00    +0.000 A 
ATOM     14  H   UNL     1      -0.500  10.087  20.320  0.00  0.00    +0.000 HD
ENDBRANCH   2   5
BRANCH   3  15
ATOM     15  C   UNL     1       4.217   3.781  17.173  0.00  0.00    +0.000 C 
BRANCH  15  16
ATOM     16  C   UNL     1       5.258   4.102  16.135  0.00  0.00    +0.000 A 
ATOM     17  C   UNL     1       6.417   4.819  16.486  0.00  0.00    +0.000 A 
ATOM     18  C   UNL     1       7.370   5.133  15.522  0.00  0.00    +0.000 A 
ATOM     19  C   UNL     1       7.196   4.725  14.195  0.00  0.00    +0.000 A 
ATOM     20  C   UNL     1       6.054   3.986  13.836  0.00  0.00    +0.000 A 
ATOM     21  C   UNL     1       5.095   3.682  14.813  0.00  0.00    +0.000 A 
BRANCH  20  22
ATOM     22  C   UNL     1       5.837   3.526  12.415  0.00  0.00    +0.000 C 
ATOM     23  F   UNL     1       5.989   2.185  12.239  0.00  0.00    +0.000 F 
ATOM     24  F   UNL     1       4.588   3.824  11.959  0.00  0.00    +0.000 F 
ATOM     25  F   UNL     1       6.702   4.118  11.546  0.00  0.00    +0.000 F 
ENDBRANCH  20  22
ENDBRANCH  15  16
ENDBRANCH   3  15
TORSDOF 4
ENDMDL
MODEL 8
REMARK VINA RESULT:      -7.6      3.508      4.381
REMARK  Name = 
REMARK  4 active torsions:
REMARK  status: ('A' for Active; 'I' for Inactive)
REMARK    1  A    between atoms: C_2  and  C_15
REMARK    2  A    between atoms: N_3  and  C_4
REMARK    3  A    between atoms: C_4  and  C_5
REMARK    4  A    between atoms: C_9  and  C_10
REMARK                            x       y       z     vdW  Elec       q    Type
REMARK                         _______ _______ _______ _____ _____    ______ ____
ROOT
ATOM      1  O   UNL     1       2.248   6.139  18.030  0.00  0.00    +0.000 OA
ATOM      2  C   UNL     1       2.495   6.555  19.164  0.00  0.00    +0.000 C 
ATOM      3  N   UNL     1       3.362   5.885  19.998  0.00  0.00    +0.000 N 
ATOM      4  H   UNL     1       3.518   6.175  20.955  0.00  0.00    +0.000 HD
ENDROOT
BRANCH   2   5
ATOM      5  C   UNL     1       1.857   7.817  19.621  0.00  0.00    +0.000 A 
ATOM      6  C   UNL     1       1.493   7.872  20.983  0.00  0.00    +0.000 A 
ATOM      7  C   UNL     1       0.781   8.944  21.521  0.00  0.00    +0.000 A 
ATOM      8  C   UNL     1       0.535   9.999  20.652  0.00  0.00    +0.000 A 
ATOM      9  N   UNL     1      -0.183  11.159  20.784  0.00  0.00    +0.000 N 
ATOM     10  C   UNL     1       0.208  11.987  19.771  0.00  0.00    +0.000 A 
ATOM     11  N   UNL     1       0.823  11.312  18.824  0.00  0.00    +0.000 NA
ATOM     12  C   UNL     1       1.016  10.055  19.350  0.00  0.00    +0.000 A 
ATOM     13  C   UNL     1       1.622   8.922  18.785  0.00  0.00    +0.000 A 
ATOM     14  H   UNL     1      -0.857  11.370  21.507  0.00  0.00    +0.000 HD
ENDBRANCH   2   5
BRANCH   3  15
ATOM     15  C   UNL     1       3.951   4.652  19.545  0.00  0.00    +0.000 C 
BRANCH  15  16
ATOM     16  C   UNL     1       5.197   4.877  18.733  0.00  0.00    +0.000 A 
ATOM     17  C   UNL     1       6.375   5.342  19.347  0.00  0.00    +0.000 A 
ATOM     18  C   UNL     1       7.522   5.569  18.593  0.00  0.00    +0.000 A 
ATOM     19  C   UNL     1       7.523   5.322  17.215  0.00  0.00    +0.000 A 
ATOM     20  C   UNL     1       6.359   4.834  16.593  0.00  0.00    +0.000 A 
ATOM     21  C   UNL     1       5.207   4.617  17.361  0.00  0.00    +0.000 A 
BRANCH  20  22
ATOM     22  C   UNL     1       6.327   4.552  15.111  0.00  0.00    +0.000 C 
ATOM     23  F   UNL     1       5.316   5.180  14.451  0.00  0.00    +0.000 F 
ATOM     24  F   UNL     1       7.476   4.935  14.485  0.00  0.00    +0.000 F 
ATOM     25  F   UNL     1       6.183   3.224  14.843  0.00  0.00    +0.000 F 
ENDBRANCH  20  22
ENDBRANCH  15  16
ENDBRANCH   3  15
TORSDOF 4
ENDMDL
MODEL 9
REMARK VINA RESULT:      -7.6      3.401      4.125
REMARK  Name = 
REMARK  4 active torsions:
REMARK  status: ('A' for Active; 'I' for Inactive)
REMARK    1  A    between atoms: C_2  and  C_15
REMARK    2  A    between atoms: N_3  and  C_4
REMARK    3  A    between atoms: C_4  and  C_5
REMARK    4  A    between atoms: C_9  and  C_10
REMARK                            x       y       z     vdW  Elec       q    Type
REMARK                         _______ _______ _______ _____ _____    ______ ____
ROOT
ATOM      1  O   UNL     1       2.343   6.239  17.975  0.00  0.00    +0.000 OA
ATOM      2  C   UNL     1       2.519   6.636  19.129  0.00  0.00    +0.000 C 
ATOM      3  N   UNL     1       3.324   5.947  20.008  0.00  0.00    +0.000 N 
ATOM      4  H   UNL     1       3.419   6.221  20.977  0.00  0.00    +0.000 HD
ENDROOT
BRANCH   2   5
ATOM      5  C   UNL     1       1.863   7.897  19.562  0.00  0.00    +0.000 A 
ATOM      6  C   UNL     1       1.713   8.891  18.573  0.00  0.00    +0.000 A 
ATOM      7  C   UNL     1       1.224  10.166  18.864  0.00  0.00    +0.000 A 
ATOM      8  C   UNL     1       0.804  10.363  20.173  0.00  0.00    +0.000 A 
ATOM      9  N   UNL     1       0.354  11.470  20.844  0.00  0.00    +0.000 N 
ATOM     10  C   UNL     1      -0.255  11.026  21.982  0.00  0.00    +0.000 A 
ATOM     11  N   UNL     1       0.098   9.787  22.251  0.00  0.00    +0.000 NA
ATOM     12  C   UNL     1       0.785   9.363  21.137  0.00  0.00    +0.000 A 
ATOM     13  C   UNL     1       1.392   8.126  20.866  0.00  0.00    +0.000 A 
ATOM     14  H   UNL     1       0.437  12.431  20.542  0.00  0.00    +0.000 HD
ENDBRANCH   2   5
BRANCH   3  15
ATOM     15  C   UNL     1       3.931   4.715  19.576  0.00  0.00    +0.000 C 
BRANCH  15  16
ATOM     16  C   UNL     1       5.180   4.944  18.769  0.00  0.00    +0.000 A 
ATOM     17  C   UNL     1       6.347   5.433  19.384  0.00  0.00    +0.000 A 
ATOM     18  C   UNL     1       7.496   5.663  18.634  0.00  0.00    +0.000 A 
ATOM     19  C   UNL     1       7.510   5.396  17.261  0.00  0.00    +0.000 A 
ATOM     20  C   UNL     1       6.357   4.884  16.638  0.00  0.00    +0.000 A 
ATOM     21  C   UNL     1       5.202   4.663  17.401  0.00  0.00    +0.000 A 
BRANCH  20  22
ATOM     22  C   UNL     1       6.339   4.580  15.159  0.00  0.00    +0.000 C 
ATOM     23  F   UNL     1       7.479   4.938  14.508  0.00  0.00    +0.000 F 
ATOM     24  F   UNL     1       6.164   3.252  14.905  0.00  0.00    +0.000 F 
ATOM     25  F   UNL     1       5.323   5.219  14.516  0.00  0.00    +0.000 F 
ENDBRANCH  20  22
ENDBRANCH  15  16
ENDBRANCH   3  15
TORSDOF 4
ENDMDL
