MODEL 1
REMARK VINA RESULT:      -8.1      0.000      0.000
REMARK  Name = 
REMARK  5 active torsions:
REMARK  status: ('A' for Active; 'I' for Inactive)
REMARK    1  A    between atoms: C_1  and  C_2
REMARK    2  A    between atoms: C_2  and  N_3
REMARK    3  A    between atoms: C_2  and  C_17
REMARK    4  A    between atoms: C_4  and  C_6
REMARK    5  A    between atoms: C_20  and  N_21
REMARK                            x       y       z     vdW  Elec       q    Type
REMARK                         _______ _______ _______ _____ _____    ______ ____
ROOT
ATOM      1  N   UNL     1      -0.253  11.050  18.836  0.00  0.00    +0.000 N 
ATOM      2  C   UNL     1      -1.151  11.737  19.613  0.00  0.00    +0.000 C 
ATOM      3  O   UNL     1      -0.865  12.267  20.680  0.00  0.00    +0.000 OA
ATOM      4  H   UNL     1      -0.571  10.651  17.963  0.00  0.00    +0.000 HD
ENDROOT
BRANCH   2   5
ATOM      5  C   UNL     1      -2.532  11.788  19.032  0.00  0.00    +0.000 A 
ATOM      6  C   UNL     1      -2.688  11.342  17.776  0.00  0.00    +0.000 A 
ATOM      7  C   UNL     1      -4.028  11.359  17.172  0.00  0.00    +0.000 A 
ATOM      8  O   UNL     1      -4.214  10.944  16.037  0.00  0.00    +0.000 OA
ATOM      9  C   UNL     1      -5.118  11.894  18.002  0.00  0.00    +0.000 A 
ATOM     10  C   UNL     1      -6.423  11.970  17.508  0.00  0.00    +0.000 A 
ATOM     11  C   UNL     1      -7.436  12.485  18.316  0.00  0.00    +0.000 A 
ATOM     12  C   UNL     1      -7.145  12.916  19.611  0.00  0.00    +0.000 A 
ATOM     13  C   UNL     1      -5.839  12.837  20.103  0.00  0.00    +0.000 A 
ATOM     14  C   UNL     1      -4.821  12.328  19.295  0.00  0.00    +0.000 A 
ATOM     15  O   UNL     1      -3.557  12.279  19.828  0.00  0.00    +0.000 OA
ENDBRANCH   2   5
BRANCH   1  17
ATOM     16  C   UNL     1       2.019  11.861  18.355  0.00  0.00    +0.000 C 
ATOM     17  C   UNL     1       1.149  10.926  19.198  0.00  0.00    +0.000 C 
BRANCH  17  18
ATOM     18  C   UNL     1       1.587   9.481  19.067  0.00  0.00    +0.000 A 
ATOM     19  C   UNL     1       2.113   9.015  17.858  0.00  0.00    +0.000 A 
ATOM     20  C   UNL     1       2.560   7.694  17.730  0.00  0.00    +0.000 A 
ATOM     21  C   UNL     1       2.476   6.793  18.796  0.00  0.00    +0.000 A 
ATOM     22  C   UNL     1       1.939   7.265  20.002  0.00  0.00    +0.000 A 
ATOM     23  C   UNL     1       1.506   8.588  20.141  0.00  0.00    +0.000 A 
BRANCH  21  24
ATOM     24  N   UNL     1       2.886   5.437  18.668  0.00  0.00    +0.000 N 
ATOM     25  C   UNL     1       4.011   4.905  19.400  0.00  0.00    +0.000 C 
ATOM     26  C   UNL     1       4.242   3.534  18.806  0.00  0.00    +0.000 C 
ATOM     27  C   UNL     1       2.864   3.104  18.347  0.00  0.00    +0.000 C 
ATOM     28  C   UNL     1       2.171   4.408  18.036  0.00  0.00    +0.000 C 
ATOM     29  O   UNL     1       1.147   4.468  17.371  0.00  0.00    +0.000 OA
ENDBRANCH  21  24
ENDBRANCH  17  18
ENDBRANCH   1  17
TORSDOF 4
ENDMDL
MODEL 2
REMARK VINA RESULT:      -7.9      0.972      1.190
REMARK  Name = 
REMARK  5 active torsions:
REMARK  status: ('A' for Active; 'I' for Inactive)
REMARK    1  A    between atoms: C_1  and  C_2
REMARK    2  A    between atoms: C_2  and  N_3
REMARK    3  A    between atoms: C_2  and  C_17
REMARK    4  A    between atoms: C_4  and  C_6
REMARK    5  A    between atoms: C_20  and  N_21
REMARK                            x       y       z     vdW  Elec       q    Type
REMARK                         _______ _______ _______ _____ _____    ______ ____
ROOT
ATOM      1  N   UNL     1      -0.173  11.039  18.654  0.00  0.00    +0.000 N 
ATOM      2  C   UNL     1      -1.089  11.593  19.512  0.00  0.00    +0.000 C 
ATOM      3  O   UNL     1      -0.818  11.982  20.642  0.00  0.00    +0.000 OA
ATOM      4  H   UNL     1      -0.479  10.754  17.734  0.00  0.00    +0.000 HD
ENDROOT
BRANCH   2   5
ATOM      5  C   UNL     1      -2.470  11.688  18.936  0.00  0.00    +0.000 A 
ATOM      6  C   UNL     1      -2.638  11.277  17.669  0.00  0.00    +0.000 A 
ATOM      7  C   UNL     1      -3.978  11.338  17.069  0.00  0.00    +0.000 A 
ATOM      8  O   UNL     1      -4.175  10.956  15.924  0.00  0.00    +0.000 OA
ATOM      9  C   UNL     1      -5.054  11.876  17.915  0.00  0.00    +0.000 A 
ATOM     10  C   UNL     1      -6.359  11.992  17.426  0.00  0.00    +0.000 A 
ATOM     11  C   UNL     1      -7.359  12.508  18.249  0.00  0.00    +0.000 A 
ATOM     12  C   UNL     1      -7.056  12.901  19.554  0.00  0.00    +0.000 A 
ATOM     13  C   UNL     1      -5.751  12.781  20.040  0.00  0.00    +0.000 A 
ATOM     14  C   UNL     1      -4.747  12.271  19.217  0.00  0.00    +0.000 A 
ATOM     15  O   UNL     1      -3.483  12.181  19.746  0.00  0.00    +0.000 OA
ENDBRANCH   2   5
BRANCH   1  17
ATOM     16  C   UNL     1       2.122  11.631  17.996  0.00  0.00    +0.000 C 
ATOM     17  C   UNL     1       1.231  10.901  19.003  0.00  0.00    +0.000 C 
BRANCH  17  18
ATOM     18  C   UNL     1       1.591   9.434  19.113  0.00  0.00    +0.000 A 
ATOM     19  C   UNL     1       2.158   8.769  18.022  0.00  0.00    +0.000 A 
ATOM     20  C   UNL     1       2.535   7.423  18.116  0.00  0.00    +0.000 A 
ATOM     21  C   UNL     1       2.337   6.695  19.294  0.00  0.00    +0.000 A 
ATOM     22  C   UNL     1       1.760   7.367  20.381  0.00  0.00    +0.000 A 
ATOM     23  C   UNL     1       1.398   8.715  20.297  0.00  0.00    +0.000 A 
BRANCH  21  24
ATOM     24  N   UNL     1       2.675   5.317  19.391  0.00  0.00    +0.000 N 
ATOM     25  C   UNL     1       1.686   4.274  19.252  0.00  0.00    +0.000 C 
ATOM     26  C   UNL     1       2.405   3.006  19.651  0.00  0.00    +0.000 C 
ATOM     27  C   UNL     1       3.848   3.277  19.275  0.00  0.00    +0.000 C 
ATOM     28  C   UNL     1       3.970   4.777  19.400  0.00  0.00    +0.000 C 
ATOM     29  O   UNL     1       5.050   5.347  19.457  0.00  0.00    +0.000 OA
ENDBRANCH  21  24
ENDBRANCH  17  18
ENDBRANCH   1  17
TORSDOF 4
ENDMDL
MODEL 3
REMARK VINA RESULT:      -7.8      0.997      1.506
REMARK  Name = 
REMARK  5 active torsions:
REMARK  status: ('A' for Active; 'I' for Inactive)
REMARK    1  A    between atoms: C_1  and  C_2
REMARK    2  A    between atoms: C_2  and  N_3
REMARK    3  A    between atoms: C_2  and  C_17
REMARK    4  A    between atoms: C_4  and  C_6
REMARK    5  A    between atoms: C_20  and  N_21
REMARK                            x       y       z     vdW  Elec       q    Type
REMARK                         _______ _______ _______ _____ _____    ______ ____
ROOT
ATOM      1  N   UNL     1      -0.445  11.171  19.134  0.00  0.00    +0.000 N 
ATOM      2  C   UNL     1      -1.359  11.900  19.852  0.00  0.00    +0.000 C 
ATOM      3  O   UNL     1      -1.100  12.469  20.906  0.00  0.00    +0.000 OA
ATOM      4  H   UNL     1      -0.740  10.742  18.266  0.00  0.00    +0.000 HD
ENDROOT
BRANCH   2   5
ATOM      5  C   UNL     1      -2.719  11.948  19.223  0.00  0.00    +0.000 A 
ATOM      6  C   UNL     1      -2.836  11.468  17.975  0.00  0.00    +0.000 A 
ATOM      7  C   UNL     1      -4.154  11.480  17.325  0.00  0.00    +0.000 A 
ATOM      8  O   UNL     1      -4.306  11.036  16.196  0.00  0.00    +0.000 OA
ATOM      9  C   UNL     1      -5.266  12.049  18.102  0.00  0.00    +0.000 A 
ATOM     10  C   UNL     1      -6.553  12.122  17.562  0.00  0.00    +0.000 A 
ATOM     11  C   UNL     1      -7.588  12.668  18.321  0.00  0.00    +0.000 A 
ATOM     12  C   UNL     1      -7.337  13.133  19.613  0.00  0.00    +0.000 A 
ATOM     13  C   UNL     1      -6.049  13.056  20.151  0.00  0.00    +0.000 A 
ATOM     14  C   UNL     1      -5.010  12.515  19.392  0.00  0.00    +0.000 A 
ATOM     15  O   UNL     1      -3.765  12.470  19.970  0.00  0.00    +0.000 OA
ENDBRANCH   2   5
BRANCH   1  17
ATOM     16  C   UNL     1       1.802  12.152  18.942  0.00  0.00    +0.000 C 
ATOM     17  C   UNL     1       0.941  11.041  19.547  0.00  0.00    +0.000 C 
BRANCH  17  18
ATOM     18  C   UNL     1       1.460   9.666  19.180  0.00  0.00    +0.000 A 
ATOM     19  C   UNL     1       1.557   8.671  20.157  0.00  0.00    +0.000 A 
ATOM     20  C   UNL     1       1.997   7.381  19.830  0.00  0.00    +0.000 A 
ATOM     21  C   UNL     1       2.374   7.053  18.524  0.00  0.00    +0.000 A 
ATOM     22  C   UNL     1       2.282   8.059  17.551  0.00  0.00    +0.000 A 
ATOM     23  C   UNL     1       1.827   9.343  17.870  0.00  0.00    +0.000 A 
BRANCH  21  24
ATOM     24  N   UNL     1       2.863   5.762  18.186  0.00  0.00    +0.000 N 
ATOM     25  C   UNL     1       1.979   4.676  17.832  0.00  0.00    +0.000 C 
ATOM     26  C   UNL     1       2.868   3.456  17.781  0.00  0.00    +0.000 C 
ATOM     27  C   UNL     1       4.220   4.013  17.380  0.00  0.00    +0.000 C 
ATOM     28  C   UNL     1       4.199   5.420  17.927  0.00  0.00    +0.000 C 
ATOM     29  O   UNL     1       5.212   6.091  18.056  0.00  0.00    +0.000 OA
ENDBRANCH  21  24
ENDBRANCH  17  18
ENDBRANCH   1  17
TORSDOF 4
ENDMDL
MODEL 4
REMARK VINA RESULT:      -7.8      3.667      5.593
REMARK  Name = 
REMARK  5 active torsions:
REMARK  status: ('A' for Active; 'I' for Inactive)
REMARK    1  A    between atoms: C_1  and  C_2
REMARK    2  A    between atoms: C_2  and  N_3
REMARK    3  A    between atoms: C_2  and  C_17
REMARK    4  A    between atoms: C_4  and  C_6
REMARK    5  A    between atoms: C_20  and  N_21
REMARK                            x       y       z     vdW  Elec       q    Type
REMARK                         _______ _______ _______ _____ _____    ______ ____
ROOT
ATOM      1  N   UNL     1       1.214  10.100  19.542  0.00  0.00    +0.000 N 
ATOM      2  C   UNL     1       0.180  10.967  19.298  0.00  0.00    +0.000 C 
ATOM      3  O   UNL     1      -0.999  10.633  19.275  0.00  0.00    +0.000 OA
ATOM      4  H   UNL     1       2.159  10.461  19.554  0.00  0.00    +0.000 HD
ENDROOT
BRANCH   2   5
ATOM      5  C   UNL     1       0.623  12.381  19.067  0.00  0.00    +0.000 A 
ATOM      6  C   UNL     1      -0.285  13.350  19.260  0.00  0.00    +0.000 A 
ATOM      7  C   UNL     1       0.110  14.751  19.060  0.00  0.00    +0.000 A 
ATOM      8  O   UNL     1      -0.684  15.663  19.243  0.00  0.00    +0.000 OA
ATOM      9  C   UNL     1       1.497  14.989  18.633  0.00  0.00    +0.000 A 
ATOM     10  C   UNL     1       1.961  16.286  18.398  0.00  0.00    +0.000 A 
ATOM     11  C   UNL     1       3.281  16.482  17.992  0.00  0.00    +0.000 A 
ATOM     12  C   UNL     1       4.131  15.388  17.827  0.00  0.00    +0.000 A 
ATOM     13  C   UNL     1       3.664  14.092  18.066  0.00  0.00    +0.000 A 
ATOM     14  C   UNL     1       2.343  13.891  18.466  0.00  0.00    +0.000 A 
ATOM     15  O   UNL     1       1.938  12.597  18.681  0.00  0.00    +0.000 OA
ENDBRANCH   2   5
BRANCH   1  17
ATOM     16  C   UNL     1       0.889   8.460  21.347  0.00  0.00    +0.000 C 
ATOM     17  C   UNL     1       0.995   8.695  19.838  0.00  0.00    +0.000 C 
BRANCH  17  18
ATOM     18  C   UNL     1       2.096   7.860  19.215  0.00  0.00    +0.000 A 
ATOM     19  C   UNL     1       2.502   6.670  19.826  0.00  0.00    +0.000 A 
ATOM     20  C   UNL     1       3.490   5.865  19.245  0.00  0.00    +0.000 A 
ATOM     21  C   UNL     1       4.117   6.233  18.050  0.00  0.00    +0.000 A 
ATOM     22  C   UNL     1       3.709   7.432  17.448  0.00  0.00    +0.000 A 
ATOM     23  C   UNL     1       2.711   8.232  18.016  0.00  0.00    +0.000 A 
BRANCH  21  24
ATOM     24  N   UNL     1       5.151   5.448  17.471  0.00  0.00    +0.000 N 
ATOM     25  C   UNL     1       5.199   5.168  16.055  0.00  0.00    +0.000 C 
ATOM     26  C   UNL     1       6.290   4.133  15.904  0.00  0.00    +0.000 C 
ATOM     27  C   UNL     1       7.238   4.441  17.046  0.00  0.00    +0.000 C 
ATOM     28  C   UNL     1       6.340   5.045  18.099  0.00  0.00    +0.000 C 
ATOM     29  O   UNL     1       6.679   5.159  19.267  0.00  0.00    +0.000 OA
ENDBRANCH  21  24
ENDBRANCH  17  18
ENDBRANCH   1  17
TORSDOF 4
ENDMDL
MODEL 5
REMARK VINA RESULT:      -7.8      0.570      1.060
REMARK  Name = 
REMARK  5 active torsions:
REMARK  status: ('A' for Active; 'I' for Inactive)
REMARK    1  A    between atoms: C_1  and  C_2
REMARK    2  A    between atoms: C_2  and  N_3
REMARK    3  A    between atoms: C_2  and  C_17
REMARK    4  A    between atoms: C_4  and  C_6
REMARK    5  A    between atoms: C_20  and  N_21
REMARK                            x       y       z     vdW  Elec       q    Type
REMARK                         _______ _______ _______ _____ _____    ______ ____
ROOT
ATOM      1  N   UNL     1      -0.495  11.066  19.270  0.00  0.00    +0.000 N 
ATOM      2  C   UNL     1      -1.467  11.729  19.976  0.00  0.00    +0.000 C 
ATOM      3  O   UNL     1      -1.292  12.209  21.090  0.00  0.00    +0.000 OA
ATOM      4  H   UNL     1      -0.721  10.710  18.350  0.00  0.00    +0.000 HD
ENDROOT
BRANCH   2   5
ATOM      5  C   UNL     1      -2.777  11.824  19.254  0.00  0.00    +0.000 A 
ATOM      6  C   UNL     1      -2.831  11.325  18.009  0.00  0.00    +0.000 A 
ATOM      7  C   UNL     1      -4.099  11.382  17.270  0.00  0.00    +0.000 A 
ATOM      8  O   UNL     1      -4.193  10.922  16.140  0.00  0.00    +0.000 OA
ATOM      9  C   UNL     1      -5.235  12.014  17.958  0.00  0.00    +0.000 A 
ATOM     10  C   UNL     1      -6.477  12.134  17.329  0.00  0.00    +0.000 A 
ATOM     11  C   UNL     1      -7.536  12.740  18.005  0.00  0.00    +0.000 A 
ATOM     12  C   UNL     1      -7.352  13.219  19.303  0.00  0.00    +0.000 A 
ATOM     13  C   UNL     1      -6.109  13.096  19.930  0.00  0.00    +0.000 A 
ATOM     14  C   UNL     1      -5.046  12.495  19.255  0.00  0.00    +0.000 A 
ATOM     15  O   UNL     1      -3.847  12.406  19.917  0.00  0.00    +0.000 OA
ENDBRANCH   2   5
BRANCH   1  17
ATOM     16  C   UNL     1       1.749  12.070  19.330  0.00  0.00    +0.000 C 
ATOM     17  C   UNL     1       0.858  10.908  19.773  0.00  0.00    +0.000 C 
BRANCH  17  18
ATOM     18  C   UNL     1       1.418   9.571  19.330  0.00  0.00    +0.000 A 
ATOM     19  C   UNL     1       1.571   8.535  20.257  0.00  0.00    +0.000 A 
ATOM     20  C   UNL     1       2.049   7.280  19.859  0.00  0.00    +0.000 A 
ATOM     21  C   UNL     1       2.409   7.027  18.532  0.00  0.00    +0.000 A 
ATOM     22  C   UNL     1       2.261   8.074  17.610  0.00  0.00    +0.000 A 
ATOM     23  C   UNL     1       1.768   9.324  17.999  0.00  0.00    +0.000 A 
BRANCH  21  24
ATOM     24  N   UNL     1       2.936   5.772  18.122  0.00  0.00    +0.000 N 
ATOM     25  C   UNL     1       4.321   5.419  18.327  0.00  0.00    +0.000 C 
ATOM     26  C   UNL     1       4.510   4.135  17.553  0.00  0.00    +0.000 C 
ATOM     27  C   UNL     1       3.142   3.485  17.594  0.00  0.00    +0.000 C 
ATOM     28  C   UNL     1       2.196   4.658  17.698  0.00  0.00    +0.000 C 
ATOM     29  O   UNL     1       0.999   4.561  17.469  0.00  0.00    +0.000 OA
ENDBRANCH  21  24
ENDBRANCH  17  18
ENDBRANCH   1  17
TORSDOF 4
ENDMDL
MODEL 6
REMARK VINA RESULT:      -7.8      2.049      8.989
REMARK  Name = 
REMARK  5 active torsions:
REMARK  status: ('A' for Active; 'I' for Inactive)
REMARK    1  A    between atoms: C_1  and  C_2
REMARK    2  A    between atoms: C_2  and  N_3
REMARK    3  A    between atoms: C_2  and  C_17
REMARK    4  A    between atoms: C_4  and  C_6
REMARK    5  A    between atoms: C_20  and  N_21
REMARK                            x       y       z     vdW  Elec       q    Type
REMARK                         _______ _______ _______ _____ _____    ______ ____
ROOT
ATOM      1  N   UNL     1       1.329   9.833  19.400  0.00  0.00    +0.000 N 
ATOM      2  C   UNL     1       2.015   9.294  18.340  0.00  0.00    +0.000 C 
ATOM      3  O   UNL     1       2.303   9.919  17.326  0.00  0.00    +0.000 OA
ATOM      4  H   UNL     1       1.142   9.249  20.204  0.00  0.00    +0.000 HD
ENDROOT
BRANCH   2   5
ATOM      5  C   UNL     1       2.391   7.856  18.537  0.00  0.00    +0.000 A 
ATOM      6  C   UNL     1       3.191   7.298  17.615  0.00  0.00    +0.000 A 
ATOM      7  C   UNL     1       3.598   5.895  17.776  0.00  0.00    +0.000 A 
ATOM      8  O   UNL     1       4.341   5.356  16.968  0.00  0.00    +0.000 OA
ATOM      9  C   UNL     1       3.070   5.187  18.952  0.00  0.00    +0.000 A 
ATOM     10  C   UNL     1       3.385   3.845  19.181  0.00  0.00    +0.000 A 
ATOM     11  C   UNL     1       2.868   3.198  20.303  0.00  0.00    +0.000 A 
ATOM     12  C   UNL     1       2.045   3.892  21.192  0.00  0.00    +0.000 A 
ATOM     13  C   UNL     1       1.734   5.235  20.961  0.00  0.00    +0.000 A 
ATOM     14  C   UNL     1       2.245   5.884  19.837  0.00  0.00    +0.000 A 
ATOM     15  O   UNL     1       1.902   7.201  19.658  0.00  0.00    +0.000 OA
ENDBRANCH   2   5
BRANCH   1  17
ATOM     16  C   UNL     1       1.336  11.898  20.736  0.00  0.00    +0.000 C 
ATOM     17  C   UNL     1       0.914  11.224  19.428  0.00  0.00    +0.000 C 
BRANCH  17  18
ATOM     18  C   UNL     1      -0.581  11.320  19.203  0.00  0.00    +0.000 A 
ATOM     19  C   UNL     1      -1.345  12.221  19.950  0.00  0.00    +0.000 A 
ATOM     20  C   UNL     1      -2.722  12.353  19.729  0.00  0.00    +0.000 A 
ATOM     21  C   UNL     1      -3.381  11.574  18.773  0.00  0.00    +0.000 A 
ATOM     22  C   UNL     1      -2.609  10.666  18.034  0.00  0.00    +0.000 A 
ATOM     23  C   UNL     1      -1.231  10.543  18.239  0.00  0.00    +0.000 A 
BRANCH  21  24
ATOM     24  N   UNL     1      -4.785  11.666  18.568  0.00  0.00    +0.000 N 
ATOM     25  C   UNL     1      -5.719  11.713  19.669  0.00  0.00    +0.000 C 
ATOM     26  C   UNL     1      -7.079  11.570  19.026  0.00  0.00    +0.000 C 
ATOM     27  C   UNL     1      -6.893  12.179  17.651  0.00  0.00    +0.000 C 
ATOM     28  C   UNL     1      -5.432  11.945  17.354  0.00  0.00    +0.000 C 
ATOM     29  O   UNL     1      -4.965  12.037  16.228  0.00  0.00    +0.000 OA
ENDBRANCH  21  24
ENDBRANCH  17  18
ENDBRANCH   1  17
TORSDOF 4
ENDMDL
MODEL 7
REMARK VINA RESULT:      -7.7      3.535      4.964
REMARK  Name = 
REMARK  5 active torsions:
REMARK  status: ('A' for Active; 'I' for Inactive)
REMARK    1  A    between atoms: C_1  and  C_2
REMARK    2  A    between atoms: C_2  and  N_3
REMARK    3  A    between atoms: C_2  and  C_17
REMARK    4  A    between atoms: C_4  and  C_6
REMARK    5  A    between atoms: C_20  and  N_21
REMARK                            x       y       z     vdW  Elec       q    Type
REMARK                         _______ _______ _______ _____ _____    ______ ____
ROOT
ATOM      1  N   UNL     1       0.940  10.950  20.345  0.00  0.00    +0.000 N 
ATOM      2  C   UNL     1       0.015  11.910  20.020  0.00  0.00    +0.000 C 
ATOM      3  O   UNL     1      -1.196  11.750  20.118  0.00  0.00    +0.000 OA
ATOM      4  H   UNL     1       1.923  11.168  20.244  0.00  0.00    +0.000 HD
ENDROOT
BRANCH   2   5
ATOM      5  C   UNL     1       0.624  13.191  19.533  0.00  0.00    +0.000 A 
ATOM      6  C   UNL     1       1.959  13.228  19.406  0.00  0.00    +0.000 A 
ATOM      7  C   UNL     1       2.597  14.458  18.917  0.00  0.00    +0.000 A 
ATOM      8  O   UNL     1       3.809  14.525  18.770  0.00  0.00    +0.000 OA
ATOM      9  C   UNL     1       1.704  15.588  18.617  0.00  0.00    +0.000 A 
ATOM     10  C   UNL     1       2.219  16.807  18.167  0.00  0.00    +0.000 A 
ATOM     11  C   UNL     1       1.349  17.862  17.892  0.00  0.00    +0.000 A 
ATOM     12  C   UNL     1      -0.026  17.697  18.065  0.00  0.00    +0.000 A 
ATOM     13  C   UNL     1      -0.537  16.476  18.513  0.00  0.00    +0.000 A 
ATOM     14  C   UNL     1       0.330  15.419  18.794  0.00  0.00    +0.000 A 
ATOM     15  O   UNL     1      -0.227  14.246  19.237  0.00  0.00    +0.000 OA
ENDBRANCH   2   5
BRANCH   1  17
ATOM     16  C   UNL     1       0.815   9.586  22.388  0.00  0.00    +0.000 C 
ATOM     17  C   UNL     1       0.559   9.655  20.881  0.00  0.00    +0.000 C 
BRANCH  17  18
ATOM     18  C   UNL     1       1.288   8.555  20.137  0.00  0.00    +0.000 A 
ATOM     19  C   UNL     1       1.528   7.328  20.761  0.00  0.00    +0.000 A 
ATOM     20  C   UNL     1       2.166   6.285  20.076  0.00  0.00    +0.000 A 
ATOM     21  C   UNL     1       2.602   6.443  18.757  0.00  0.00    +0.000 A 
ATOM     22  C   UNL     1       2.365   7.681  18.140  0.00  0.00    +0.000 A 
ATOM     23  C   UNL     1       1.714   8.719  18.815  0.00  0.00    +0.000 A 
BRANCH  21  24
ATOM     24  N   UNL     1       3.289   5.409  18.064  0.00  0.00    +0.000 N 
ATOM     25  C   UNL     1       4.731   5.340  18.023  0.00  0.00    +0.000 C 
ATOM     26  C   UNL     1       5.036   4.260  17.012  0.00  0.00    +0.000 C 
ATOM     27  C   UNL     1       3.845   3.328  17.110  0.00  0.00    +0.000 C 
ATOM     28  C   UNL     1       2.720   4.237  17.543  0.00  0.00    +0.000 C 
ATOM     29  O   UNL     1       1.543   3.917  17.455  0.00  0.00    +0.000 OA
ENDBRANCH  21  24
ENDBRANCH  17  18
ENDBRANCH   1  17
TORSDOF 4
ENDMDL
MODEL 8
REMARK VINA RESULT:      -7.7      2.067      9.302
REMARK  Name = 
REMARK  5 active torsions:
REMARK  status: ('A' for Active; 'I' for Inactive)
REMARK    1  A    between atoms: C_1  and  C_2
REMARK    2  A    between atoms: C_2  and  N_3
REMARK    3  A    between atoms: C_2  and  C_17
REMARK    4  A    between atoms: C_4  and  C_6
REMARK    5  A    between atoms: C_20  and  N_21
REMARK                            x       y       z     vdW  Elec       q    Type
REMARK                         _______ _______ _______ _____ _____    ______ ____
ROOT
ATOM      1  N   UNL     1       1.243   9.972  19.372  0.00  0.00    +0.000 N 
ATOM      2  C   UNL     1       1.967   9.382  18.367  0.00  0.00    +0.000 C 
ATOM      3  O   UNL     1       2.308   9.961  17.342  0.00  0.00    +0.000 OA
ATOM      4  H   UNL     1       1.012   9.423  20.190  0.00  0.00    +0.000 HD
ENDROOT
BRANCH   2   5
ATOM      5  C   UNL     1       2.314   7.949  18.637  0.00  0.00    +0.000 A 
ATOM      6  C   UNL     1       1.831   7.400  19.762  0.00  0.00    +0.000 A 
ATOM      7  C   UNL     1       2.133   5.993  20.059  0.00  0.00    +0.000 A 
ATOM      8  O   UNL     1       1.695   5.452  21.065  0.00  0.00    +0.000 OA
ATOM      9  C   UNL     1       2.980   5.283  19.089  0.00  0.00    +0.000 A 
ATOM     10  C   UNL     1       3.339   3.948  19.294  0.00  0.00    +0.000 A 
ATOM     11  C   UNL     1       4.145   3.299  18.358  0.00  0.00    +0.000 A 
ATOM     12  C   UNL     1       4.584   3.982  17.223  0.00  0.00    +0.000 A 
ATOM     13  C   UNL     1       4.221   5.317  17.020  0.00  0.00    +0.000 A 
ATOM     14  C   UNL     1       3.420   5.970  17.957  0.00  0.00    +0.000 A 
ATOM     15  O   UNL     1       3.099   7.282  17.707  0.00  0.00    +0.000 OA
ENDBRANCH   2   5
BRANCH   1  17
ATOM     16  C   UNL     1       1.335  12.119  20.568  0.00  0.00    +0.000 C 
ATOM     17  C   UNL     1       0.847  11.368  19.327  0.00  0.00    +0.000 C 
BRANCH  17  18
ATOM     18  C   UNL     1      -0.656  11.472  19.162  0.00  0.00    +0.000 A 
ATOM     19  C   UNL     1      -1.382  12.393  19.923  0.00  0.00    +0.000 A 
ATOM     20  C   UNL     1      -2.766  12.531  19.756  0.00  0.00    +0.000 A 
ATOM     21  C   UNL     1      -3.469  11.740  18.842  0.00  0.00    +0.000 A 
ATOM     22  C   UNL     1      -2.735  10.813  18.089  0.00  0.00    +0.000 A 
ATOM     23  C   UNL     1      -1.350  10.683  18.239  0.00  0.00    +0.000 A 
BRANCH  21  24
ATOM     24  N   UNL     1      -4.879  11.839  18.693  0.00  0.00    +0.000 N 
ATOM     25  C   UNL     1      -5.519  11.776  17.400  0.00  0.00    +0.000 C 
ATOM     26  C   UNL     1      -6.959  12.152  17.664  0.00  0.00    +0.000 C 
ATOM     27  C   UNL     1      -7.197  11.687  19.087  0.00  0.00    +0.000 C 
ATOM     28  C   UNL     1      -5.831  11.779  19.723  0.00  0.00    +0.000 C 
ATOM     29  O   UNL     1      -5.666  11.762  20.934  0.00  0.00    +0.000 OA
ENDBRANCH  21  24
ENDBRANCH  17  18
ENDBRANCH   1  17
TORSDOF 4
ENDMDL
MODEL 9
REMARK VINA RESULT:      -7.7      3.819      5.186
REMARK  Name = 
REMARK  5 active torsions:
REMARK  status: ('A' for Active; 'I' for Inactive)
REMARK    1  A    between atoms: C_1  and  C_2
REMARK    2  A    between atoms: C_2  and  N_3
REMARK    3  A    between atoms: C_2  and  C_17
REMARK    4  A    between atoms: C_4  and  C_6
REMARK    5  A    between atoms: C_20  and  N_21
REMARK                            x       y       z     vdW  Elec       q    Type
REMARK                         _______ _______ _______ _____ _____    ______ ____
ROOT
ATOM      1  N   UNL     1       1.315  10.152  19.471  0.00  0.00    +0.000 N 
ATOM      2  C   UNL     1       0.345  11.025  19.045  0.00  0.00    +0.000 C 
ATOM      3  O   UNL     1      -0.813  10.697  18.813  0.00  0.00    +0.000 OA
ATOM      4  H   UNL     1       2.244  10.509  19.650  0.00  0.00    +0.000 HD
ENDROOT
BRANCH   2   5
ATOM      5  C   UNL     1       0.831  12.435  18.892  0.00  0.00    +0.000 A 
ATOM      6  C   UNL     1       2.137  12.612  18.640  0.00  0.00    +0.000 A 
ATOM      7  C   UNL     1       2.654  13.976  18.467  0.00  0.00    +0.000 A 
ATOM      8  O   UNL     1       3.834  14.178  18.218  0.00  0.00    +0.000 OA
ATOM      9  C   UNL     1       1.681  15.071  18.606  0.00  0.00    +0.000 A 
ATOM     10  C   UNL     1       2.081  16.404  18.478  0.00  0.00    +0.000 A 
ATOM     11  C   UNL     1       1.138  17.422  18.617  0.00  0.00    +0.000 A 
ATOM     12  C   UNL     1      -0.196  17.107  18.878  0.00  0.00    +0.000 A 
ATOM     13  C   UNL     1      -0.593  15.773  19.003  0.00  0.00    +0.000 A 
ATOM     14  C   UNL     1       0.349  14.752  18.870  0.00  0.00    +0.000 A 
ATOM     15  O   UNL     1      -0.097  13.460  19.008  0.00  0.00    +0.000 OA
ENDBRANCH   2   5
BRANCH   1  17
ATOM     16  C   UNL     1       0.878   8.485  21.227  0.00  0.00    +0.000 C 
ATOM     17  C   UNL     1       1.037   8.750  19.728  0.00  0.00    +0.000 C 
BRANCH  17  18
ATOM     18  C   UNL     1       2.127   7.891  19.119  0.00  0.00    +0.000 A 
ATOM     19  C   UNL     1       2.470   6.672  19.711  0.00  0.00    +0.000 A 
ATOM     20  C   UNL     1       3.447   5.845  19.140  0.00  0.00    +0.000 A 
ATOM     21  C   UNL     1       4.124   6.219  17.976  0.00  0.00    +0.000 A 
ATOM     22  C   UNL     1       3.780   7.447  17.393  0.00  0.00    +0.000 A 
ATOM     23  C   UNL     1       2.794   8.269  17.949  0.00  0.00    +0.000 A 
BRANCH  21  24
ATOM     24  N   UNL     1       5.147   5.411  17.409  0.00  0.00    +0.000 N 
ATOM     25  C   UNL     1       5.194   5.111  15.997  0.00  0.00    +0.000 C 
ATOM     26  C   UNL     1       6.269   4.059  15.862  0.00  0.00    +0.000 C 
ATOM     27  C   UNL     1       7.219   4.367  17.002  0.00  0.00    +0.000 C 
ATOM     28  C   UNL     1       6.328   4.998  18.045  0.00  0.00    +0.000 C 
ATOM     29  O   UNL     1       6.667   5.122  19.213  0.00  0.00    +0.000 OA
ENDBRANCH  21  24
ENDBRANCH  17  18
ENDBRANCH   1  17
TORSDOF 4
ENDMDL
