MODEL 1
REMARK VINA RESULT:      -8.7      0.000      0.000
REMARK  Name = 
REMARK  2 active torsions:
REMARK  status: ('A' for Active; 'I' for Inactive)
REMARK    1  A    between atoms: C_2  and  C_3
REMARK    2  A    between atoms: C_5  and  C_6
REMARK                            x       y       z     vdW  Elec       q    Type
REMARK                         _______ _______ _______ _____ _____    ______ ____
ROOT
ATOM      1  C   UNL     1       2.906   4.560  18.166  0.00  0.00    +0.000 A 
ATOM      2  C   UNL     1       2.457   5.874  18.004  0.00  0.00    +0.000 A 
ATOM      3  C   UNL     1       2.121   6.642  19.106  0.00  0.00    +0.000 A 
ATOM      4  N   UNL     1       2.043   6.087  20.330  0.00  0.00    +0.000 NA
ATOM      5  C   UNL     1       2.284   4.774  20.477  0.00  0.00    +0.000 A 
ATOM      6  C   UNL     1       2.034   4.206  21.715  0.00  0.00    +0.000 A 
ATOM      7  C   UNL     1       2.239   2.849  21.969  0.00  0.00    +0.000 A 
ATOM      8  C   UNL     1       2.748   2.036  20.971  0.00  0.00    +0.000 A 
ATOM      9  C   UNL     1       3.021   2.578  19.722  0.00  0.00    +0.000 A 
ATOM     10  C   UNL     1       2.758   3.945  19.429  0.00  0.00    +0.000 A 
ENDROOT
BRANCH   1  12
ATOM     11  O   UNL     1       2.724   3.175  16.289  0.00  0.00    +0.000 OA
ATOM     12  C   UNL     1       3.490   3.846  16.977  0.00  0.00    +0.000 C 
ATOM     13  N   UNL     1       4.847   4.021  16.596  0.00  0.00    +0.000 N 
ATOM     14  C   UNL     1       5.235   3.591  15.249  0.00  0.00    +0.000 C 
ATOM     15  C   UNL     1       5.726   4.776  14.435  0.00  0.00    +0.000 C 
ATOM     16  C   UNL     1       6.918   5.434  15.119  0.00  0.00    +0.000 C 
ATOM     17  C   UNL     1       6.819   5.462  16.626  0.00  0.00    +0.000 A 
ATOM     18  C   UNL     1       7.694   6.296  17.343  0.00  0.00    +0.000 A 
ATOM     19  C   UNL     1       7.628   6.369  18.734  0.00  0.00    +0.000 A 
ATOM     20  C   UNL     1       6.750   5.547  19.428  0.00  0.00    +0.000 A 
ATOM     21  C   UNL     1       5.922   4.668  18.731  0.00  0.00    +0.000 A 
ATOM     22  C   UNL     1       5.878   4.685  17.330  0.00  0.00    +0.000 A 
ENDBRANCH   1  12
BRANCH   3  23
ATOM     23  C   UNL     1       1.873   8.100  19.005  0.00  0.00    +0.000 A 
ATOM     24  C   UNL     1       1.218   8.807  20.026  0.00  0.00    +0.000 A 
ATOM     25  C   UNL     1       1.032  10.175  19.911  0.00  0.00    +0.000 A 
ATOM     26  N   UNL     1       1.429  10.895  18.848  0.00  0.00    +0.000 NA
ATOM     27  C   UNL     1       2.036  10.213  17.855  0.00  0.00    +0.000 A 
ATOM     28  C   UNL     1       2.268   8.843  17.882  0.00  0.00    +0.000 A 
ENDBRANCH   3  23
TORSDOF 2
ENDMDL
MODEL 2
REMARK VINA RESULT:      -8.1      2.042      6.629
REMARK  Name = 
REMARK  2 active torsions:
REMARK  status: ('A' for Active; 'I' for Inactive)
REMARK    1  A    between atoms: C_2  and  C_3
REMARK    2  A    between atoms: C_5  and  C_6
REMARK                            x       y       z     vdW  Elec       q    Type
REMARK                         _______ _______ _______ _____ _____    ______ ____
ROOT
ATOM      1  C   UNL     1       4.785   3.626  17.301  0.00  0.00    +0.000 A 
ATOM      2  C   UNL     1       4.721   3.593  15.904  0.00  0.00    +0.000 A 
ATOM      3  C   UNL     1       5.753   4.111  15.141  0.00  0.00    +0.000 A 
ATOM      4  N   UNL     1       6.744   4.817  15.717  0.00  0.00    +0.000 NA
ATOM      5  C   UNL     1       6.722   5.026  17.043  0.00  0.00    +0.000 A 
ATOM      6  C   UNL     1       7.661   5.892  17.577  0.00  0.00    +0.000 A 
ATOM      7  C   UNL     1       7.716   6.187  18.940  0.00  0.00    +0.000 A 
ATOM      8  C   UNL     1       6.833   5.571  19.809  0.00  0.00    +0.000 A 
ATOM      9  C   UNL     1       5.886   4.688  19.307  0.00  0.00    +0.000 A 
ATOM     10  C   UNL     1       5.776   4.425  17.913  0.00  0.00    +0.000 A 
ENDROOT
BRANCH   1  12
ATOM     11  O   UNL     1       3.881   1.616  18.086  0.00  0.00    +0.000 OA
ATOM     12  C   UNL     1       3.772   2.841  18.088  0.00  0.00    +0.000 C 
ATOM     13  N   UNL     1       2.793   3.482  18.891  0.00  0.00    +0.000 N 
ATOM     14  C   UNL     1       2.093   2.668  19.891  0.00  0.00    +0.000 C 
ATOM     15  C   UNL     1       2.374   3.190  21.290  0.00  0.00    +0.000 C 
ATOM     16  C   UNL     1       1.925   4.640  21.415  0.00  0.00    +0.000 C 
ATOM     17  C   UNL     1       2.164   5.464  20.173  0.00  0.00    +0.000 A 
ATOM     18  C   UNL     1       2.075   6.865  20.264  0.00  0.00    +0.000 A 
ATOM     19  C   UNL     1       2.305   7.667  19.148  0.00  0.00    +0.000 A 
ATOM     20  C   UNL     1       2.540   7.080  17.911  0.00  0.00    +0.000 A 
ATOM     21  C   UNL     1       2.567   5.691  17.795  0.00  0.00    +0.000 A 
ATOM     22  C   UNL     1       2.477   4.875  18.931  0.00  0.00    +0.000 A 
ENDBRANCH   1  12
BRANCH   3  23
ATOM     23  C   UNL     1       5.842   3.886  13.679  0.00  0.00    +0.000 A 
ATOM     24  C   UNL     1       7.018   4.161  12.962  0.00  0.00    +0.000 A 
ATOM     25  C   UNL     1       7.074   3.908  11.601  0.00  0.00    +0.000 A 
ATOM     26  N   UNL     1       6.044   3.422  10.889  0.00  0.00    +0.000 NA
ATOM     27  C   UNL     1       4.905   3.180  11.572  0.00  0.00    +0.000 A 
ATOM     28  C   UNL     1       4.755   3.401  12.935  0.00  0.00    +0.000 A 
ENDBRANCH   3  23
TORSDOF 2
ENDMDL
MODEL 3
REMARK VINA RESULT:      -6.9      8.618     10.297
REMARK  Name = 
REMARK  2 active torsions:
REMARK  status: ('A' for Active; 'I' for Inactive)
REMARK    1  A    between atoms: C_2  and  C_3
REMARK    2  A    between atoms: C_5  and  C_6
REMARK                            x       y       z     vdW  Elec       q    Type
REMARK                         _______ _______ _______ _____ _____    ______ ____
ROOT
ATOM      1  C   UNL     1       7.796  15.451  19.156  0.00  0.00    +0.000 A 
ATOM      2  C   UNL     1       6.464  15.489  18.735  0.00  0.00    +0.000 A 
ATOM      3  C   UNL     1       5.436  15.270  19.636  0.00  0.00    +0.000 A 
ATOM      4  N   UNL     1       5.699  14.835  20.883  0.00  0.00    +0.000 NA
ATOM      5  C   UNL     1       6.970  14.605  21.249  0.00  0.00    +0.000 A 
ATOM      6  C   UNL     1       7.191  14.004  22.476  0.00  0.00    +0.000 A 
ATOM      7  C   UNL     1       8.472  13.710  22.945  0.00  0.00    +0.000 A 
ATOM      8  C   UNL     1       9.575  14.062  22.185  0.00  0.00    +0.000 A 
ATOM      9  C   UNL     1       9.388  14.677  20.954  0.00  0.00    +0.000 A 
ATOM     10  C   UNL     1       8.087  14.925  20.435  0.00  0.00    +0.000 A 
ENDROOT
BRANCH   1  12
ATOM     11  O   UNL     1       8.957  17.147  18.037  0.00  0.00    +0.000 OA
ATOM     12  C   UNL     1       8.865  15.933  18.214  0.00  0.00    +0.000 C 
ATOM     13  N   UNL     1       9.802  15.041  17.630  0.00  0.00    +0.000 N 
ATOM     14  C   UNL     1      11.008  15.619  17.028  0.00  0.00    +0.000 C 
ATOM     15  C   UNL     1      12.250  15.127  17.751  0.00  0.00    +0.000 C 
ATOM     16  C   UNL     1      12.333  13.606  17.688  0.00  0.00    +0.000 C 
ATOM     17  C   UNL     1      10.995  12.916  17.800  0.00  0.00    +0.000 A 
ATOM     18  C   UNL     1      10.968  11.533  18.056  0.00  0.00    +0.000 A 
ATOM     19  C   UNL     1       9.757  10.856  18.185  0.00  0.00    +0.000 A 
ATOM     20  C   UNL     1       8.562  11.532  17.973  0.00  0.00    +0.000 A 
ATOM     21  C   UNL     1       8.577  12.889  17.654  0.00  0.00    +0.000 A 
ATOM     22  C   UNL     1       9.778  13.613  17.659  0.00  0.00    +0.000 A 
ENDBRANCH   1  12
BRANCH   3  23
ATOM     23  C   UNL     1       4.018  15.535  19.295  0.00  0.00    +0.000 A 
ATOM     24  C   UNL     1       2.967  14.887  19.964  0.00  0.00    +0.000 A 
ATOM     25  C   UNL     1       1.653  15.183  19.639  0.00  0.00    +0.000 A 
ATOM     26  N   UNL     1       1.300  16.060  18.685  0.00  0.00    +0.000 NA
ATOM     27  C   UNL     1       2.310  16.665  18.024  0.00  0.00    +0.000 A 
ATOM     28  C   UNL     1       3.655  16.433  18.280  0.00  0.00    +0.000 A 
ENDBRANCH   3  23
TORSDOF 2
ENDMDL
MODEL 4
REMARK VINA RESULT:      -6.8      4.816     10.041
REMARK  Name = 
REMARK  2 active torsions:
REMARK  status: ('A' for Active; 'I' for Inactive)
REMARK    1  A    between atoms: C_2  and  C_3
REMARK    2  A    between atoms: C_5  and  C_6
REMARK                            x       y       z     vdW  Elec       q    Type
REMARK                         _______ _______ _______ _____ _____    ______ ____
ROOT
ATOM      1  C   UNL     1      -1.082  11.931  19.507  0.00  0.00    +0.000 A 
ATOM      2  C   UNL     1      -0.526  10.671  19.267  0.00  0.00    +0.000 A 
ATOM      3  C   UNL     1       0.832  10.534  19.039  0.00  0.00    +0.000 A 
ATOM      4  N   UNL     1       1.609  11.619  18.861  0.00  0.00    +0.000 NA
ATOM      5  C   UNL     1       1.056  12.842  18.896  0.00  0.00    +0.000 A 
ATOM      6  C   UNL     1       1.850  13.921  18.546  0.00  0.00    +0.000 A 
ATOM      7  C   UNL     1       1.369  15.230  18.537  0.00  0.00    +0.000 A 
ATOM      8  C   UNL     1       0.065  15.483  18.928  0.00  0.00    +0.000 A 
ATOM      9  C   UNL     1      -0.753  14.423  19.297  0.00  0.00    +0.000 A 
ATOM     10  C   UNL     1      -0.297  13.077  19.250  0.00  0.00    +0.000 A 
ENDROOT
BRANCH   1  12
ATOM     11  O   UNL     1      -2.693  12.457  21.121  0.00  0.00    +0.000 OA
ATOM     12  C   UNL     1      -2.505  12.012  19.990  0.00  0.00    +0.000 C 
ATOM     13  N   UNL     1      -3.599  11.692  19.143  0.00  0.00    +0.000 N 
ATOM     14  C   UNL     1      -4.933  12.136  19.559  0.00  0.00    +0.000 C 
ATOM     15  C   UNL     1      -5.511  13.104  18.542  0.00  0.00    +0.000 C 
ATOM     16  C   UNL     1      -5.602  12.444  17.172  0.00  0.00    +0.000 C 
ATOM     17  C   UNL     1      -4.447  11.523  16.859  0.00  0.00    +0.000 A 
ATOM     18  C   UNL     1      -4.264  11.097  15.531  0.00  0.00    +0.000 A 
ATOM     19  C   UNL     1      -3.201  10.261  15.191  0.00  0.00    +0.000 A 
ATOM     20  C   UNL     1      -2.363   9.770  16.185  0.00  0.00    +0.000 A 
ATOM     21  C   UNL     1      -2.575  10.133  17.515  0.00  0.00    +0.000 A 
ATOM     22  C   UNL     1      -3.550  11.081  17.852  0.00  0.00    +0.000 A 
ENDBRANCH   1  12
BRANCH   3  23
ATOM     23  C   UNL     1       1.499   9.210  19.019  0.00  0.00    +0.000 A 
ATOM     24  C   UNL     1       2.185   8.749  17.885  0.00  0.00    +0.000 A 
ATOM     25  C   UNL     1       2.823   7.520  17.914  0.00  0.00    +0.000 A 
ATOM     26  N   UNL     1       2.816   6.701  18.978  0.00  0.00    +0.000 NA
ATOM     27  C   UNL     1       2.136   7.131  20.061  0.00  0.00    +0.000 A 
ATOM     28  C   UNL     1       1.467   8.347  20.126  0.00  0.00    +0.000 A 
ENDBRANCH   3  23
TORSDOF 2
ENDMDL
MODEL 5
REMARK VINA RESULT:      -6.8      8.465     10.292
REMARK  Name = 
REMARK  2 active torsions:
REMARK  status: ('A' for Active; 'I' for Inactive)
REMARK    1  A    between atoms: C_2  and  C_3
REMARK    2  A    between atoms: C_5  and  C_6
REMARK                            x       y       z     vdW  Elec       q    Type
REMARK                         _______ _______ _______ _____ _____    ______ ____
ROOT
ATOM      1  C   UNL     1      -0.467  12.731  20.728  0.00  0.00    +0.000 A 
ATOM      2  C   UNL     1      -0.919  12.061  19.587  0.00  0.00    +0.000 A 
ATOM      3  C   UNL     1      -2.274  11.938  19.335  0.00  0.00    +0.000 A 
ATOM      4  N   UNL     1      -3.179  12.293  20.267  0.00  0.00    +0.000 NA
ATOM      5  C   UNL     1      -2.758  12.762  21.452  0.00  0.00    +0.000 A 
ATOM      6  C   UNL     1      -3.706  12.961  22.442  0.00  0.00    +0.000 A 
ATOM      7  C   UNL     1      -3.372  13.432  23.713  0.00  0.00    +0.000 A 
ATOM      8  C   UNL     1      -2.056  13.756  23.998  0.00  0.00    +0.000 A 
ATOM      9  C   UNL     1      -1.084  13.579  23.022  0.00  0.00    +0.000 A 
ATOM     10  C   UNL     1      -1.398  13.040  21.744  0.00  0.00    +0.000 A 
ENDROOT
BRANCH   1  12
ATOM     11  O   UNL     1       1.730  12.204  21.339  0.00  0.00    +0.000 OA
ATOM     12  C   UNL     1       0.997  13.057  20.841  0.00  0.00    +0.000 C 
ATOM     13  N   UNL     1       1.538  14.253  20.300  0.00  0.00    +0.000 N 
ATOM     14  C   UNL     1       2.993  14.326  20.130  0.00  0.00    +0.000 C 
ATOM     15  C   UNL     1       3.349  14.491  18.663  0.00  0.00    +0.000 C 
ATOM     16  C   UNL     1       2.710  15.755  18.100  0.00  0.00    +0.000 C 
ATOM     17  C   UNL     1       1.330  16.036  18.643  0.00  0.00    +0.000 A 
ATOM     18  C   UNL     1       0.528  16.988  17.988  0.00  0.00    +0.000 A 
ATOM     19  C   UNL     1      -0.760  17.268  18.442  0.00  0.00    +0.000 A 
ATOM     20  C   UNL     1      -1.228  16.668  19.604  0.00  0.00    +0.000 A 
ATOM     21  C   UNL     1      -0.418  15.771  20.299  0.00  0.00    +0.000 A 
ATOM     22  C   UNL     1       0.822  15.374  19.779  0.00  0.00    +0.000 A 
ENDBRANCH   1  12
BRANCH   3  23
ATOM     23  C   UNL     1      -2.794  11.454  18.034  0.00  0.00    +0.000 A 
ATOM     24  C   UNL     1      -4.109  11.721  17.622  0.00  0.00    +0.000 A 
ATOM     25  C   UNL     1      -4.550  11.279  16.386  0.00  0.00    +0.000 A 
ATOM     26  N   UNL     1      -3.791  10.573  15.531  0.00  0.00    +0.000 NA
ATOM     27  C   UNL     1      -2.535  10.294  15.937  0.00  0.00    +0.000 A 
ATOM     28  C   UNL     1      -2.005  10.695  17.156  0.00  0.00    +0.000 A 
ENDBRANCH   3  23
TORSDOF 2
ENDMDL
MODEL 6
REMARK VINA RESULT:      -6.6      4.257      9.058
REMARK  Name = 
REMARK  2 active torsions:
REMARK  status: ('A' for Active; 'I' for Inactive)
REMARK    1  A    between atoms: C_2  and  C_3
REMARK    2  A    between atoms: C_5  and  C_6
REMARK                            x       y       z     vdW  Elec       q    Type
REMARK                         _______ _______ _______ _____ _____    ______ ____
ROOT
ATOM      1  C   UNL     1       0.111  11.806  19.529  0.00  0.00    +0.000 A 
ATOM      2  C   UNL     1       1.027  10.842  19.098  0.00  0.00    +0.000 A 
ATOM      3  C   UNL     1       1.130   9.627  19.754  0.00  0.00    +0.000 A 
ATOM      4  N   UNL     1       0.488   9.422  20.920  0.00  0.00    +0.000 NA
ATOM      5  C   UNL     1      -0.248  10.410  21.452  0.00  0.00    +0.000 A 
ATOM      6  C   UNL     1      -0.756  10.224  22.727  0.00  0.00    +0.000 A 
ATOM      7  C   UNL     1      -1.522  11.193  23.375  0.00  0.00    +0.000 A 
ATOM      8  C   UNL     1      -1.829  12.373  22.720  0.00  0.00    +0.000 A 
ATOM      9  C   UNL     1      -1.345  12.586  21.436  0.00  0.00    +0.000 A 
ATOM     10  C   UNL     1      -0.510  11.635  20.786  0.00  0.00    +0.000 A 
ENDROOT
BRANCH   1  12
ATOM     11  O   UNL     1      -0.963  12.872  17.744  0.00  0.00    +0.000 OA
ATOM     12  C   UNL     1      -0.144  13.002  18.652  0.00  0.00    +0.000 C 
ATOM     13  N   UNL     1       0.451  14.262  18.920  0.00  0.00    +0.000 N 
ATOM     14  C   UNL     1      -0.119  15.439  18.254  0.00  0.00    +0.000 C 
ATOM     15  C   UNL     1      -0.665  16.416  19.281  0.00  0.00    +0.000 C 
ATOM     16  C   UNL     1       0.440  16.860  20.232  0.00  0.00    +0.000 C 
ATOM     17  C   UNL     1       1.418  15.765  20.586  0.00  0.00    +0.000 A 
ATOM     18  C   UNL     1       2.288  15.963  21.672  0.00  0.00    +0.000 A 
ATOM     19  C   UNL     1       3.196  14.974  22.047  0.00  0.00    +0.000 A 
ATOM     20  C   UNL     1       3.306  13.814  21.291  0.00  0.00    +0.000 A 
ATOM     21  C   UNL     1       2.492  13.634  20.172  0.00  0.00    +0.000 A 
ATOM     22  C   UNL     1       1.481  14.555  19.866  0.00  0.00    +0.000 A 
ENDBRANCH   1  12
BRANCH   3  23
ATOM     23  C   UNL     1       1.905   8.493  19.197  0.00  0.00    +0.000 A 
ATOM     24  C   UNL     1       2.481   8.553  17.918  0.00  0.00    +0.000 A 
ATOM     25  C   UNL     1       3.225   7.485  17.444  0.00  0.00    +0.000 A 
ATOM     26  N   UNL     1       3.425   6.350  18.134  0.00  0.00    +0.000 NA
ATOM     27  C   UNL     1       2.851   6.281  19.353  0.00  0.00    +0.000 A 
ATOM     28  C   UNL     1       2.090   7.300  19.912  0.00  0.00    +0.000 A 
ENDBRANCH   3  23
TORSDOF 2
ENDMDL
MODEL 7
REMARK VINA RESULT:      -6.6      3.942      9.267
REMARK  Name = 
REMARK  2 active torsions:
REMARK  status: ('A' for Active; 'I' for Inactive)
REMARK    1  A    between atoms: C_2  and  C_3
REMARK    2  A    between atoms: C_5  and  C_6
REMARK                            x       y       z     vdW  Elec       q    Type
REMARK                         _______ _______ _______ _____ _____    ______ ____
ROOT
ATOM      1  C   UNL     1       0.769  11.508  18.967  0.00  0.00    +0.000 A 
ATOM      2  C   UNL     1       1.623  10.412  19.122  0.00  0.00    +0.000 A 
ATOM      3  C   UNL     1       1.335   9.204  18.509  0.00  0.00    +0.000 A 
ATOM      4  N   UNL     1       0.145   9.006  17.911  0.00  0.00    +0.000 NA
ATOM      5  C   UNL     1      -0.771   9.988  17.919  0.00  0.00    +0.000 A 
ATOM      6  C   UNL     1      -2.038   9.695  17.443  0.00  0.00    +0.000 A 
ATOM      7  C   UNL     1      -3.065  10.639  17.420  0.00  0.00    +0.000 A 
ATOM      8  C   UNL     1      -2.814  11.932  17.848  0.00  0.00    +0.000 A 
ATOM      9  C   UNL     1      -1.550  12.261  18.320  0.00  0.00    +0.000 A 
ATOM     10  C   UNL     1      -0.512  11.294  18.409  0.00  0.00    +0.000 A 
ENDROOT
BRANCH   1  12
ATOM     11  O   UNL     1       1.999  13.480  18.701  0.00  0.00    +0.000 OA
ATOM     12  C   UNL     1       1.235  12.858  19.437  0.00  0.00    +0.000 C 
ATOM     13  N   UNL     1       0.736  13.446  20.629  0.00  0.00    +0.000 N 
ATOM     14  C   UNL     1       0.957  14.883  20.823  0.00  0.00    +0.000 C 
ATOM     15  C   UNL     1      -0.371  15.618  20.897  0.00  0.00    +0.000 C 
ATOM     16  C   UNL     1      -1.215  15.076  22.045  0.00  0.00    +0.000 C 
ATOM     17  C   UNL     1      -1.096  13.583  22.240  0.00  0.00    +0.000 A 
ATOM     18  C   UNL     1      -2.039  12.932  23.054  0.00  0.00    +0.000 A 
ATOM     19  C   UNL     1      -1.980  11.553  23.249  0.00  0.00    +0.000 A 
ATOM     20  C   UNL     1      -0.930  10.823  22.707  0.00  0.00    +0.000 A 
ATOM     21  C   UNL     1       0.049  11.468  21.951  0.00  0.00    +0.000 A 
ATOM     22  C   UNL     1      -0.074  12.827  21.630  0.00  0.00    +0.000 A 
ENDBRANCH   1  12
BRANCH   3  23
ATOM     23  C   UNL     1       2.319   8.098  18.445  0.00  0.00    +0.000 A 
ATOM     24  C   UNL     1       2.350   7.084  19.416  0.00  0.00    +0.000 A 
ATOM     25  C   UNL     1       3.263   6.048  19.307  0.00  0.00    +0.000 A 
ATOM     26  N   UNL     1       4.166   5.951  18.316  0.00  0.00    +0.000 NA
ATOM     27  C   UNL     1       4.153   6.938  17.396  0.00  0.00    +0.000 A 
ATOM     28  C   UNL     1       3.276   8.014  17.422  0.00  0.00    +0.000 A 
ENDBRANCH   3  23
TORSDOF 2
ENDMDL
MODEL 8
REMARK VINA RESULT:      -6.5      8.663     10.790
REMARK  Name = 
REMARK  2 active torsions:
REMARK  status: ('A' for Active; 'I' for Inactive)
REMARK    1  A    between atoms: C_2  and  C_3
REMARK    2  A    between atoms: C_5  and  C_6
REMARK                            x       y       z     vdW  Elec       q    Type
REMARK                         _______ _______ _______ _____ _____    ______ ____
ROOT
ATOM      1  C   UNL     1      -0.366  13.357  20.945  0.00  0.00    +0.000 A 
ATOM      2  C   UNL     1      -0.795  12.577  19.867  0.00  0.00    +0.000 A 
ATOM      3  C   UNL     1      -2.139  12.290  19.699  0.00  0.00    +0.000 A 
ATOM      4  N   UNL     1      -3.030  12.595  20.661  0.00  0.00    +0.000 NA
ATOM      5  C   UNL     1      -2.606  13.175  21.795  0.00  0.00    +0.000 A 
ATOM      6  C   UNL     1      -3.519  13.323  22.826  0.00  0.00    +0.000 A 
ATOM      7  C   UNL     1      -3.177  13.900  24.050  0.00  0.00    +0.000 A 
ATOM      8  C   UNL     1      -1.895  14.383  24.243  0.00  0.00    +0.000 A 
ATOM      9  C   UNL     1      -0.959  14.261  23.224  0.00  0.00    +0.000 A 
ATOM     10  C   UNL     1      -1.274  13.618  21.995  0.00  0.00    +0.000 A 
ENDROOT
BRANCH   1  12
ATOM     11  O   UNL     1       1.901  13.122  21.477  0.00  0.00    +0.000 OA
ATOM     12  C   UNL     1       1.056  13.849  20.958  0.00  0.00    +0.000 C 
ATOM     13  N   UNL     1       1.434  15.052  20.305  0.00  0.00    +0.000 N 
ATOM     14  C   UNL     1       2.862  15.271  20.056  0.00  0.00    +0.000 C 
ATOM     15  C   UNL     1       3.132  15.360  18.564  0.00  0.00    +0.000 C 
ATOM     16  C   UNL     1       2.331  16.499  17.946  0.00  0.00    +0.000 C 
ATOM     17  C   UNL     1       0.952  16.669  18.538  0.00  0.00    +0.000 A 
ATOM     18  C   UNL     1       0.021  17.474  17.860  0.00  0.00    +0.000 A 
ATOM     19  C   UNL     1      -1.270  17.645  18.359  0.00  0.00    +0.000 A 
ATOM     20  C   UNL     1      -1.617  17.088  19.583  0.00  0.00    +0.000 A 
ATOM     21  C   UNL     1      -0.680  16.341  20.298  0.00  0.00    +0.000 A 
ATOM     22  C   UNL     1       0.573  16.044  19.744  0.00  0.00    +0.000 A 
ENDBRANCH   1  12
BRANCH   3  23
ATOM     23  C   UNL     1      -2.665  11.678  18.456  0.00  0.00    +0.000 A 
ATOM     24  C   UNL     1      -1.833  10.967  17.576  0.00  0.00    +0.000 A 
ATOM     25  C   UNL     1      -2.366  10.382  16.439  0.00  0.00    +0.000 A 
ATOM     26  N   UNL     1      -3.663  10.465  16.096  0.00  0.00    +0.000 NA
ATOM     27  C   UNL     1      -4.459  11.169  16.927  0.00  0.00    +0.000 A 
ATOM     28  C   UNL     1      -4.015  11.789  18.089  0.00  0.00    +0.000 A 
ENDBRANCH   3  23
TORSDOF 2
ENDMDL
MODEL 9
REMARK VINA RESULT:      -6.5      8.138     10.662
REMARK  Name = 
REMARK  2 active torsions:
REMARK  status: ('A' for Active; 'I' for Inactive)
REMARK    1  A    between atoms: C_2  and  C_3
REMARK    2  A    between atoms: C_5  and  C_6
REMARK                            x       y       z     vdW  Elec       q    Type
REMARK                         _______ _______ _______ _____ _____    ______ ____
ROOT
ATOM      1  C   UNL     1      -2.204  12.106  19.935  0.00  0.00    +0.000 A 
ATOM      2  C   UNL     1      -3.043  12.706  20.879  0.00  0.00    +0.000 A 
ATOM      3  C   UNL     1      -4.416  12.696  20.706  0.00  0.00    +0.000 A 
ATOM      4  N   UNL     1      -4.957  12.277  19.547  0.00  0.00    +0.000 NA
ATOM      5  C   UNL     1      -4.154  11.874  18.549  0.00  0.00    +0.000 A 
ATOM      6  C   UNL     1      -4.733  11.608  17.320  0.00  0.00    +0.000 A 
ATOM      7  C   UNL     1      -3.987  11.197  16.215  0.00  0.00    +0.000 A 
ATOM      8  C   UNL     1      -2.622  11.004  16.346  0.00  0.00    +0.000 A 
ATOM      9  C   UNL     1      -2.012  11.251  17.569  0.00  0.00    +0.000 A 
ATOM     10  C   UNL     1      -2.750  11.731  18.687  0.00  0.00    +0.000 A 
ENDROOT
BRANCH   1  12
ATOM     11  O   UNL     1      -0.387  10.793  20.604  0.00  0.00    +0.000 OA
ATOM     12  C   UNL     1      -0.751  11.920  20.275  0.00  0.00    +0.000 C 
ATOM     13  N   UNL     1       0.191  12.972  20.122  0.00  0.00    +0.000 N 
ATOM     14  C   UNL     1       1.614  12.618  20.125  0.00  0.00    +0.000 C 
ATOM     15  C   UNL     1       2.252  12.978  18.794  0.00  0.00    +0.000 C 
ATOM     16  C   UNL     1       2.103  14.469  18.520  0.00  0.00    +0.000 C 
ATOM     17  C   UNL     1       0.784  15.046  18.977  0.00  0.00    +0.000 A 
ATOM     18  C   UNL     1       0.410  16.321  18.516  0.00  0.00    +0.000 A 
ATOM     19  C   UNL     1      -0.806  16.887  18.896  0.00  0.00    +0.000 A 
ATOM     20  C   UNL     1      -1.620  16.227  19.807  0.00  0.00    +0.000 A 
ATOM     21  C   UNL     1      -1.229  14.991  20.322  0.00  0.00    +0.000 A 
ATOM     22  C   UNL     1      -0.080  14.347  19.843  0.00  0.00    +0.000 A 
ENDBRANCH   1  12
BRANCH   3  23
ATOM     23  C   UNL     1      -5.349  13.102  21.783  0.00  0.00    +0.000 A 
ATOM     24  C   UNL     1      -5.003  14.082  22.727  0.00  0.00    +0.000 A 
ATOM     25  C   UNL     1      -5.913  14.458  23.701  0.00  0.00    +0.000 A 
ATOM     26  N   UNL     1      -7.138  13.921  23.824  0.00  0.00    +0.000 NA
ATOM     27  C   UNL     1      -7.464  12.961  22.933  0.00  0.00    +0.000 A 
ATOM     28  C   UNL     1      -6.619  12.520  21.923  0.00  0.00    +0.000 A 
ENDBRANCH   3  23
TORSDOF 2
ENDMDL
