MODEL 1
REMARK VINA RESULT:      -8.7      0.000      0.000
REMARK  Name = 
REMARK  3 active torsions:
REMARK  status: ('A' for Active; 'I' for Inactive)
REMARK    1  A    between atoms: C_2  and  C_19
REMARK    2  A    between atoms: N_3  and  C_4
REMARK    3  A    between atoms: C_7  and  C_8
REMARK                            x       y       z     vdW  Elec       q    Type
REMARK                         _______ _______ _______ _____ _____    ______ ____
ROOT
ATOM      1  C   UNL     1       7.887   8.486  17.827  0.00  0.00    +0.000 A 
ATOM      2  C   UNL     1       6.659   8.360  17.190  0.00  0.00    +0.000 A 
ATOM      3  C   UNL     1       5.886   7.209  17.352  0.00  0.00    +0.000 A 
ATOM      4  C   UNL     1       6.306   6.149  18.169  0.00  0.00    +0.000 A 
ATOM      5  C   UNL     1       7.570   6.243  18.758  0.00  0.00    +0.000 A 
ATOM      6  C   UNL     1       8.356   7.400  18.586  0.00  0.00    +0.000 A 
ENDROOT
BRANCH   4   7
ATOM      7  C   UNL     1       5.404   5.010  18.379  0.00  0.00    +0.000 A 
ATOM      8  N   UNL     1       5.201   3.944  17.614  0.00  0.00    +0.000 NA
ATOM      9  C   UNL     1       4.149   3.258  18.196  0.00  0.00    +0.000 A 
ATOM     10  C   UNL     1       3.464   2.100  17.791  0.00  0.00    +0.000 A 
ATOM     11  C   UNL     1       2.378   1.652  18.564  0.00  0.00    +0.000 A 
ATOM     12  C   UNL     1       1.985   2.330  19.721  0.00  0.00    +0.000 A 
ATOM     13  C   UNL     1       2.673   3.464  20.155  0.00  0.00    +0.000 A 
ATOM     14  C   UNL     1       3.741   3.886  19.365  0.00  0.00    +0.000 A 
ATOM     15  N   UNL     1       4.604   4.932  19.496  0.00  0.00    +0.000 N 
ATOM     16  H   UNL     1       4.616   5.584  20.263  0.00  0.00    +0.000 HD
ENDBRANCH   4   7
BRANCH   1  19
ATOM     17  O   UNL     1       9.011  10.168  19.990  0.00  0.00    +0.000 OA
ATOM     18  C   UNL     1       9.136  10.420  18.795  0.00  0.00    +0.000 C 
ATOM     19  N   UNL     1       8.678   9.651  17.728  0.00  0.00    +0.000 N 
ATOM     20  H   UNL     1       9.040   9.867  16.804  0.00  0.00    +0.000 HD
BRANCH  18  21
ATOM     21  C   UNL     1       9.922  11.625  18.414  0.00  0.00    +0.000 A 
ATOM     22  C   UNL     1      11.237  11.465  17.957  0.00  0.00    +0.000 A 
ATOM     23  C   UNL     1      11.959  12.576  17.508  0.00  0.00    +0.000 A 
ATOM     24  C   UNL     1      11.375  13.842  17.528  0.00  0.00    +0.000 A 
ATOM     25  C   UNL     1      10.103  14.009  18.074  0.00  0.00    +0.000 A 
ATOM     26  C   UNL     1       9.374  12.906  18.519  0.00  0.00    +0.000 A 
ATOM     27  O   UNL     1       9.514  15.233  18.221  0.00  0.00    +0.000 OA
ATOM     28  C   UNL     1       9.977  16.144  17.229  0.00  0.00    +0.000 C 
ATOM     29  C   UNL     1      11.490  16.143  17.051  0.00  0.00    +0.000 C 
ATOM     30  O   UNL     1      12.102  14.854  16.972  0.00  0.00    +0.000 OA
ENDBRANCH  18  21
ENDBRANCH   1  19
TORSDOF 3
ENDMDL
MODEL 2
REMARK VINA RESULT:      -8.7      8.471     10.375
REMARK  Name = 
REMARK  3 active torsions:
REMARK  status: ('A' for Active; 'I' for Inactive)
REMARK    1  A    between atoms: C_2  and  C_19
REMARK    2  A    between atoms: N_3  and  C_4
REMARK    3  A    between atoms: C_7  and  C_8
REMARK                            x       y       z     vdW  Elec       q    Type
REMARK                         _______ _______ _______ _____ _____    ______ ____
ROOT
ATOM      1  C   UNL     1       0.392   9.796  20.318  0.00  0.00    +0.000 A 
ATOM      2  C   UNL     1       0.746   9.994  18.991  0.00  0.00    +0.000 A 
ATOM      3  C   UNL     1       1.580   9.089  18.332  0.00  0.00    +0.000 A 
ATOM      4  C   UNL     1       2.077   7.944  18.973  0.00  0.00    +0.000 A 
ATOM      5  C   UNL     1       1.776   7.775  20.328  0.00  0.00    +0.000 A 
ATOM      6  C   UNL     1       0.944   8.695  20.997  0.00  0.00    +0.000 A 
ENDROOT
BRANCH   4   7
ATOM      7  C   UNL     1       2.866   6.978  18.199  0.00  0.00    +0.000 A 
ATOM      8  N   UNL     1       2.737   5.660  18.116  0.00  0.00    +0.000 NA
ATOM      9  C   UNL     1       3.820   5.222  17.372  0.00  0.00    +0.000 A 
ATOM     10  C   UNL     1       4.237   3.927  17.021  0.00  0.00    +0.000 A 
ATOM     11  C   UNL     1       5.430   3.775  16.293  0.00  0.00    +0.000 A 
ATOM     12  C   UNL     1       6.189   4.884  15.908  0.00  0.00    +0.000 A 
ATOM     13  C   UNL     1       5.774   6.179  16.221  0.00  0.00    +0.000 A 
ATOM     14  C   UNL     1       4.590   6.296  16.949  0.00  0.00    +0.000 A 
ATOM     15  N   UNL     1       3.917   7.387  17.411  0.00  0.00    +0.000 N 
ATOM     16  H   UNL     1       4.183   8.345  17.251  0.00  0.00    +0.000 HD
ENDBRANCH   4   7
BRANCH   1  19
ATOM     17  O   UNL     1       0.960  12.412  21.585  0.00  0.00    +0.000 OA
ATOM     18  C   UNL     1      -0.136  11.860  21.620  0.00  0.00    +0.000 C 
ATOM     19  N   UNL     1      -0.486  10.660  21.008  0.00  0.00    +0.000 N 
ATOM     20  H   UNL     1      -1.475  10.438  20.940  0.00  0.00    +0.000 HD
BRANCH  18  21
ATOM     21  C   UNL     1      -1.249  12.563  22.316  0.00  0.00    +0.000 A 
ATOM     22  C   UNL     1      -0.955  13.659  23.140  0.00  0.00    +0.000 A 
ATOM     23  C   UNL     1      -1.994  14.387  23.727  0.00  0.00    +0.000 A 
ATOM     24  C   UNL     1      -3.320  14.016  23.504  0.00  0.00    +0.000 A 
ATOM     25  C   UNL     1      -3.602  12.869  22.764  0.00  0.00    +0.000 A 
ATOM     26  C   UNL     1      -2.572  12.139  22.170  0.00  0.00    +0.000 A 
ATOM     27  O   UNL     1      -4.870  12.389  22.595  0.00  0.00    +0.000 OA
ATOM     28  C   UNL     1      -5.825  13.444  22.645  0.00  0.00    +0.000 C 
ATOM     29  C   UNL     1      -5.620  14.404  23.810  0.00  0.00    +0.000 C 
ATOM     30  O   UNL     1      -4.276  14.841  24.020  0.00  0.00    +0.000 OA
ENDBRANCH  18  21
ENDBRANCH   1  19
TORSDOF 3
ENDMDL
MODEL 3
REMARK VINA RESULT:      -8.7      8.184     10.448
REMARK  Name = 
REMARK  3 active torsions:
REMARK  status: ('A' for Active; 'I' for Inactive)
REMARK    1  A    between atoms: C_2  and  C_19
REMARK    2  A    between atoms: N_3  and  C_4
REMARK    3  A    between atoms: C_7  and  C_8
REMARK                            x       y       z     vdW  Elec       q    Type
REMARK                         _______ _______ _______ _____ _____    ______ ____
ROOT
ATOM      1  C   UNL     1       0.493   9.608  19.586  0.00  0.00    +0.000 A 
ATOM      2  C   UNL     1       1.009   9.828  18.316  0.00  0.00    +0.000 A 
ATOM      3  C   UNL     1       2.002   8.997  17.795  0.00  0.00    +0.000 A 
ATOM      4  C   UNL     1       2.504   7.906  18.520  0.00  0.00    +0.000 A 
ATOM      5  C   UNL     1       2.035   7.720  19.824  0.00  0.00    +0.000 A 
ATOM      6  C   UNL     1       1.041   8.566  20.355  0.00  0.00    +0.000 A 
ENDROOT
BRANCH   4   7
ATOM      7  C   UNL     1       3.475   7.010  17.879  0.00  0.00    +0.000 A 
ATOM      8  N   UNL     1       4.546   7.309  17.154  0.00  0.00    +0.000 NA
ATOM      9  C   UNL     1       5.021   6.102  16.671  0.00  0.00    +0.000 A 
ATOM     10  C   UNL     1       6.085   5.809  15.801  0.00  0.00    +0.000 A 
ATOM     11  C   UNL     1       6.308   4.471  15.431  0.00  0.00    +0.000 A 
ATOM     12  C   UNL     1       5.501   3.441  15.922  0.00  0.00    +0.000 A 
ATOM     13  C   UNL     1       4.459   3.709  16.810  0.00  0.00    +0.000 A 
ATOM     14  C   UNL     1       4.260   5.046  17.153  0.00  0.00    +0.000 A 
ATOM     15  N   UNL     1       3.353   5.643  17.976  0.00  0.00    +0.000 N 
ATOM     16  H   UNL     1       2.659   5.161  18.524  0.00  0.00    +0.000 HD
ENDBRANCH   4   7
BRANCH   1  19
ATOM     17  O   UNL     1       0.665  11.841  21.523  0.00  0.00    +0.000 OA
ATOM     18  C   UNL     1      -0.391  11.404  21.079  0.00  0.00    +0.000 C 
ATOM     19  N   UNL     1      -0.545  10.394  20.132  0.00  0.00    +0.000 N 
ATOM     20  H   UNL     1      -1.459  10.289  19.701  0.00  0.00    +0.000 HD
BRANCH  18  21
ATOM     21  C   UNL     1      -1.656  12.055  21.519  0.00  0.00    +0.000 A 
ATOM     22  C   UNL     1      -2.395  12.805  20.594  0.00  0.00    +0.000 A 
ATOM     23  C   UNL     1      -3.630  13.346  20.964  0.00  0.00    +0.000 A 
ATOM     24  C   UNL     1      -4.120  13.150  22.255  0.00  0.00    +0.000 A 
ATOM     25  C   UNL     1      -3.337  12.486  23.199  0.00  0.00    +0.000 A 
ATOM     26  C   UNL     1      -2.105  11.939  22.837  0.00  0.00    +0.000 A 
ATOM     27  O   UNL     1      -3.707  12.351  24.506  0.00  0.00    +0.000 OA
ATOM     28  C   UNL     1      -5.125  12.335  24.635  0.00  0.00    +0.000 C 
ATOM     29  C   UNL     1      -5.827  13.435  23.849  0.00  0.00    +0.000 C 
ATOM     30  O   UNL     1      -5.378  13.614  22.504  0.00  0.00    +0.000 OA
ENDBRANCH  18  21
ENDBRANCH   1  19
TORSDOF 3
ENDMDL
MODEL 4
REMARK VINA RESULT:      -8.6      8.061     10.838
REMARK  Name = 
REMARK  3 active torsions:
REMARK  status: ('A' for Active; 'I' for Inactive)
REMARK    1  A    between atoms: C_2  and  C_19
REMARK    2  A    between atoms: N_3  and  C_4
REMARK    3  A    between atoms: C_7  and  C_8
REMARK                            x       y       z     vdW  Elec       q    Type
REMARK                         _______ _______ _______ _____ _____    ______ ____
ROOT
ATOM      1  C   UNL     1       1.131   8.985  20.290  0.00  0.00    +0.000 A 
ATOM      2  C   UNL     1       0.445   9.981  19.609  0.00  0.00    +0.000 A 
ATOM      3  C   UNL     1      -0.276  10.955  20.304  0.00  0.00    +0.000 A 
ATOM      4  C   UNL     1      -0.323  10.975  21.705  0.00  0.00    +0.000 A 
ATOM      5  C   UNL     1       0.310   9.936  22.393  0.00  0.00    +0.000 A 
ATOM      6  C   UNL     1       1.028   8.946  21.692  0.00  0.00    +0.000 A 
ENDROOT
BRANCH   4   7
ATOM      7  C   UNL     1      -1.014  12.081  22.380  0.00  0.00    +0.000 A 
ATOM      8  N   UNL     1      -0.511  13.059  23.123  0.00  0.00    +0.000 NA
ATOM      9  C   UNL     1      -1.601  13.742  23.634  0.00  0.00    +0.000 A 
ATOM     10  C   UNL     1      -1.679  14.821  24.531  0.00  0.00    +0.000 A 
ATOM     11  C   UNL     1      -2.947  15.283  24.926  0.00  0.00    +0.000 A 
ATOM     12  C   UNL     1      -4.116  14.695  24.433  0.00  0.00    +0.000 A 
ATOM     13  C   UNL     1      -4.058  13.644  23.518  0.00  0.00    +0.000 A 
ATOM     14  C   UNL     1      -2.786  13.205  23.151  0.00  0.00    +0.000 A 
ATOM     15  N   UNL     1      -2.380  12.221  22.301  0.00  0.00    +0.000 N 
ATOM     16  H   UNL     1      -2.990  11.644  21.745  0.00  0.00    +0.000 HD
ENDBRANCH   4   7
BRANCH   1  19
ATOM     17  O   UNL     1       2.267   9.041  17.556  0.00  0.00    +0.000 OA
ATOM     18  C   UNL     1       2.374   8.087  18.319  0.00  0.00    +0.000 C 
ATOM     19  N   UNL     1       1.910   8.010  19.630  0.00  0.00    +0.000 N 
ATOM     20  H   UNL     1       2.258   7.251  20.208  0.00  0.00    +0.000 HD
BRANCH  18  21
ATOM     21  C   UNL     1       3.144   6.901  17.851  0.00  0.00    +0.000 A 
ATOM     22  C   UNL     1       2.673   5.617  18.157  0.00  0.00    +0.000 A 
ATOM     23  C   UNL     1       3.332   4.494  17.648  0.00  0.00    +0.000 A 
ATOM     24  C   UNL     1       4.463   4.651  16.848  0.00  0.00    +0.000 A 
ATOM     25  C   UNL     1       4.984   5.926  16.627  0.00  0.00    +0.000 A 
ATOM     26  C   UNL     1       4.330   7.053  17.128  0.00  0.00    +0.000 A 
ATOM     27  O   UNL     1       6.145   6.145  15.943  0.00  0.00    +0.000 OA
ATOM     28  C   UNL     1       6.371   5.119  14.982  0.00  0.00    +0.000 C 
ATOM     29  C   UNL     1       6.166   3.711  15.525  0.00  0.00    +0.000 C 
ATOM     30  O   UNL     1       4.983   3.515  16.301  0.00  0.00    +0.000 OA
ENDBRANCH  18  21
ENDBRANCH   1  19
TORSDOF 3
ENDMDL
MODEL 5
REMARK VINA RESULT:      -8.6      8.366     10.253
REMARK  Name = 
REMARK  3 active torsions:
REMARK  status: ('A' for Active; 'I' for Inactive)
REMARK    1  A    between atoms: C_2  and  C_19
REMARK    2  A    between atoms: N_3  and  C_4
REMARK    3  A    between atoms: C_7  and  C_8
REMARK                            x       y       z     vdW  Elec       q    Type
REMARK                         _______ _______ _______ _____ _____    ______ ____
ROOT
ATOM      1  C   UNL     1       0.410   9.736  20.181  0.00  0.00    +0.000 A 
ATOM      2  C   UNL     1       1.008   8.648  20.802  0.00  0.00    +0.000 A 
ATOM      3  C   UNL     1       1.856   7.796  20.091  0.00  0.00    +0.000 A 
ATOM      4  C   UNL     1       2.147   8.011  18.736  0.00  0.00    +0.000 A 
ATOM      5  C   UNL     1       1.495   9.066  18.089  0.00  0.00    +0.000 A 
ATOM      6  C   UNL     1       0.631   9.919  18.804  0.00  0.00    +0.000 A 
ENDROOT
BRANCH   4   7
ATOM      7  C   UNL     1       3.123   7.141  18.069  0.00  0.00    +0.000 A 
ATOM      8  N   UNL     1       4.111   7.462  17.242  0.00  0.00    +0.000 NA
ATOM      9  C   UNL     1       4.629   6.260  16.791  0.00  0.00    +0.000 A 
ATOM     10  C   UNL     1       5.638   5.982  15.854  0.00  0.00    +0.000 A 
ATOM     11  C   UNL     1       5.922   4.641  15.542  0.00  0.00    +0.000 A 
ATOM     12  C   UNL     1       5.228   3.594  16.156  0.00  0.00    +0.000 A 
ATOM     13  C   UNL     1       4.244   3.850  17.111  0.00  0.00    +0.000 A 
ATOM     14  C   UNL     1       3.982   5.190  17.393  0.00  0.00    +0.000 A 
ATOM     15  N   UNL     1       3.103   5.777  18.253  0.00  0.00    +0.000 N 
ATOM     16  H   UNL     1       2.490   5.287  18.883  0.00  0.00    +0.000 HD
ENDBRANCH   4   7
BRANCH   1  19
ATOM     17  O   UNL     1       1.140  12.292  21.488  0.00  0.00    +0.000 OA
ATOM     18  C   UNL     1       0.009  11.815  21.505  0.00  0.00    +0.000 C 
ATOM     19  N   UNL     1      -0.414  10.648  20.874  0.00  0.00    +0.000 N 
ATOM     20  H   UNL     1      -1.416  10.494  20.793  0.00  0.00    +0.000 HD
BRANCH  18  21
ATOM     21  C   UNL     1      -1.061  12.582  22.200  0.00  0.00    +0.000 A 
ATOM     22  C   UNL     1      -0.742  13.806  22.803  0.00  0.00    +0.000 A 
ATOM     23  C   UNL     1      -1.752  14.584  23.378  0.00  0.00    +0.000 A 
ATOM     24  C   UNL     1      -3.072  14.135  23.364  0.00  0.00    +0.000 A 
ATOM     25  C   UNL     1      -3.369  12.873  22.850  0.00  0.00    +0.000 A 
ATOM     26  C   UNL     1      -2.369  12.093  22.269  0.00  0.00    +0.000 A 
ATOM     27  O   UNL     1      -4.620  12.328  22.900  0.00  0.00    +0.000 OA
ATOM     28  C   UNL     1      -5.619  13.343  22.888  0.00  0.00    +0.000 C 
ATOM     29  C   UNL     1      -5.345  14.487  23.857  0.00  0.00    +0.000 C 
ATOM     30  O   UNL     1      -4.011  14.999  23.846  0.00  0.00    +0.000 OA
ENDBRANCH  18  21
ENDBRANCH   1  19
TORSDOF 3
ENDMDL
MODEL 6
REMARK VINA RESULT:      -8.5      8.037     10.229
REMARK  Name = 
REMARK  3 active torsions:
REMARK  status: ('A' for Active; 'I' for Inactive)
REMARK    1  A    between atoms: C_2  and  C_19
REMARK    2  A    between atoms: N_3  and  C_4
REMARK    3  A    between atoms: C_7  and  C_8
REMARK                            x       y       z     vdW  Elec       q    Type
REMARK                         _______ _______ _______ _____ _____    ______ ____
ROOT
ATOM      1  C   UNL     1       0.618   9.478  19.610  0.00  0.00    +0.000 A 
ATOM      2  C   UNL     1       1.178   8.424  20.319  0.00  0.00    +0.000 A 
ATOM      3  C   UNL     1       2.127   7.588  19.726  0.00  0.00    +0.000 A 
ATOM      4  C   UNL     1       2.561   7.789  18.407  0.00  0.00    +0.000 A 
ATOM      5  C   UNL     1       1.953   8.808  17.668  0.00  0.00    +0.000 A 
ATOM      6  C   UNL     1       0.986   9.643  18.263  0.00  0.00    +0.000 A 
ENDROOT
BRANCH   4   7
ATOM      7  C   UNL     1       3.634   6.940  17.873  0.00  0.00    +0.000 A 
ATOM      8  N   UNL     1       4.893   7.253  17.591  0.00  0.00    +0.000 NA
ATOM      9  C   UNL     1       5.430   6.133  16.980  0.00  0.00    +0.000 A 
ATOM     10  C   UNL     1       6.696   5.907  16.413  0.00  0.00    +0.000 A 
ATOM     11  C   UNL     1       6.951   4.668  15.800  0.00  0.00    +0.000 A 
ATOM     12  C   UNL     1       5.976   3.667  15.758  0.00  0.00    +0.000 A 
ATOM     13  C   UNL     1       4.725   3.862  16.342  0.00  0.00    +0.000 A 
ATOM     14  C   UNL     1       4.501   5.103  16.938  0.00  0.00    +0.000 A 
ATOM     15  N   UNL     1       3.414   5.614  17.583  0.00  0.00    +0.000 N 
ATOM     16  H   UNL     1       2.559   5.115  17.765  0.00  0.00    +0.000 HD
ENDBRANCH   4   7
BRANCH   1  19
ATOM     17  O   UNL     1       1.079  11.606  21.619  0.00  0.00    +0.000 OA
ATOM     18  C   UNL     1      -0.026  11.324  21.164  0.00  0.00    +0.000 C 
ATOM     19  N   UNL     1      -0.308  10.374  20.186  0.00  0.00    +0.000 N 
ATOM     20  H   UNL     1      -1.228  10.402  19.755  0.00  0.00    +0.000 HD
BRANCH  18  21
ATOM     21  C   UNL     1      -1.195  12.119  21.630  0.00  0.00    +0.000 A 
ATOM     22  C   UNL     1      -1.574  13.261  20.912  0.00  0.00    +0.000 A 
ATOM     23  C   UNL     1      -2.724  13.966  21.280  0.00  0.00    +0.000 A 
ATOM     24  C   UNL     1      -3.485  13.541  22.369  0.00  0.00    +0.000 A 
ATOM     25  C   UNL     1      -3.051  12.462  23.138  0.00  0.00    +0.000 A 
ATOM     26  C   UNL     1      -1.907  11.750  22.775  0.00  0.00    +0.000 A 
ATOM     27  O   UNL     1      -3.688  12.059  24.276  0.00  0.00    +0.000 OA
ATOM     28  C   UNL     1      -5.078  12.363  24.217  0.00  0.00    +0.000 C 
ATOM     29  C   UNL     1      -5.378  13.780  23.745  0.00  0.00    +0.000 C 
ATOM     30  O   UNL     1      -4.649  14.215  22.596  0.00  0.00    +0.000 OA
ENDBRANCH  18  21
ENDBRANCH   1  19
TORSDOF 3
ENDMDL
MODEL 7
REMARK VINA RESULT:      -8.5      8.035     10.883
REMARK  Name = 
REMARK  3 active torsions:
REMARK  status: ('A' for Active; 'I' for Inactive)
REMARK    1  A    between atoms: C_2  and  C_19
REMARK    2  A    between atoms: N_3  and  C_4
REMARK    3  A    between atoms: C_7  and  C_8
REMARK                            x       y       z     vdW  Elec       q    Type
REMARK                         _______ _______ _______ _____ _____    ______ ____
ROOT
ATOM      1  C   UNL     1       1.048   8.911  20.481  0.00  0.00    +0.000 A 
ATOM      2  C   UNL     1       0.480  10.007  19.845  0.00  0.00    +0.000 A 
ATOM      3  C   UNL     1      -0.274  10.938  20.562  0.00  0.00    +0.000 A 
ATOM      4  C   UNL     1      -0.473  10.814  21.945  0.00  0.00    +0.000 A 
ATOM      5  C   UNL     1       0.041   9.678  22.578  0.00  0.00    +0.000 A 
ATOM      6  C   UNL     1       0.792   8.732  21.852  0.00  0.00    +0.000 A 
ENDROOT
BRANCH   4   7
ATOM      7  C   UNL     1      -1.189  11.878  22.661  0.00  0.00    +0.000 A 
ATOM      8  N   UNL     1      -2.374  11.841  23.257  0.00  0.00    +0.000 NA
ATOM      9  C   UNL     1      -2.640  13.143  23.645  0.00  0.00    +0.000 A 
ATOM     10  C   UNL     1      -3.770  13.712  24.257  0.00  0.00    +0.000 A 
ATOM     11  C   UNL     1      -3.787  15.099  24.487  0.00  0.00    +0.000 A 
ATOM     12  C   UNL     1      -2.703  15.906  24.130  0.00  0.00    +0.000 A 
ATOM     13  C   UNL     1      -1.561  15.353  23.549  0.00  0.00    +0.000 A 
ATOM     14  C   UNL     1      -1.577  13.976  23.328  0.00  0.00    +0.000 A 
ATOM     15  N   UNL     1      -0.648  13.136  22.791  0.00  0.00    +0.000 N 
ATOM     16  H   UNL     1       0.271  13.407  22.481  0.00  0.00    +0.000 HD
ENDBRANCH   4   7
BRANCH   1  19
ATOM     17  O   UNL     1       2.072   8.990  17.703  0.00  0.00    +0.000 OA
ATOM     18  C   UNL     1       2.263   8.055  18.474  0.00  0.00    +0.000 C 
ATOM     19  N   UNL     1       1.855   7.972  19.803  0.00  0.00    +0.000 N 
ATOM     20  H   UNL     1       2.269   7.243  20.377  0.00  0.00    +0.000 HD
BRANCH  18  21
ATOM     21  C   UNL     1       3.081   6.909  17.992  0.00  0.00    +0.000 A 
ATOM     22  C   UNL     1       2.695   5.604  18.330  0.00  0.00    +0.000 A 
ATOM     23  C   UNL     1       3.397   4.513  17.809  0.00  0.00    +0.000 A 
ATOM     24  C   UNL     1       4.488   4.722  16.966  0.00  0.00    +0.000 A 
ATOM     25  C   UNL     1       4.927   6.021  16.711  0.00  0.00    +0.000 A 
ATOM     26  C   UNL     1       4.229   7.116  17.222  0.00  0.00    +0.000 A 
ATOM     27  O   UNL     1       6.048   6.295  15.982  0.00  0.00    +0.000 OA
ATOM     28  C   UNL     1       6.296   5.271  15.024  0.00  0.00    +0.000 C 
ATOM     29  C   UNL     1       6.191   3.860  15.591  0.00  0.00    +0.000 C 
ATOM     30  O   UNL     1       5.050   3.609  16.413  0.00  0.00    +0.000 OA
ENDBRANCH  18  21
ENDBRANCH   1  19
TORSDOF 3
ENDMDL
MODEL 8
REMARK VINA RESULT:      -8.5      8.019      9.926
REMARK  Name = 
REMARK  3 active torsions:
REMARK  status: ('A' for Active; 'I' for Inactive)
REMARK    1  A    between atoms: C_2  and  C_19
REMARK    2  A    between atoms: N_3  and  C_4
REMARK    3  A    between atoms: C_7  and  C_8
REMARK                            x       y       z     vdW  Elec       q    Type
REMARK                         _______ _______ _______ _____ _____    ______ ____
ROOT
ATOM      1  C   UNL     1       0.723   9.532  20.060  0.00  0.00    +0.000 A 
ATOM      2  C   UNL     1       1.285   8.416  20.665  0.00  0.00    +0.000 A 
ATOM      3  C   UNL     1       2.068   7.524  19.931  0.00  0.00    +0.000 A 
ATOM      4  C   UNL     1       2.331   7.725  18.568  0.00  0.00    +0.000 A 
ATOM      5  C   UNL     1       1.714   8.811  17.939  0.00  0.00    +0.000 A 
ATOM      6  C   UNL     1       0.913   9.705  18.678  0.00  0.00    +0.000 A 
ENDROOT
BRANCH   4   7
ATOM      7  C   UNL     1       3.244   6.808  17.874  0.00  0.00    +0.000 A 
ATOM      8  N   UNL     1       3.111   5.509  17.635  0.00  0.00    +0.000 NA
ATOM      9  C   UNL     1       4.314   5.104  17.083  0.00  0.00    +0.000 A 
ATOM     10  C   UNL     1       4.771   3.833  16.694  0.00  0.00    +0.000 A 
ATOM     11  C   UNL     1       6.084   3.706  16.208  0.00  0.00    +0.000 A 
ATOM     12  C   UNL     1       6.925   4.817  16.097  0.00  0.00    +0.000 A 
ATOM     13  C   UNL     1       6.478   6.091  16.449  0.00  0.00    +0.000 A 
ATOM     14  C   UNL     1       5.174   6.183  16.934  0.00  0.00    +0.000 A 
ATOM     15  N   UNL     1       4.440   7.249  17.358  0.00  0.00    +0.000 N 
ATOM     16  H   UNL     1       4.750   8.208  17.352  0.00  0.00    +0.000 HD
ENDBRANCH   4   7
BRANCH   1  19
ATOM     17  O   UNL     1       1.568  12.148  21.162  0.00  0.00    +0.000 OA
ATOM     18  C   UNL     1       0.444  11.679  21.305  0.00  0.00    +0.000 C 
ATOM     19  N   UNL     1      -0.035  10.484  20.776  0.00  0.00    +0.000 N 
ATOM     20  H   UNL     1      -1.040  10.331  20.793  0.00  0.00    +0.000 HD
BRANCH  18  21
ATOM     21  C   UNL     1      -0.560  12.487  22.051  0.00  0.00    +0.000 A 
ATOM     22  C   UNL     1      -0.272  13.825  22.351  0.00  0.00    +0.000 A 
ATOM     23  C   UNL     1      -1.238  14.624  22.969  0.00  0.00    +0.000 A 
ATOM     24  C   UNL     1      -2.482  14.087  23.299  0.00  0.00    +0.000 A 
ATOM     25  C   UNL     1      -2.728  12.731  23.087  0.00  0.00    +0.000 A 
ATOM     26  C   UNL     1      -1.771  11.927  22.466  0.00  0.00    +0.000 A 
ATOM     27  O   UNL     1      -3.882  12.116  23.481  0.00  0.00    +0.000 OA
ATOM     28  C   UNL     1      -4.971  13.033  23.488  0.00  0.00    +0.000 C 
ATOM     29  C   UNL     1      -4.652  14.361  24.164  0.00  0.00    +0.000 C 
ATOM     30  O   UNL     1      -3.407  14.957  23.797  0.00  0.00    +0.000 OA
ENDBRANCH  18  21
ENDBRANCH   1  19
TORSDOF 3
ENDMDL
MODEL 9
REMARK VINA RESULT:      -8.5      8.232      9.853
REMARK  Name = 
REMARK  3 active torsions:
REMARK  status: ('A' for Active; 'I' for Inactive)
REMARK    1  A    between atoms: C_2  and  C_19
REMARK    2  A    between atoms: N_3  and  C_4
REMARK    3  A    between atoms: C_7  and  C_8
REMARK                            x       y       z     vdW  Elec       q    Type
REMARK                         _______ _______ _______ _____ _____    ______ ____
ROOT
ATOM      1  C   UNL     1       0.514   9.666  20.277  0.00  0.00    +0.000 A 
ATOM      2  C   UNL     1       1.084   8.541  20.857  0.00  0.00    +0.000 A 
ATOM      3  C   UNL     1       1.910   7.696  20.114  0.00  0.00    +0.000 A 
ATOM      4  C   UNL     1       2.207   7.954  18.768  0.00  0.00    +0.000 A 
ATOM      5  C   UNL     1       1.583   9.048  18.162  0.00  0.00    +0.000 A 
ATOM      6  C   UNL     1       0.740   9.895  18.908  0.00  0.00    +0.000 A 
ENDROOT
BRANCH   4   7
ATOM      7  C   UNL     1       3.161   7.084  18.068  0.00  0.00    +0.000 A 
ATOM      8  N   UNL     1       4.145   7.410  17.239  0.00  0.00    +0.000 NA
ATOM      9  C   UNL     1       4.638   6.212  16.752  0.00  0.00    +0.000 A 
ATOM     10  C   UNL     1       5.632   5.941  15.796  0.00  0.00    +0.000 A 
ATOM     11  C   UNL     1       5.891   4.603  15.449  0.00  0.00    +0.000 A 
ATOM     12  C   UNL     1       5.187   3.552  16.044  0.00  0.00    +0.000 A 
ATOM     13  C   UNL     1       4.218   3.801  17.017  0.00  0.00    +0.000 A 
ATOM     14  C   UNL     1       3.981   5.138  17.335  0.00  0.00    +0.000 A 
ATOM     15  N   UNL     1       3.121   5.718  18.219  0.00  0.00    +0.000 N 
ATOM     16  H   UNL     1       2.507   5.222  18.844  0.00  0.00    +0.000 HD
ENDBRANCH   4   7
BRANCH   1  19
ATOM     17  O   UNL     1       1.255  12.274  21.470  0.00  0.00    +0.000 OA
ATOM     18  C   UNL     1       0.143  11.766  21.577  0.00  0.00    +0.000 C 
ATOM     19  N   UNL     1      -0.288  10.573  21.004  0.00  0.00    +0.000 N 
ATOM     20  H   UNL     1      -1.287  10.389  20.997  0.00  0.00    +0.000 HD
BRANCH  18  21
ATOM     21  C   UNL     1      -0.899  12.521  22.326  0.00  0.00    +0.000 A 
ATOM     22  C   UNL     1      -2.057  11.852  22.745  0.00  0.00    +0.000 A 
ATOM     23  C   UNL     1      -3.003  12.521  23.528  0.00  0.00    +0.000 A 
ATOM     24  C   UNL     1      -2.800  13.854  23.881  0.00  0.00    +0.000 A 
ATOM     25  C   UNL     1      -1.696  14.542  23.381  0.00  0.00    +0.000 A 
ATOM     26  C   UNL     1      -0.744  13.882  22.603  0.00  0.00    +0.000 A 
ATOM     27  O   UNL     1      -1.491  15.875  23.599  0.00  0.00    +0.000 OA
ATOM     28  C   UNL     1      -2.073  16.285  24.832  0.00  0.00    +0.000 C 
ATOM     29  C   UNL     1      -3.496  15.781  25.038  0.00  0.00    +0.000 C 
ATOM     30  O   UNL     1      -3.712  14.401  24.735  0.00  0.00    +0.000 OA
ENDBRANCH  18  21
ENDBRANCH   1  19
TORSDOF 3
ENDMDL
