MODEL 1
REMARK VINA RESULT:      -8.1      0.000      0.000
REMARK  Name = 
REMARK  5 active torsions:
REMARK  status: ('A' for Active; 'I' for Inactive)
REMARK    1  A    between atoms: C_2  and  C_4
REMARK    2  A    between atoms: C_8  and  N_9
REMARK    3  A    between atoms: C_10  and  C_12
REMARK    4  A    between atoms: N_15  and  C_16
REMARK    5  A    between atoms: C_23  and  N_24
REMARK                            x       y       z     vdW  Elec       q    Type
REMARK                         _______ _______ _______ _____ _____    ______ ____
ROOT
ATOM      1  C   UNL     1       1.062   9.029  20.870  0.00  0.00    +0.000 A 
ATOM      2  C   UNL     1       1.368   8.957  22.245  0.00  0.00    +0.000 A 
ATOM      3  N   UNL     1       0.849   9.958  22.952  0.00  0.00    +0.000 NA
ATOM      4  N   UNL     1       0.043  10.618  22.075  0.00  0.00    +0.000 N 
ATOM      5  C   UNL     1       0.221  10.135  20.785  0.00  0.00    +0.000 A 
ENDROOT
BRANCH   4   6
ATOM      6  C   UNL     1      -0.871  11.593  22.581  0.00  0.00    +0.000 A 
ATOM      7  C   UNL     1      -2.082  11.166  23.152  0.00  0.00    +0.000 A 
ATOM      8  C   UNL     1      -2.962  12.101  23.707  0.00  0.00    +0.000 A 
ATOM      9  C   UNL     1      -2.646  13.454  23.665  0.00  0.00    +0.000 A 
ATOM     10  F   UNL     1      -3.488  14.346  24.203  0.00  0.00    +0.000 F 
ATOM     11  C   UNL     1      -1.474  13.894  23.066  0.00  0.00    +0.000 A 
ATOM     12  C   UNL     1      -0.588  12.966  22.512  0.00  0.00    +0.000 A 
ENDBRANCH   4   6
BRANCH   5  13
ATOM     13  N   UNL     1      -0.254  10.767  19.633  0.00  0.00    +0.000 N 
ATOM     14  C   UNL     1      -1.329  10.358  18.862  0.00  0.00    +0.000 A 
ATOM     15  C   UNL     1      -1.518  11.246  17.826  0.00  0.00    +0.000 A 
ATOM     16  C   UNL     1      -0.531  12.241  17.952  0.00  0.00    +0.000 A 
ATOM     17  C   UNL     1       0.231  11.919  19.051  0.00  0.00    +0.000 A 
ENDBRANCH   5  13
BRANCH   1  19
ATOM     18  N   UNL     1       1.906   6.911  20.177  0.00  0.00    +0.000 N 
ATOM     19  C   UNL     1       1.603   8.207  19.790  0.00  0.00    +0.000 C 
ATOM     20  O   UNL     1       1.750   8.666  18.668  0.00  0.00    +0.000 OA
ATOM     21  H   UNL     1       1.672   6.607  21.110  0.00  0.00    +0.000 HD
BRANCH  18  26
ATOM     22  C   UNL     1       4.605   4.997  18.734  0.00  0.00    +0.000 A 
ATOM     23  C   UNL     1       3.980   4.185  17.805  0.00  0.00    +0.000 A 
ATOM     24  C   UNL     1       2.601   4.304  17.672  0.00  0.00    +0.000 A 
ATOM     25  C   UNL     1       1.910   5.225  18.463  0.00  0.00    +0.000 A 
ATOM     26  C   UNL     1       2.620   6.009  19.368  0.00  0.00    +0.000 A 
ATOM     27  N   UNL     1       3.948   5.899  19.510  0.00  0.00    +0.000 NA
BRANCH  22  29
ATOM     28  N   UNL     1       6.767   4.201  17.991  0.00  0.00    +0.000 N 
ATOM     29  C   UNL     1       6.085   4.910  18.944  0.00  0.00    +0.000 C 
ATOM     30  O   UNL     1       6.647   5.434  19.896  0.00  0.00    +0.000 OA
ATOM     31  H   UNL     1       7.763   4.068  18.075  0.00  0.00    +0.000 HD
ATOM     32  H   UNL     1       6.253   3.761  17.231  0.00  0.00    +0.000 HD
ENDBRANCH  22  29
ENDBRANCH  18  26
ENDBRANCH   1  19
TORSDOF 5
ENDMDL
MODEL 2
REMARK VINA RESULT:      -8.0      0.166      1.145
REMARK  Name = 
REMARK  5 active torsions:
REMARK  status: ('A' for Active; 'I' for Inactive)
REMARK    1  A    between atoms: C_2  and  C_4
REMARK    2  A    between atoms: C_8  and  N_9
REMARK    3  A    between atoms: C_10  and  C_12
REMARK    4  A    between atoms: N_15  and  C_16
REMARK    5  A    between atoms: C_23  and  N_24
REMARK                            x       y       z     vdW  Elec       q    Type
REMARK                         _______ _______ _______ _____ _____    ______ ____
ROOT
ATOM      1  C   UNL     1       1.097   8.964  20.980  0.00  0.00    +0.000 A 
ATOM      2  C   UNL     1       1.389   8.908  22.358  0.00  0.00    +0.000 A 
ATOM      3  N   UNL     1       0.857   9.913  23.051  0.00  0.00    +0.000 NA
ATOM      4  N   UNL     1       0.056  10.560  22.159  0.00  0.00    +0.000 N 
ATOM      5  C   UNL     1       0.250  10.065  20.875  0.00  0.00    +0.000 A 
ENDROOT
BRANCH   4   6
ATOM      6  C   UNL     1      -0.869  11.534  22.645  0.00  0.00    +0.000 A 
ATOM      7  C   UNL     1      -0.546  12.898  22.541  0.00  0.00    +0.000 A 
ATOM      8  C   UNL     1      -1.465  13.868  22.955  0.00  0.00    +0.000 A 
ATOM      9  C   UNL     1      -2.684  13.476  23.496  0.00  0.00    +0.000 A 
ATOM     10  F   UNL     1      -3.564  14.407  23.886  0.00  0.00    +0.000 F 
ATOM     11  C   UNL     1      -2.999  12.132  23.644  0.00  0.00    +0.000 A 
ATOM     12  C   UNL     1      -2.088  11.157  23.229  0.00  0.00    +0.000 A 
ENDBRANCH   4   6
BRANCH   5  13
ATOM     13  N   UNL     1      -0.216  10.682  19.712  0.00  0.00    +0.000 N 
ATOM     14  C   UNL     1       0.301  11.829  19.133  0.00  0.00    +0.000 A 
ATOM     15  C   UNL     1      -0.397  12.120  17.982  0.00  0.00    +0.000 A 
ATOM     16  C   UNL     1      -1.381  11.125  17.835  0.00  0.00    +0.000 A 
ATOM     17  C   UNL     1      -1.257  10.271  18.907  0.00  0.00    +0.000 A 
ENDBRANCH   5  13
BRANCH   1  19
ATOM     18  N   UNL     1       1.854   6.815  20.285  0.00  0.00    +0.000 N 
ATOM     19  C   UNL     1       1.654   8.135  19.915  0.00  0.00    +0.000 C 
ATOM     20  O   UNL     1       1.897   8.609  18.815  0.00  0.00    +0.000 OA
ATOM     21  H   UNL     1       1.545   6.505  21.194  0.00  0.00    +0.000 HD
BRANCH  18  26
ATOM     22  C   UNL     1       4.551   4.907  18.829  0.00  0.00    +0.000 A 
ATOM     23  C   UNL     1       3.912   4.018  17.983  0.00  0.00    +0.000 A 
ATOM     24  C   UNL     1       2.525   4.082  17.911  0.00  0.00    +0.000 A 
ATOM     25  C   UNL     1       1.838   5.026  18.678  0.00  0.00    +0.000 A 
ATOM     26  C   UNL     1       2.561   5.889  19.498  0.00  0.00    +0.000 A 
ATOM     27  N   UNL     1       3.898   5.833  19.580  0.00  0.00    +0.000 NA
BRANCH  22  29
ATOM     28  N   UNL     1       6.709   4.218  17.977  0.00  0.00    +0.000 N 
ATOM     29  C   UNL     1       6.040   4.884  18.971  0.00  0.00    +0.000 C 
ATOM     30  O   UNL     1       6.623   5.420  19.904  0.00  0.00    +0.000 OA
ATOM     31  H   UNL     1       7.713   4.129  18.014  0.00  0.00    +0.000 HD
ATOM     32  H   UNL     1       6.180   3.765  17.235  0.00  0.00    +0.000 HD
ENDBRANCH  22  29
ENDBRANCH  18  26
ENDBRANCH   1  19
TORSDOF 5
ENDMDL
MODEL 3
REMARK VINA RESULT:      -7.8      1.373      1.846
REMARK  Name = 
REMARK  5 active torsions:
REMARK  status: ('A' for Active; 'I' for Inactive)
REMARK    1  A    between atoms: C_2  and  C_4
REMARK    2  A    between atoms: C_8  and  N_9
REMARK    3  A    between atoms: C_10  and  C_12
REMARK    4  A    between atoms: N_15  and  C_16
REMARK    5  A    between atoms: C_23  and  N_24
REMARK                            x       y       z     vdW  Elec       q    Type
REMARK                         _______ _______ _______ _____ _____    ______ ____
ROOT
ATOM      1  C   UNL     1       0.571   9.487  21.209  0.00  0.00    +0.000 A 
ATOM      2  C   UNL     1       0.654   9.212  22.589  0.00  0.00    +0.000 A 
ATOM      3  N   UNL     1       0.135  10.172  23.350  0.00  0.00    +0.000 NA
ATOM      4  N   UNL     1      -0.458  11.026  22.470  0.00  0.00    +0.000 N 
ATOM      5  C   UNL     1      -0.134  10.687  21.162  0.00  0.00    +0.000 A 
ENDROOT
BRANCH   4   6
ATOM      6  C   UNL     1      -1.338  12.033  22.975  0.00  0.00    +0.000 A 
ATOM      7  C   UNL     1      -0.877  13.356  23.081  0.00  0.00    +0.000 A 
ATOM      8  C   UNL     1      -1.742  14.365  23.515  0.00  0.00    +0.000 A 
ATOM      9  C   UNL     1      -3.049  14.049  23.867  0.00  0.00    +0.000 A 
ATOM     10  F   UNL     1      -3.877  15.019  24.277  0.00  0.00    +0.000 F 
ATOM     11  C   UNL     1      -3.507  12.740  23.807  0.00  0.00    +0.000 A 
ATOM     12  C   UNL     1      -2.649  11.725  23.372  0.00  0.00    +0.000 A 
ENDBRANCH   4   6
BRANCH   5  13
ATOM     13  N   UNL     1      -0.363  11.508  20.055  0.00  0.00    +0.000 N 
ATOM     14  C   UNL     1       0.458  12.532  19.615  0.00  0.00    +0.000 A 
ATOM     15  C   UNL     1      -0.076  13.096  18.477  0.00  0.00    +0.000 A 
ATOM     16  C   UNL     1      -1.269  12.404  18.197  0.00  0.00    +0.000 A 
ATOM     17  C   UNL     1      -1.425  11.452  19.178  0.00  0.00    +0.000 A 
ENDBRANCH   5  13
BRANCH   1  19
ATOM     18  N   UNL     1       1.742   7.538  20.499  0.00  0.00    +0.000 N 
ATOM     19  C   UNL     1       1.186   8.747  20.111  0.00  0.00    +0.000 C 
ATOM     20  O   UNL     1       1.179   9.193  18.973  0.00  0.00    +0.000 OA
ATOM     21  H   UNL     1       1.623   7.223  21.450  0.00  0.00    +0.000 HD
BRANCH  18  26
ATOM     22  C   UNL     1       3.663   4.775  19.191  0.00  0.00    +0.000 A 
ATOM     23  C   UNL     1       4.110   5.231  17.964  0.00  0.00    +0.000 A 
ATOM     24  C   UNL     1       3.745   6.517  17.584  0.00  0.00    +0.000 A 
ATOM     25  C   UNL     1       2.957   7.291  18.439  0.00  0.00    +0.000 A 
ATOM     26  C   UNL     1       2.557   6.757  19.661  0.00  0.00    +0.000 A 
ATOM     27  N   UNL     1       2.898   5.516  20.036  0.00  0.00    +0.000 NA
BRANCH  22  29
ATOM     28  N   UNL     1       5.236   2.939  19.277  0.00  0.00    +0.000 N 
ATOM     29  C   UNL     1       4.002   3.394  19.658  0.00  0.00    +0.000 C 
ATOM     30  O   UNL     1       3.235   2.719  20.331  0.00  0.00    +0.000 OA
ATOM     31  H   UNL     1       5.530   2.006  19.524  0.00  0.00    +0.000 HD
ATOM     32  H   UNL     1       5.829   3.526  18.695  0.00  0.00    +0.000 HD
ENDBRANCH  22  29
ENDBRANCH  18  26
ENDBRANCH   1  19
TORSDOF 5
ENDMDL
MODEL 4
REMARK VINA RESULT:      -7.6      1.612      2.000
REMARK  Name = 
REMARK  5 active torsions:
REMARK  status: ('A' for Active; 'I' for Inactive)
REMARK    1  A    between atoms: C_2  and  C_4
REMARK    2  A    between atoms: C_8  and  N_9
REMARK    3  A    between atoms: C_10  and  C_12
REMARK    4  A    between atoms: N_15  and  C_16
REMARK    5  A    between atoms: C_23  and  N_24
REMARK                            x       y       z     vdW  Elec       q    Type
REMARK                         _______ _______ _______ _____ _____    ______ ____
ROOT
ATOM      1  C   UNL     1       0.845   9.136  21.150  0.00  0.00    +0.000 A 
ATOM      2  C   UNL     1       1.073   9.050  22.538  0.00  0.00    +0.000 A 
ATOM      3  N   UNL     1       0.566  10.074  23.220  0.00  0.00    +0.000 NA
ATOM      4  N   UNL     1      -0.160  10.772  22.302  0.00  0.00    +0.000 N 
ATOM      5  C   UNL     1       0.063  10.281  21.023  0.00  0.00    +0.000 A 
ENDROOT
BRANCH   4   6
ATOM      6  C   UNL     1      -1.053  11.790  22.761  0.00  0.00    +0.000 A 
ATOM      7  C   UNL     1      -2.328  11.424  23.226  0.00  0.00    +0.000 A 
ATOM      8  C   UNL     1      -3.192  12.399  23.736  0.00  0.00    +0.000 A 
ATOM      9  C   UNL     1      -2.796  13.731  23.753  0.00  0.00    +0.000 A 
ATOM     10  F   UNL     1      -3.624  14.661  24.247  0.00  0.00    +0.000 F 
ATOM     11  C   UNL     1      -1.556  14.112  23.257  0.00  0.00    +0.000 A 
ATOM     12  C   UNL     1      -0.685  13.145  22.750  0.00  0.00    +0.000 A 
ENDBRANCH   4   6
BRANCH   5  13
ATOM     13  N   UNL     1      -0.319  10.935  19.848  0.00  0.00    +0.000 N 
ATOM     14  C   UNL     1      -1.382  10.589  19.031  0.00  0.00    +0.000 A 
ATOM     15  C   UNL     1      -1.468  11.481  17.984  0.00  0.00    +0.000 A 
ATOM     16  C   UNL     1      -0.428  12.413  18.152  0.00  0.00    +0.000 A 
ATOM     17  C   UNL     1       0.263  12.051  19.286  0.00  0.00    +0.000 A 
ENDBRANCH   5  13
BRANCH   1  19
ATOM     18  N   UNL     1       1.655   6.989  20.507  0.00  0.00    +0.000 N 
ATOM     19  C   UNL     1       1.403   8.290  20.098  0.00  0.00    +0.000 C 
ATOM     20  O   UNL     1       1.605   8.734  18.978  0.00  0.00    +0.000 OA
ATOM     21  H   UNL     1       1.377   6.701  21.433  0.00  0.00    +0.000 HD
BRANCH  18  26
ATOM     22  C   UNL     1       2.532   4.008  18.671  0.00  0.00    +0.000 A 
ATOM     23  C   UNL     1       3.787   4.286  18.162  0.00  0.00    +0.000 A 
ATOM     24  C   UNL     1       4.343   5.525  18.462  0.00  0.00    +0.000 A 
ATOM     25  C   UNL     1       3.629   6.426  19.255  0.00  0.00    +0.000 A 
ATOM     26  C   UNL     1       2.373   6.061  19.734  0.00  0.00    +0.000 A 
ATOM     27  N   UNL     1       1.825   4.872  19.445  0.00  0.00    +0.000 NA
BRANCH  22  29
ATOM     28  N   UNL     1       2.714   1.672  18.064  0.00  0.00    +0.000 N 
ATOM     29  C   UNL     1       1.865   2.701  18.373  0.00  0.00    +0.000 C 
ATOM     30  O   UNL     1       0.650   2.559  18.404  0.00  0.00    +0.000 OA
ATOM     31  H   UNL     1       2.344   0.766  17.821  0.00  0.00    +0.000 HD
ATOM     32  H   UNL     1       3.716   1.844  18.026  0.00  0.00    +0.000 HD
ENDBRANCH  22  29
ENDBRANCH  18  26
ENDBRANCH   1  19
TORSDOF 5
ENDMDL
MODEL 5
REMARK VINA RESULT:      -7.6      1.512      1.952
REMARK  Name = 
REMARK  5 active torsions:
REMARK  status: ('A' for Active; 'I' for Inactive)
REMARK    1  A    between atoms: C_2  and  C_4
REMARK    2  A    between atoms: C_8  and  N_9
REMARK    3  A    between atoms: C_10  and  C_12
REMARK    4  A    between atoms: N_15  and  C_16
REMARK    5  A    between atoms: C_23  and  N_24
REMARK                            x       y       z     vdW  Elec       q    Type
REMARK                         _______ _______ _______ _____ _____    ______ ____
ROOT
ATOM      1  C   UNL     1       0.926   9.352  20.636  0.00  0.00    +0.000 A 
ATOM      2  C   UNL     1       1.251   9.141  21.992  0.00  0.00    +0.000 A 
ATOM      3  N   UNL     1       0.755  10.073  22.803  0.00  0.00    +0.000 NA
ATOM      4  N   UNL     1      -0.056  10.825  22.008  0.00  0.00    +0.000 N 
ATOM      5  C   UNL     1       0.097  10.470  20.674  0.00  0.00    +0.000 A 
ENDROOT
BRANCH   4   6
ATOM      6  C   UNL     1      -0.952  11.754  22.621  0.00  0.00    +0.000 A 
ATOM      7  C   UNL     1      -0.610  13.118  22.652  0.00  0.00    +0.000 A 
ATOM      8  C   UNL     1      -1.501  14.050  23.193  0.00  0.00    +0.000 A 
ATOM      9  C   UNL     1      -2.710  13.619  23.726  0.00  0.00    +0.000 A 
ATOM     10  F   UNL     1      -3.564  14.515  24.238  0.00  0.00    +0.000 F 
ATOM     11  C   UNL     1      -3.043  12.271  23.741  0.00  0.00    +0.000 A 
ATOM     12  C   UNL     1      -2.160  11.333  23.199  0.00  0.00    +0.000 A 
ENDBRANCH   4   6
BRANCH   5  13
ATOM     13  N   UNL     1      -0.387  11.218  19.597  0.00  0.00    +0.000 N 
ATOM     14  C   UNL     1      -1.528  10.945  18.862  0.00  0.00    +0.000 A 
ATOM     15  C   UNL     1      -1.703  11.917  17.902  0.00  0.00    +0.000 A 
ATOM     16  C   UNL     1      -0.638  12.827  18.041  0.00  0.00    +0.000 A 
ATOM     17  C   UNL     1       0.153  12.371  19.071  0.00  0.00    +0.000 A 
ENDBRANCH   5  13
BRANCH   1  19
ATOM     18  N   UNL     1       2.077   7.445  19.789  0.00  0.00    +0.000 N 
ATOM     19  C   UNL     1       1.441   8.635  19.473  0.00  0.00    +0.000 C 
ATOM     20  O   UNL     1       1.293   9.084  18.345  0.00  0.00    +0.000 OA
ATOM     21  H   UNL     1       2.075   7.125  20.746  0.00  0.00    +0.000 HD
BRANCH  18  26
ATOM     22  C   UNL     1       3.340   4.680  17.842  0.00  0.00    +0.000 A 
ATOM     23  C   UNL     1       4.258   5.264  16.988  0.00  0.00    +0.000 A 
ATOM     24  C   UNL     1       4.446   6.638  17.089  0.00  0.00    +0.000 A 
ATOM     25  C   UNL     1       3.720   7.365  18.035  0.00  0.00    +0.000 A 
ATOM     26  C   UNL     1       2.822   6.695  18.862  0.00  0.00    +0.000 A 
ATOM     27  N   UNL     1       2.627   5.372  18.769  0.00  0.00    +0.000 NA
BRANCH  22  29
ATOM     28  N   UNL     1       4.139   2.409  18.089  0.00  0.00    +0.000 N 
ATOM     29  C   UNL     1       3.072   3.209  17.777  0.00  0.00    +0.000 C 
ATOM     30  O   UNL     1       1.979   2.751  17.470  0.00  0.00    +0.000 OA
ATOM     31  H   UNL     1       4.051   1.405  18.039  0.00  0.00    +0.000 HD
ATOM     32  H   UNL     1       5.036   2.835  18.313  0.00  0.00    +0.000 HD
ENDBRANCH  22  29
ENDBRANCH  18  26
ENDBRANCH   1  19
TORSDOF 5
ENDMDL
MODEL 6
REMARK VINA RESULT:      -7.5      1.241      1.542
REMARK  Name = 
REMARK  5 active torsions:
REMARK  status: ('A' for Active; 'I' for Inactive)
REMARK    1  A    between atoms: C_2  and  C_4
REMARK    2  A    between atoms: C_8  and  N_9
REMARK    3  A    between atoms: C_10  and  C_12
REMARK    4  A    between atoms: N_15  and  C_16
REMARK    5  A    between atoms: C_23  and  N_24
REMARK                            x       y       z     vdW  Elec       q    Type
REMARK                         _______ _______ _______ _____ _____    ______ ____
ROOT
ATOM      1  C   UNL     1       0.938   9.315  20.588  0.00  0.00    +0.000 A 
ATOM      2  C   UNL     1       1.299   9.151  21.941  0.00  0.00    +0.000 A 
ATOM      3  N   UNL     1       0.822  10.108  22.733  0.00  0.00    +0.000 NA
ATOM      4  N   UNL     1      -0.012  10.832  21.935  0.00  0.00    +0.000 N 
ATOM      5  C   UNL     1       0.107  10.433  20.610  0.00  0.00    +0.000 A 
ENDROOT
BRANCH   4   6
ATOM      6  C   UNL     1      -0.893  11.780  22.541  0.00  0.00    +0.000 A 
ATOM      7  C   UNL     1      -0.562  13.146  22.503  0.00  0.00    +0.000 A 
ATOM      8  C   UNL     1      -1.441  14.094  23.036  0.00  0.00    +0.000 A 
ATOM      9  C   UNL     1      -2.627  13.677  23.628  0.00  0.00    +0.000 A 
ATOM     10  F   UNL     1      -3.470  14.588  24.133  0.00  0.00    +0.000 F 
ATOM     11  C   UNL     1      -2.948  12.329  23.711  0.00  0.00    +0.000 A 
ATOM     12  C   UNL     1      -2.077  11.375  23.178  0.00  0.00    +0.000 A 
ENDBRANCH   4   6
BRANCH   5  13
ATOM     13  N   UNL     1      -0.408  11.143  19.522  0.00  0.00    +0.000 N 
ATOM     14  C   UNL     1      -1.558  10.835  18.817  0.00  0.00    +0.000 A 
ATOM     15  C   UNL     1      -1.764  11.777  17.834  0.00  0.00    +0.000 A 
ATOM     16  C   UNL     1      -0.709  12.704  17.927  0.00  0.00    +0.000 A 
ATOM     17  C   UNL     1       0.107  12.288  18.953  0.00  0.00    +0.000 A 
ENDBRANCH   5  13
BRANCH   1  19
ATOM     18  N   UNL     1       1.893   7.297  19.757  0.00  0.00    +0.000 N 
ATOM     19  C   UNL     1       1.423   8.561  19.436  0.00  0.00    +0.000 C 
ATOM     20  O   UNL     1       1.392   9.043  18.313  0.00  0.00    +0.000 OA
ATOM     21  H   UNL     1       1.801   6.963  20.704  0.00  0.00    +0.000 HD
BRANCH  18  26
ATOM     22  C   UNL     1       4.310   6.146  17.334  0.00  0.00    +0.000 A 
ATOM     23  C   UNL     1       3.970   4.822  17.127  0.00  0.00    +0.000 A 
ATOM     24  C   UNL     1       2.884   4.318  17.834  0.00  0.00    +0.000 A 
ATOM     25  C   UNL     1       2.185   5.153  18.709  0.00  0.00    +0.000 A 
ATOM     26  C   UNL     1       2.590   6.478  18.851  0.00  0.00    +0.000 A 
ATOM     27  N   UNL     1       3.639   6.973  18.180  0.00  0.00    +0.000 NA
BRANCH  22  29
ATOM     28  N   UNL     1       5.610   6.387  15.308  0.00  0.00    +0.000 N 
ATOM     29  C   UNL     1       5.479   6.751  16.622  0.00  0.00    +0.000 C 
ATOM     30  O   UNL     1       6.261   7.517  17.169  0.00  0.00    +0.000 OA
ATOM     31  H   UNL     1       6.390   6.725  14.764  0.00  0.00    +0.000 HD
ATOM     32  H   UNL     1       4.950   5.727  14.902  0.00  0.00    +0.000 HD
ENDBRANCH  22  29
ENDBRANCH  18  26
ENDBRANCH   1  19
TORSDOF 5
ENDMDL
MODEL 7
REMARK VINA RESULT:      -7.3      1.347      1.395
REMARK  Name = 
REMARK  5 active torsions:
REMARK  status: ('A' for Active; 'I' for Inactive)
REMARK    1  A    between atoms: C_2  and  C_4
REMARK    2  A    between atoms: C_8  and  N_9
REMARK    3  A    between atoms: C_10  and  C_12
REMARK    4  A    between atoms: N_15  and  C_16
REMARK    5  A    between atoms: C_23  and  N_24
REMARK                            x       y       z     vdW  Elec       q    Type
REMARK                         _______ _______ _______ _____ _____    ______ ____
ROOT
ATOM      1  C   UNL     1       0.481   9.382  21.488  0.00  0.00    +0.000 A 
ATOM      2  C   UNL     1       0.523   9.229  22.889  0.00  0.00    +0.000 A 
ATOM      3  N   UNL     1       0.018  10.270  23.547  0.00  0.00    +0.000 NA
ATOM      4  N   UNL     1      -0.525  11.060  22.579  0.00  0.00    +0.000 N 
ATOM      5  C   UNL     1      -0.181  10.594  21.316  0.00  0.00    +0.000 A 
ENDROOT
BRANCH   4   6
ATOM      6  C   UNL     1      -1.382  12.135  22.968  0.00  0.00    +0.000 A 
ATOM      7  C   UNL     1      -2.707  11.855  23.342  0.00  0.00    +0.000 A 
ATOM      8  C   UNL     1      -3.542  12.886  23.784  0.00  0.00    +0.000 A 
ATOM      9  C   UNL     1      -3.064  14.190  23.824  0.00  0.00    +0.000 A 
ATOM     10  F   UNL     1      -3.865  15.175  24.253  0.00  0.00    +0.000 F 
ATOM     11  C   UNL     1      -1.771  14.489  23.417  0.00  0.00    +0.000 A 
ATOM     12  C   UNL     1      -0.929  13.464  22.977  0.00  0.00    +0.000 A 
ENDBRANCH   4   6
BRANCH   5  13
ATOM     13  N   UNL     1      -0.356  11.319  20.133  0.00  0.00    +0.000 N 
ATOM     14  C   UNL     1      -1.403  11.181  19.239  0.00  0.00    +0.000 A 
ATOM     15  C   UNL     1      -1.254  12.083  18.210  0.00  0.00    +0.000 A 
ATOM     16  C   UNL     1      -0.075  12.808  18.467  0.00  0.00    +0.000 A 
ATOM     17  C   UNL     1       0.457  12.315  19.636  0.00  0.00    +0.000 A 
ENDBRANCH   5  13
BRANCH   1  19
ATOM     18  N   UNL     1       1.333   7.232  20.914  0.00  0.00    +0.000 N 
ATOM     19  C   UNL     1       1.097   8.526  20.477  0.00  0.00    +0.000 C 
ATOM     20  O   UNL     1       1.354   8.958  19.364  0.00  0.00    +0.000 OA
ATOM     21  H   UNL     1       1.009   6.953  21.828  0.00  0.00    +0.000 HD
BRANCH  18  26
ATOM     22  C   UNL     1       3.754   5.800  18.651  0.00  0.00    +0.000 A 
ATOM     23  C   UNL     1       3.613   4.436  18.831  0.00  0.00    +0.000 A 
ATOM     24  C   UNL     1       2.662   4.003  19.748  0.00  0.00    +0.000 A 
ATOM     25  C   UNL     1       1.893   4.942  20.439  0.00  0.00    +0.000 A 
ATOM     26  C   UNL     1       2.094   6.298  20.190  0.00  0.00    +0.000 A 
ATOM     27  N   UNL     1       3.013   6.727  19.313  0.00  0.00    +0.000 NA
BRANCH  22  29
ATOM     28  N   UNL     1       6.074   6.066  18.017  0.00  0.00    +0.000 N 
ATOM     29  C   UNL     1       4.770   6.339  17.694  0.00  0.00    +0.000 C 
ATOM     30  O   UNL     1       4.464   6.976  16.695  0.00  0.00    +0.000 OA
ATOM     31  H   UNL     1       6.822   6.420  17.441  0.00  0.00    +0.000 HD
ATOM     32  H   UNL     1       6.282   5.555  18.871  0.00  0.00    +0.000 HD
ENDBRANCH  22  29
ENDBRANCH  18  26
ENDBRANCH   1  19
TORSDOF 5
ENDMDL
MODEL 8
REMARK VINA RESULT:      -7.3      2.695      3.892
REMARK  Name = 
REMARK  5 active torsions:
REMARK  status: ('A' for Active; 'I' for Inactive)
REMARK    1  A    between atoms: C_2  and  C_4
REMARK    2  A    between atoms: C_8  and  N_9
REMARK    3  A    between atoms: C_10  and  C_12
REMARK    4  A    between atoms: N_15  and  C_16
REMARK    5  A    between atoms: C_23  and  N_24
REMARK                            x       y       z     vdW  Elec       q    Type
REMARK                         _______ _______ _______ _____ _____    ______ ____
ROOT
ATOM      1  C   UNL     1       2.012   8.233  18.880  0.00  0.00    +0.000 A 
ATOM      2  C   UNL     1       2.251   8.786  17.605  0.00  0.00    +0.000 A 
ATOM      3  N   UNL     1       1.811  10.037  17.484  0.00  0.00    +0.000 NA
ATOM      4  N   UNL     1       1.426  10.390  18.742  0.00  0.00    +0.000 N 
ATOM      5  C   UNL     1       1.450   9.290  19.590  0.00  0.00    +0.000 A 
ENDROOT
BRANCH   4   6
ATOM      6  C   UNL     1       1.148  11.765  19.016  0.00  0.00    +0.000 A 
ATOM      7  C   UNL     1      -0.187  12.178  19.164  0.00  0.00    +0.000 A 
ATOM      8  C   UNL     1      -0.476  13.507  19.493  0.00  0.00    +0.000 A 
ATOM      9  C   UNL     1       0.561  14.420  19.644  0.00  0.00    +0.000 A 
ATOM     10  F   UNL     1       0.282  15.690  19.965  0.00  0.00    +0.000 F 
ATOM     11  C   UNL     1       1.882  14.036  19.459  0.00  0.00    +0.000 A 
ATOM     12  C   UNL     1       2.179  12.710  19.134  0.00  0.00    +0.000 A 
ENDBRANCH   4   6
BRANCH   5  13
ATOM     13  N   UNL     1       0.868   9.260  20.860  0.00  0.00    +0.000 N 
ATOM     14  C   UNL     1      -0.457   8.974  21.143  0.00  0.00    +0.000 A 
ATOM     15  C   UNL     1      -0.656   9.008  22.506  0.00  0.00    +0.000 A 
ATOM     16  C   UNL     1       0.583   9.326  23.093  0.00  0.00    +0.000 A 
ATOM     17  C   UNL     1       1.489   9.486  22.070  0.00  0.00    +0.000 A 
ENDBRANCH   5  13
BRANCH   1  19
ATOM     18  N   UNL     1       2.762   6.041  18.324  0.00  0.00    +0.000 N 
ATOM     19  C   UNL     1       2.202   6.848  19.302  0.00  0.00    +0.000 C 
ATOM     20  O   UNL     1       1.885   6.487  20.426  0.00  0.00    +0.000 OA
ATOM     21  H   UNL     1       3.062   6.455  17.455  0.00  0.00    +0.000 HD
BRANCH  18  26
ATOM     22  C   UNL     1       3.370   2.735  19.642  0.00  0.00    +0.000 A 
ATOM     23  C   UNL     1       2.948   1.890  18.632  0.00  0.00    +0.000 A 
ATOM     24  C   UNL     1       2.447   2.473  17.473  0.00  0.00    +0.000 A 
ATOM     25  C   UNL     1       2.394   3.865  17.369  0.00  0.00    +0.000 A 
ATOM     26  C   UNL     1       2.849   4.642  18.432  0.00  0.00    +0.000 A 
ATOM     27  N   UNL     1       3.327   4.091  19.557  0.00  0.00    +0.000 NA
BRANCH  22  29
ATOM     28  N   UNL     1       5.173   1.670  20.855  0.00  0.00    +0.000 N 
ATOM     29  C   UNL     1       3.903   2.178  20.925  0.00  0.00    +0.000 C 
ATOM     30  O   UNL     1       3.255   2.176  21.962  0.00  0.00    +0.000 OA
ATOM     31  H   UNL     1       5.595   1.248  21.667  0.00  0.00    +0.000 HD
ATOM     32  H   UNL     1       5.664   1.670  19.963  0.00  0.00    +0.000 HD
ENDBRANCH  22  29
ENDBRANCH  18  26
ENDBRANCH   1  19
TORSDOF 5
ENDMDL
MODEL 9
REMARK VINA RESULT:      -7.2      0.759      1.176
REMARK  Name = 
REMARK  5 active torsions:
REMARK  status: ('A' for Active; 'I' for Inactive)
REMARK    1  A    between atoms: C_2  and  C_4
REMARK    2  A    between atoms: C_8  and  N_9
REMARK    3  A    between atoms: C_10  and  C_12
REMARK    4  A    between atoms: N_15  and  C_16
REMARK    5  A    between atoms: C_23  and  N_24
REMARK                            x       y       z     vdW  Elec       q    Type
REMARK                         _______ _______ _______ _____ _____    ______ ____
ROOT
ATOM      1  C   UNL     1       1.048   8.987  20.834  0.00  0.00    +0.000 A 
ATOM      2  C   UNL     1       1.416   8.969  22.195  0.00  0.00    +0.000 A 
ATOM      3  N   UNL     1       0.941  10.004  22.883  0.00  0.00    +0.000 NA
ATOM      4  N   UNL     1       0.102  10.638  22.016  0.00  0.00    +0.000 N 
ATOM      5  C   UNL     1       0.215  10.099  20.741  0.00  0.00    +0.000 A 
ENDROOT
BRANCH   4   6
ATOM      6  C   UNL     1      -0.778  11.644  22.522  0.00  0.00    +0.000 A 
ATOM      7  C   UNL     1      -0.410  12.996  22.411  0.00  0.00    +0.000 A 
ATOM      8  C   UNL     1      -1.285  13.997  22.845  0.00  0.00    +0.000 A 
ATOM      9  C   UNL     1      -2.505  13.648  23.410  0.00  0.00    +0.000 A 
ATOM     10  F   UNL     1      -3.344  14.609  23.819  0.00  0.00    +0.000 F 
ATOM     11  C   UNL     1      -2.865  12.315  23.565  0.00  0.00    +0.000 A 
ATOM     12  C   UNL     1      -1.998  11.309  23.132  0.00  0.00    +0.000 A 
ENDBRANCH   4   6
BRANCH   5  13
ATOM     13  N   UNL     1      -0.306  10.689  19.586  0.00  0.00    +0.000 N 
ATOM     14  C   UNL     1      -1.394  10.238  18.859  0.00  0.00    +0.000 A 
ATOM     15  C   UNL     1      -1.632  11.091  17.805  0.00  0.00    +0.000 A 
ATOM     16  C   UNL     1      -0.661  12.108  17.873  0.00  0.00    +0.000 A 
ATOM     17  C   UNL     1       0.139  11.833  18.958  0.00  0.00    +0.000 A 
ENDBRANCH   5  13
BRANCH   1  19
ATOM     18  N   UNL     1       1.536   6.772  20.106  0.00  0.00    +0.000 N 
ATOM     19  C   UNL     1       1.530   8.116  19.766  0.00  0.00    +0.000 C 
ATOM     20  O   UNL     1       1.878   8.577  18.690  0.00  0.00    +0.000 OA
ATOM     21  H   UNL     1       1.153   6.486  20.994  0.00  0.00    +0.000 HD
BRANCH  18  26
ATOM     22  C   UNL     1       3.886   4.305  18.912  0.00  0.00    +0.000 A 
ATOM     23  C   UNL     1       3.278   3.783  17.785  0.00  0.00    +0.000 A 
ATOM     24  C   UNL     1       2.035   4.295  17.429  0.00  0.00    +0.000 A 
ATOM     25  C   UNL     1       1.457   5.303  18.205  0.00  0.00    +0.000 A 
ATOM     26  C   UNL     1       2.143   5.777  19.320  0.00  0.00    +0.000 A 
ATOM     27  N   UNL     1       3.339   5.287  19.676  0.00  0.00    +0.000 NA
BRANCH  22  29
ATOM     28  N   UNL     1       5.211   2.500  19.830  0.00  0.00    +0.000 N 
ATOM     29  C   UNL     1       5.215   3.789  19.365  0.00  0.00    +0.000 C 
ATOM     30  O   UNL     1       6.235   4.465  19.324  0.00  0.00    +0.000 OA
ATOM     31  H   UNL     1       6.060   2.087  20.185  0.00  0.00    +0.000 HD
ATOM     32  H   UNL     1       4.334   1.985  19.870  0.00  0.00    +0.000 HD
ENDBRANCH  22  29
ENDBRANCH  18  26
ENDBRANCH   1  19
TORSDOF 5
ENDMDL
