MODEL 1
REMARK VINA RESULT:      -8.4      0.000      0.000
REMARK  Name = 
REMARK  5 active torsions:
REMARK  status: ('A' for Active; 'I' for Inactive)
REMARK    1  A    between atoms: C_1  and  O_2
REMARK    2  A    between atoms: O_2  and  C_3
REMARK    3  A    between atoms: C_9  and  C_10
REMARK    4  A    between atoms: N_12  and  C_13
REMARK    5  A    between atoms: C_17  and  C_18
REMARK                            x       y       z     vdW  Elec       q    Type
REMARK                         _______ _______ _______ _____ _____    ______ ____
ROOT
ATOM      1  C   UNL     1       2.001   7.249  19.879  0.00  0.00    +0.000 A 
ATOM      2  C   UNL     1       1.211   6.262  20.472  0.00  0.00    +0.000 A 
ATOM      3  C   UNL     1       1.713   4.984  20.697  0.00  0.00    +0.000 A 
ATOM      4  C   UNL     1       3.010   4.676  20.306  0.00  0.00    +0.000 A 
ATOM      5  C   UNL     1       3.787   5.611  19.606  0.00  0.00    +0.000 A 
ATOM      6  C   UNL     1       3.283   6.909  19.422  0.00  0.00    +0.000 A 
ENDROOT
BRANCH   5   7
ATOM      7  C   UNL     1       5.092   5.237  19.052  0.00  0.00    +0.000 A 
ATOM      8  N   UNL     1       6.194   5.014  19.739  0.00  0.00    +0.000 NA
ATOM      9  N   UNL     1       7.195   4.673  18.863  0.00  0.00    +0.000 NA
ATOM     10  C   UNL     1       6.712   4.715  17.639  0.00  0.00    +0.000 A 
ATOM     11  N   UNL     1       5.397   5.113  17.708  0.00  0.00    +0.000 N 
ATOM     12  C   UNL     1       4.507   5.390  16.595  0.00  0.00    +0.000 C 
ATOM     13  C   UNL     1       5.169   6.046  15.396  0.00  0.00    +0.000 C 
ATOM     14  C   UNL     1       5.909   5.062  14.497  0.00  0.00    +0.000 C 
ATOM     15  C   UNL     1       6.647   3.937  15.222  0.00  0.00    +0.000 C 
ATOM     16  C   UNL     1       7.487   4.418  16.401  0.00  0.00    +0.000 C 
ENDBRANCH   5   7
BRANCH   1  19
ATOM     17  C   UNL     1       1.544   9.287  18.516  0.00  0.00    +0.000 C 
ATOM     18  O   UNL     1       1.901   8.843  17.427  0.00  0.00    +0.000 OA
ATOM     19  N   UNL     1       1.559   8.578  19.704  0.00  0.00    +0.000 N 
ATOM     20  H   UNL     1       1.143   9.035  20.509  0.00  0.00    +0.000 HD
BRANCH  17  27
ATOM     21  C   UNL     1      -0.341  11.049  18.684  0.00  0.00    +0.000 A 
ATOM     22  C   UNL     1      -0.688  12.408  18.722  0.00  0.00    +0.000 A 
ATOM     23  C   UNL     1       0.288  13.402  18.603  0.00  0.00    +0.000 A 
ATOM     24  C   UNL     1       1.621  13.048  18.450  0.00  0.00    +0.000 A 
ATOM     25 CL   UNL     1       2.823  14.268  18.302  0.00  0.00    +0.000 Cl
ATOM     26  C   UNL     1       1.986  11.708  18.423  0.00  0.00    +0.000 A 
ATOM     27  C   UNL     1       1.016  10.692  18.547  0.00  0.00    +0.000 A 
BRANCH  21  29
ATOM     28  C   UNL     1      -2.370  10.051  17.920  0.00  0.00    +0.000 C 
ATOM     29  O   UNL     1      -1.265  10.043  18.820  0.00  0.00    +0.000 OA
ENDBRANCH  21  29
ENDBRANCH  17  27
ENDBRANCH   1  19
TORSDOF 4
ENDMDL
MODEL 2
REMARK VINA RESULT:      -8.3      1.481      1.644
REMARK  Name = 
REMARK  5 active torsions:
REMARK  status: ('A' for Active; 'I' for Inactive)
REMARK    1  A    between atoms: C_1  and  O_2
REMARK    2  A    between atoms: O_2  and  C_3
REMARK    3  A    between atoms: C_9  and  C_10
REMARK    4  A    between atoms: N_12  and  C_13
REMARK    5  A    between atoms: C_17  and  C_18
REMARK                            x       y       z     vdW  Elec       q    Type
REMARK                         _______ _______ _______ _____ _____    ______ ____
ROOT
ATOM      1  C   UNL     1       2.082   6.580  20.336  0.00  0.00    +0.000 A 
ATOM      2  C   UNL     1       1.312   5.454  20.636  0.00  0.00    +0.000 A 
ATOM      3  C   UNL     1       1.842   4.173  20.515  0.00  0.00    +0.000 A 
ATOM      4  C   UNL     1       3.146   4.007  20.068  0.00  0.00    +0.000 A 
ATOM      5  C   UNL     1       3.905   5.111  19.650  0.00  0.00    +0.000 A 
ATOM      6  C   UNL     1       3.373   6.400  19.817  0.00  0.00    +0.000 A 
ENDROOT
BRANCH   5   7
ATOM      7  C   UNL     1       5.219   4.926  19.028  0.00  0.00    +0.000 A 
ATOM      8  N   UNL     1       6.366   4.779  19.661  0.00  0.00    +0.000 NA
ATOM      9  N   UNL     1       7.363   4.615  18.729  0.00  0.00    +0.000 NA
ATOM     10  C   UNL     1       6.828   4.691  17.529  0.00  0.00    +0.000 A 
ATOM     11  N   UNL     1       5.482   4.934  17.669  0.00  0.00    +0.000 N 
ATOM     12  C   UNL     1       4.523   5.189  16.610  0.00  0.00    +0.000 C 
ATOM     13  C   UNL     1       5.060   5.999  15.444  0.00  0.00    +0.000 C 
ATOM     14  C   UNL     1       5.867   5.172  14.449  0.00  0.00    +0.000 C 
ATOM     15  C   UNL     1       6.752   4.087  15.062  0.00  0.00    +0.000 C 
ATOM     16  C   UNL     1       7.581   4.573  16.247  0.00  0.00    +0.000 C 
ENDBRANCH   5   7
BRANCH   1  19
ATOM     17  C   UNL     1       1.374   8.829  19.525  0.00  0.00    +0.000 C 
ATOM     18  O   UNL     1       1.525   8.628  18.322  0.00  0.00    +0.000 OA
ATOM     19  N   UNL     1       1.612   7.897  20.520  0.00  0.00    +0.000 N 
ATOM     20  H   UNL     1       1.351   8.166  21.463  0.00  0.00    +0.000 HD
BRANCH  17  27
ATOM     21  C   UNL     1       0.015  10.421  21.041  0.00  0.00    +0.000 A 
ATOM     22  C   UNL     1      -0.372  11.740  21.325  0.00  0.00    +0.000 A 
ATOM     23  C   UNL     1       0.048  12.801  20.516  0.00  0.00    +0.000 A 
ATOM     24  C   UNL     1       0.863  12.555  19.419  0.00  0.00    +0.000 A 
ATOM     25 CL   UNL     1       1.379  13.857  18.423  0.00  0.00    +0.000 Cl
ATOM     26  C   UNL     1       1.267  11.258  19.130  0.00  0.00    +0.000 A 
ATOM     27  C   UNL     1       0.858  10.176  19.938  0.00  0.00    +0.000 A 
BRANCH  21  29
ATOM     28  C   UNL     1      -0.189   9.494  23.231  0.00  0.00    +0.000 C 
ATOM     29  O   UNL     1      -0.356   9.355  21.823  0.00  0.00    +0.000 OA
ENDBRANCH  21  29
ENDBRANCH  17  27
ENDBRANCH   1  19
TORSDOF 4
ENDMDL
MODEL 3
REMARK VINA RESULT:      -8.2      2.053      2.433
REMARK  Name = 
REMARK  5 active torsions:
REMARK  status: ('A' for Active; 'I' for Inactive)
REMARK    1  A    between atoms: C_1  and  O_2
REMARK    2  A    between atoms: O_2  and  C_3
REMARK    3  A    between atoms: C_9  and  C_10
REMARK    4  A    between atoms: N_12  and  C_13
REMARK    5  A    between atoms: C_17  and  C_18
REMARK                            x       y       z     vdW  Elec       q    Type
REMARK                         _______ _______ _______ _____ _____    ______ ____
ROOT
ATOM      1  C   UNL     1       1.857   6.267  20.159  0.00  0.00    +0.000 A 
ATOM      2  C   UNL     1       1.294   5.109  20.699  0.00  0.00    +0.000 A 
ATOM      3  C   UNL     1       2.040   3.941  20.819  0.00  0.00    +0.000 A 
ATOM      4  C   UNL     1       3.355   3.916  20.374  0.00  0.00    +0.000 A 
ATOM      5  C   UNL     1       3.912   5.028  19.724  0.00  0.00    +0.000 A 
ATOM      6  C   UNL     1       3.162   6.212  19.647  0.00  0.00    +0.000 A 
ENDROOT
BRANCH   5   7
ATOM      7  C   UNL     1       5.241   4.951  19.111  0.00  0.00    +0.000 A 
ATOM      8  N   UNL     1       6.393   4.936  19.752  0.00  0.00    +0.000 NA
ATOM      9  N   UNL     1       7.406   4.839  18.829  0.00  0.00    +0.000 NA
ATOM     10  C   UNL     1       6.874   4.825  17.625  0.00  0.00    +0.000 A 
ATOM     11  N   UNL     1       5.510   4.941  17.754  0.00  0.00    +0.000 N 
ATOM     12  C   UNL     1       4.537   5.068  16.684  0.00  0.00    +0.000 C 
ATOM     13  C   UNL     1       5.001   5.889  15.494  0.00  0.00    +0.000 C 
ATOM     14  C   UNL     1       5.890   5.111  14.529  0.00  0.00    +0.000 C 
ATOM     15  C   UNL     1       6.871   4.137  15.179  0.00  0.00    +0.000 C 
ATOM     16  C   UNL     1       7.643   4.739  16.350  0.00  0.00    +0.000 C 
ENDBRANCH   5   7
BRANCH   1  19
ATOM     17  C   UNL     1       1.162   8.489  21.054  0.00  0.00    +0.000 C 
ATOM     18  O   UNL     1       1.794   8.449  22.108  0.00  0.00    +0.000 OA
ATOM     19  N   UNL     1       1.162   7.494  20.092  0.00  0.00    +0.000 N 
ATOM     20  H   UNL     1       0.675   7.701  19.227  0.00  0.00    +0.000 HD
BRANCH  17  27
ATOM     21  C   UNL     1       0.193  10.320  19.508  0.00  0.00    +0.000 A 
ATOM     22  C   UNL     1      -0.603  11.469  19.392  0.00  0.00    +0.000 A 
ATOM     23  C   UNL     1      -1.204  12.042  20.518  0.00  0.00    +0.000 A 
ATOM     24  C   UNL     1      -1.020  11.469  21.768  0.00  0.00    +0.000 A 
ATOM     25 CL   UNL     1      -1.757  12.172  23.153  0.00  0.00    +0.000 Cl
ATOM     26  C   UNL     1      -0.245  10.324  21.901  0.00  0.00    +0.000 A 
ATOM     27  C   UNL     1       0.364   9.729  20.776  0.00  0.00    +0.000 A 
BRANCH  21  29
ATOM     28  C   UNL     1       2.007  10.271  17.957  0.00  0.00    +0.000 C 
ATOM     29  O   UNL     1       0.782   9.714  18.426  0.00  0.00    +0.000 OA
ENDBRANCH  21  29
ENDBRANCH  17  27
ENDBRANCH   1  19
TORSDOF 4
ENDMDL
MODEL 4
REMARK VINA RESULT:      -8.0      3.692      9.210
REMARK  Name = 
REMARK  5 active torsions:
REMARK  status: ('A' for Active; 'I' for Inactive)
REMARK    1  A    between atoms: C_1  and  O_2
REMARK    2  A    between atoms: O_2  and  C_3
REMARK    3  A    between atoms: C_9  and  C_10
REMARK    4  A    between atoms: N_12  and  C_13
REMARK    5  A    between atoms: C_17  and  C_18
REMARK                            x       y       z     vdW  Elec       q    Type
REMARK                         _______ _______ _______ _____ _____    ______ ____
ROOT
ATOM      1  C   UNL     1       1.765   9.422  18.599  0.00  0.00    +0.000 A 
ATOM      2  C   UNL     1       2.227  10.534  17.892  0.00  0.00    +0.000 A 
ATOM      3  C   UNL     1       1.999  11.824  18.361  0.00  0.00    +0.000 A 
ATOM      4  C   UNL     1       1.283  12.012  19.536  0.00  0.00    +0.000 A 
ATOM      5  C   UNL     1       0.709  10.921  20.207  0.00  0.00    +0.000 A 
ATOM      6  C   UNL     1       0.982   9.624  19.745  0.00  0.00    +0.000 A 
ENDROOT
BRANCH   5   7
ATOM      7  C   UNL     1      -0.179  11.128  21.354  0.00  0.00    +0.000 A 
ATOM      8  N   UNL     1      -0.037  10.601  22.554  0.00  0.00    +0.000 NA
ATOM      9  N   UNL     1      -1.061  11.049  23.353  0.00  0.00    +0.000 NA
ATOM     10  C   UNL     1      -1.843  11.826  22.634  0.00  0.00    +0.000 A 
ATOM     11  N   UNL     1      -1.350  11.867  21.351  0.00  0.00    +0.000 N 
ATOM     12  C   UNL     1      -1.950  12.520  20.202  0.00  0.00    +0.000 C 
ATOM     13  C   UNL     1      -3.467  12.462  20.155  0.00  0.00    +0.000 C 
ATOM     14  C   UNL     1      -4.143  13.504  21.041  0.00  0.00    +0.000 C 
ATOM     15  C   UNL     1      -3.457  13.772  22.380  0.00  0.00    +0.000 C 
ATOM     16  C   UNL     1      -3.074  12.502  23.135  0.00  0.00    +0.000 C 
ENDBRANCH   5   7
BRANCH   1  19
ATOM     17  C   UNL     1       2.346   7.037  19.038  0.00  0.00    +0.000 C 
ATOM     18  O   UNL     1       2.399   7.101  20.264  0.00  0.00    +0.000 OA
ATOM     19  N   UNL     1       2.042   8.096  18.202  0.00  0.00    +0.000 N 
ATOM     20  H   UNL     1       1.936   7.879  17.216  0.00  0.00    +0.000 HD
BRANCH  17  27
ATOM     21  C   UNL     1       3.637   5.401  17.508  0.00  0.00    +0.000 A 
ATOM     22  C   UNL     1       3.762   4.094  17.014  0.00  0.00    +0.000 A 
ATOM     23  C   UNL     1       2.853   3.097  17.384  0.00  0.00    +0.000 A 
ATOM     24  C   UNL     1       1.815   3.395  18.255  0.00  0.00    +0.000 A 
ATOM     25 CL   UNL     1       0.697   2.172  18.710  0.00  0.00    +0.000 Cl
ATOM     26  C   UNL     1       1.683   4.680  18.765  0.00  0.00    +0.000 A 
ATOM     27  C   UNL     1       2.593   5.697  18.407  0.00  0.00    +0.000 A 
BRANCH  21  29
ATOM     28  C   UNL     1       5.307   6.223  16.013  0.00  0.00    +0.000 C 
ATOM     29  O   UNL     1       4.520   6.403  17.188  0.00  0.00    +0.000 OA
ENDBRANCH  21  29
ENDBRANCH  17  27
ENDBRANCH   1  19
TORSDOF 4
ENDMDL
MODEL 5
REMARK VINA RESULT:      -8.0      3.761      9.650
REMARK  Name = 
REMARK  5 active torsions:
REMARK  status: ('A' for Active; 'I' for Inactive)
REMARK    1  A    between atoms: C_1  and  O_2
REMARK    2  A    between atoms: O_2  and  C_3
REMARK    3  A    between atoms: C_9  and  C_10
REMARK    4  A    between atoms: N_12  and  C_13
REMARK    5  A    between atoms: C_17  and  C_18
REMARK                            x       y       z     vdW  Elec       q    Type
REMARK                         _______ _______ _______ _____ _____    ______ ____
ROOT
ATOM      1  C   UNL     1       1.003  10.015  18.556  0.00  0.00    +0.000 A 
ATOM      2  C   UNL     1       1.780  11.172  18.648  0.00  0.00    +0.000 A 
ATOM      3  C   UNL     1       1.189  12.431  18.657  0.00  0.00    +0.000 A 
ATOM      4  C   UNL     1      -0.192  12.544  18.549  0.00  0.00    +0.000 A 
ATOM      5  C   UNL     1      -0.988  11.407  18.341  0.00  0.00    +0.000 A 
ATOM      6  C   UNL     1      -0.382  10.141  18.376  0.00  0.00    +0.000 A 
ENDROOT
BRANCH   5   7
ATOM      7  C   UNL     1      -2.422  11.536  18.066  0.00  0.00    +0.000 A 
ATOM      8  N   UNL     1      -3.014  11.329  16.906  0.00  0.00    +0.000 NA
ATOM      9  N   UNL     1      -4.363  11.534  17.060  0.00  0.00    +0.000 NA
ATOM     10  C   UNL     1      -4.591  11.893  18.306  0.00  0.00    +0.000 A 
ATOM     11  N   UNL     1      -3.386  11.953  18.966  0.00  0.00    +0.000 N 
ATOM     12  C   UNL     1      -3.155  12.402  20.328  0.00  0.00    +0.000 C 
ATOM     13  C   UNL     1      -4.032  13.557  20.776  0.00  0.00    +0.000 C 
ATOM     14  C   UNL     1      -5.431  13.128  21.206  0.00  0.00    +0.000 C 
ATOM     15  C   UNL     1      -6.057  12.006  20.378  0.00  0.00    +0.000 C 
ATOM     16  C   UNL     1      -5.933  12.217  18.872  0.00  0.00    +0.000 C 
ENDBRANCH   5   7
BRANCH   1  19
ATOM     17  C   UNL     1       1.831   8.004  19.776  0.00  0.00    +0.000 C 
ATOM     18  O   UNL     1       1.612   8.400  20.919  0.00  0.00    +0.000 OA
ATOM     19  N   UNL     1       1.555   8.718  18.624  0.00  0.00    +0.000 N 
ATOM     20  H   UNL     1       1.695   8.230  17.745  0.00  0.00    +0.000 HD
BRANCH  17  27
ATOM     21  C   UNL     1       3.324   6.232  18.629  0.00  0.00    +0.000 A 
ATOM     22  C   UNL     1       3.797   4.911  18.622  0.00  0.00    +0.000 A 
ATOM     23  C   UNL     1       3.351   3.984  19.569  0.00  0.00    +0.000 A 
ATOM     24  C   UNL     1       2.433   4.368  20.536  0.00  0.00    +0.000 A 
ATOM     25 CL   UNL     1       1.884   3.230  21.701  0.00  0.00    +0.000 Cl
ATOM     26  C   UNL     1       1.963   5.675  20.568  0.00  0.00    +0.000 A 
ATOM     27  C   UNL     1       2.405   6.626  19.624  0.00  0.00    +0.000 A 
BRANCH  21  29
ATOM     28  C   UNL     1       4.792   6.798  16.835  0.00  0.00    +0.000 C 
ATOM     29  O   UNL     1       3.752   7.179  17.732  0.00  0.00    +0.000 OA
ENDBRANCH  21  29
ENDBRANCH  17  27
ENDBRANCH   1  19
TORSDOF 4
ENDMDL
MODEL 6
REMARK VINA RESULT:      -8.0      3.429      8.075
REMARK  Name = 
REMARK  5 active torsions:
REMARK  status: ('A' for Active; 'I' for Inactive)
REMARK    1  A    between atoms: C_1  and  O_2
REMARK    2  A    between atoms: O_2  and  C_3
REMARK    3  A    between atoms: C_9  and  C_10
REMARK    4  A    between atoms: N_12  and  C_13
REMARK    5  A    between atoms: C_17  and  C_18
REMARK                            x       y       z     vdW  Elec       q    Type
REMARK                         _______ _______ _______ _____ _____    ______ ____
ROOT
ATOM      1  C   UNL     1       3.037   5.735  18.883  0.00  0.00    +0.000 A 
ATOM      2  C   UNL     1       2.445   4.610  19.461  0.00  0.00    +0.000 A 
ATOM      3  C   UNL     1       1.448   4.741  20.422  0.00  0.00    +0.000 A 
ATOM      4  C   UNL     1       1.050   6.007  20.833  0.00  0.00    +0.000 A 
ATOM      5  C   UNL     1       1.705   7.153  20.355  0.00  0.00    +0.000 A 
ATOM      6  C   UNL     1       2.680   7.007  19.356  0.00  0.00    +0.000 A 
ENDROOT
BRANCH   5   7
ATOM      7  C   UNL     1       1.399   8.476  20.905  0.00  0.00    +0.000 A 
ATOM      8  N   UNL     1       1.520   8.842  22.166  0.00  0.00    +0.000 NA
ATOM      9  N   UNL     1       1.152  10.161  22.276  0.00  0.00    +0.000 NA
ATOM     10  C   UNL     1       0.780  10.592  21.090  0.00  0.00    +0.000 A 
ATOM     11  N   UNL     1       0.875   9.546  20.201  0.00  0.00    +0.000 N 
ATOM     12  C   UNL     1       0.471   9.543  18.806  0.00  0.00    +0.000 C 
ATOM     13  C   UNL     1      -0.779  10.349  18.502  0.00  0.00    +0.000 C 
ATOM     14  C   UNL     1      -0.521  11.846  18.374  0.00  0.00    +0.000 C 
ATOM     15  C   UNL     1       0.508  12.421  19.348  0.00  0.00    +0.000 C 
ATOM     16  C   UNL     1       0.299  11.972  20.791  0.00  0.00    +0.000 C 
ENDBRANCH   5   7
BRANCH   1  19
ATOM     17  C   UNL     1       4.407   4.493  17.210  0.00  0.00    +0.000 C 
ATOM     18  O   UNL     1       3.977   3.366  17.446  0.00  0.00    +0.000 OA
ATOM     19  N   UNL     1       3.994   5.649  17.850  0.00  0.00    +0.000 N 
ATOM     20  H   UNL     1       4.361   6.523  17.487  0.00  0.00    +0.000 HD
BRANCH  17  27
ATOM     21  C   UNL     1       6.672   5.282  16.245  0.00  0.00    +0.000 A 
ATOM     22  C   UNL     1       7.544   5.307  15.146  0.00  0.00    +0.000 A 
ATOM     23  C   UNL     1       7.184   4.713  13.931  0.00  0.00    +0.000 A 
ATOM     24  C   UNL     1       5.954   4.084  13.805  0.00  0.00    +0.000 A 
ATOM     25 CL   UNL     1       5.510   3.355  12.314  0.00  0.00    +0.000 Cl
ATOM     26  C   UNL     1       5.083   4.037  14.886  0.00  0.00    +0.000 A 
ATOM     27  C   UNL     1       5.430   4.626  16.121  0.00  0.00    +0.000 A 
BRANCH  21  29
ATOM     28  C   UNL     1       7.400   7.198  17.467  0.00  0.00    +0.000 C 
ATOM     29  O   UNL     1       6.995   5.832  17.461  0.00  0.00    +0.000 OA
ENDBRANCH  21  29
ENDBRANCH  17  27
ENDBRANCH   1  19
TORSDOF 4
ENDMDL
MODEL 7
REMARK VINA RESULT:      -8.0      1.400      1.511
REMARK  Name = 
REMARK  5 active torsions:
REMARK  status: ('A' for Active; 'I' for Inactive)
REMARK    1  A    between atoms: C_1  and  O_2
REMARK    2  A    between atoms: O_2  and  C_3
REMARK    3  A    between atoms: C_9  and  C_10
REMARK    4  A    between atoms: N_12  and  C_13
REMARK    5  A    between atoms: C_17  and  C_18
REMARK                            x       y       z     vdW  Elec       q    Type
REMARK                         _______ _______ _______ _____ _____    ______ ____
ROOT
ATOM      1  C   UNL     1       1.986   7.176  19.847  0.00  0.00    +0.000 A 
ATOM      2  C   UNL     1       1.234   6.188  20.486  0.00  0.00    +0.000 A 
ATOM      3  C   UNL     1       1.778   4.935  20.750  0.00  0.00    +0.000 A 
ATOM      4  C   UNL     1       3.078   4.652  20.352  0.00  0.00    +0.000 A 
ATOM      5  C   UNL     1       3.818   5.584  19.608  0.00  0.00    +0.000 A 
ATOM      6  C   UNL     1       3.272   6.858  19.385  0.00  0.00    +0.000 A 
ENDROOT
BRANCH   5   7
ATOM      7  C   UNL     1       5.125   5.230  19.049  0.00  0.00    +0.000 A 
ATOM      8  N   UNL     1       6.234   5.025  19.732  0.00  0.00    +0.000 NA
ATOM      9  N   UNL     1       7.237   4.698  18.852  0.00  0.00    +0.000 NA
ATOM     10  C   UNL     1       6.748   4.730  17.631  0.00  0.00    +0.000 A 
ATOM     11  N   UNL     1       5.427   5.108  17.704  0.00  0.00    +0.000 N 
ATOM     12  C   UNL     1       4.528   5.369  16.594  0.00  0.00    +0.000 C 
ATOM     13  C   UNL     1       5.174   6.033  15.391  0.00  0.00    +0.000 C 
ATOM     14  C   UNL     1       5.927   5.059  14.491  0.00  0.00    +0.000 C 
ATOM     15  C   UNL     1       6.686   3.947  15.215  0.00  0.00    +0.000 C 
ATOM     16  C   UNL     1       7.523   4.444  16.389  0.00  0.00    +0.000 C 
ENDBRANCH   5   7
BRANCH   1  19
ATOM     17  C   UNL     1       0.961   9.326  20.588  0.00  0.00    +0.000 C 
ATOM     18  O   UNL     1       0.844   9.052  21.781  0.00  0.00    +0.000 OA
ATOM     19  N   UNL     1       1.501   8.484  19.632  0.00  0.00    +0.000 N 
ATOM     20  H   UNL     1       1.628   8.875  18.704  0.00  0.00    +0.000 HD
BRANCH  17  27
ATOM     21  C   UNL     1      -0.114  10.985  18.922  0.00  0.00    +0.000 A 
ATOM     22  C   UNL     1      -0.497  12.307  18.652  0.00  0.00    +0.000 A 
ATOM     23  C   UNL     1      -0.238  13.331  19.570  0.00  0.00    +0.000 A 
ATOM     24  C   UNL     1       0.400  13.041  20.768  0.00  0.00    +0.000 A 
ATOM     25 CL   UNL     1       0.719  14.297  21.897  0.00  0.00    +0.000 Cl
ATOM     26  C   UNL     1       0.775  11.736  21.059  0.00  0.00    +0.000 A 
ATOM     27  C   UNL     1       0.518  10.690  20.148  0.00  0.00    +0.000 A 
BRANCH  21  29
ATOM     28  C   UNL     1      -1.615   9.971  17.368  0.00  0.00    +0.000 C 
ATOM     29  O   UNL     1      -0.369   9.948  18.059  0.00  0.00    +0.000 OA
ENDBRANCH  21  29
ENDBRANCH  17  27
ENDBRANCH   1  19
TORSDOF 4
ENDMDL
MODEL 8
REMARK VINA RESULT:      -8.0      1.884      2.346
REMARK  Name = 
REMARK  5 active torsions:
REMARK  status: ('A' for Active; 'I' for Inactive)
REMARK    1  A    between atoms: C_1  and  O_2
REMARK    2  A    between atoms: O_2  and  C_3
REMARK    3  A    between atoms: C_9  and  C_10
REMARK    4  A    between atoms: N_12  and  C_13
REMARK    5  A    between atoms: C_17  and  C_18
REMARK                            x       y       z     vdW  Elec       q    Type
REMARK                         _______ _______ _______ _____ _____    ______ ____
ROOT
ATOM      1  C   UNL     1       1.966   6.680  20.372  0.00  0.00    +0.000 A 
ATOM      2  C   UNL     1       1.153   5.561  20.566  0.00  0.00    +0.000 A 
ATOM      3  C   UNL     1       1.652   4.275  20.386  0.00  0.00    +0.000 A 
ATOM      4  C   UNL     1       2.970   4.099  19.985  0.00  0.00    +0.000 A 
ATOM      5  C   UNL     1       3.777   5.203  19.672  0.00  0.00    +0.000 A 
ATOM      6  C   UNL     1       3.273   6.494  19.898  0.00  0.00    +0.000 A 
ENDROOT
BRANCH   5   7
ATOM      7  C   UNL     1       5.112   5.019  19.096  0.00  0.00    +0.000 A 
ATOM      8  N   UNL     1       6.240   4.899  19.768  0.00  0.00    +0.000 NA
ATOM      9  N   UNL     1       7.267   4.725  18.873  0.00  0.00    +0.000 NA
ATOM     10  C   UNL     1       6.770   4.766  17.655  0.00  0.00    +0.000 A 
ATOM     11  N   UNL     1       5.417   4.997  17.747  0.00  0.00    +0.000 N 
ATOM     12  C   UNL     1       4.490   5.216  16.652  0.00  0.00    +0.000 C 
ATOM     13  C   UNL     1       5.056   6.005  15.484  0.00  0.00    +0.000 C 
ATOM     14  C   UNL     1       5.902   5.163  14.535  0.00  0.00    +0.000 C 
ATOM     15  C   UNL     1       6.779   4.102  15.202  0.00  0.00    +0.000 C 
ATOM     16  C   UNL     1       7.565   4.626  16.401  0.00  0.00    +0.000 C 
ENDBRANCH   5   7
BRANCH   1  19
ATOM     17  C   UNL     1       1.259   8.965  19.668  0.00  0.00    +0.000 C 
ATOM     18  O   UNL     1       1.355   8.803  18.454  0.00  0.00    +0.000 OA
ATOM     19  N   UNL     1       1.524   7.997  20.620  0.00  0.00    +0.000 N 
ATOM     20  H   UNL     1       1.307   8.237  21.582  0.00  0.00    +0.000 HD
BRANCH  17  27
ATOM     21  C   UNL     1       1.127  11.545  19.575  0.00  0.00    +0.000 A 
ATOM     22  C   UNL     1       0.584  12.721  20.115  0.00  0.00    +0.000 A 
ATOM     23  C   UNL     1      -0.271  12.675  21.221  0.00  0.00    +0.000 A 
ATOM     24  C   UNL     1      -0.595  11.454  21.795  0.00  0.00    +0.000 A 
ATOM     25 CL   UNL     1      -1.644  11.396  23.155  0.00  0.00    +0.000 Cl
ATOM     26  C   UNL     1      -0.078  10.278  21.267  0.00  0.00    +0.000 A 
ATOM     27  C   UNL     1       0.781  10.304  20.148  0.00  0.00    +0.000 A 
BRANCH  21  29
ATOM     28  C   UNL     1       2.619  12.764  18.167  0.00  0.00    +0.000 C 
ATOM     29  O   UNL     1       1.951  11.544  18.477  0.00  0.00    +0.000 OA
ENDBRANCH  21  29
ENDBRANCH  17  27
ENDBRANCH   1  19
TORSDOF 4
ENDMDL
MODEL 9
REMARK VINA RESULT:      -7.9      3.487      9.114
REMARK  Name = 
REMARK  5 active torsions:
REMARK  status: ('A' for Active; 'I' for Inactive)
REMARK    1  A    between atoms: C_1  and  O_2
REMARK    2  A    between atoms: O_2  and  C_3
REMARK    3  A    between atoms: C_9  and  C_10
REMARK    4  A    between atoms: N_12  and  C_13
REMARK    5  A    between atoms: C_17  and  C_18
REMARK                            x       y       z     vdW  Elec       q    Type
REMARK                         _______ _______ _______ _____ _____    ______ ____
ROOT
ATOM      1  C   UNL     1       1.746  10.006  18.117  0.00  0.00    +0.000 A 
ATOM      2  C   UNL     1       2.594  11.083  17.848  0.00  0.00    +0.000 A 
ATOM      3  C   UNL     1       2.241  12.378  18.212  0.00  0.00    +0.000 A 
ATOM      4  C   UNL     1       1.018  12.610  18.829  0.00  0.00    +0.000 A 
ATOM      5  C   UNL     1       0.097  11.567  19.008  0.00  0.00    +0.000 A 
ATOM      6  C   UNL     1       0.484  10.259  18.674  0.00  0.00    +0.000 A 
ENDROOT
BRANCH   5   7
ATOM      7  C   UNL     1      -1.253  11.836  19.510  0.00  0.00    +0.000 A 
ATOM      8  N   UNL     1      -1.573  12.166  20.746  0.00  0.00    +0.000 NA
ATOM      9  N   UNL     1      -2.933  12.350  20.812  0.00  0.00    +0.000 NA
ATOM     10  C   UNL     1      -3.445  12.105  19.625  0.00  0.00    +0.000 A 
ATOM     11  N   UNL     1      -2.425  11.730  18.782  0.00  0.00    +0.000 N 
ATOM     12  C   UNL     1      -2.546  11.274  17.409  0.00  0.00    +0.000 C 
ATOM     13  C   UNL     1      -3.771  10.423  17.125  0.00  0.00    +0.000 C 
ATOM     14  C   UNL     1      -5.043  11.237  16.916  0.00  0.00    +0.000 C 
ATOM     15  C   UNL     1      -5.191  12.465  17.815  0.00  0.00    +0.000 C 
ATOM     16  C   UNL     1      -4.895  12.185  19.285  0.00  0.00    +0.000 C 
ENDBRANCH   5   7
BRANCH   1  19
ATOM     17  C   UNL     1       2.311   7.665  18.767  0.00  0.00    +0.000 C 
ATOM     18  O   UNL     1       2.200   7.799  19.984  0.00  0.00    +0.000 OA
ATOM     19  N   UNL     1       2.099   8.668  17.837  0.00  0.00    +0.000 N 
ATOM     20  H   UNL     1       2.128   8.394  16.861  0.00  0.00    +0.000 HD
BRANCH  17  27
ATOM     21  C   UNL     1       3.800   5.993  17.475  0.00  0.00    +0.000 A 
ATOM     22  C   UNL     1       4.019   4.663  17.084  0.00  0.00    +0.000 A 
ATOM     23  C   UNL     1       3.117   3.654  17.437  0.00  0.00    +0.000 A 
ATOM     24  C   UNL     1       1.991   3.962  18.188  0.00  0.00    +0.000 A 
ATOM     25 CL   UNL     1       0.882   2.723  18.621  0.00  0.00    +0.000 Cl
ATOM     26  C   UNL     1       1.764   5.270  18.595  0.00  0.00    +0.000 A 
ATOM     27  C   UNL     1       2.665   6.301  18.254  0.00  0.00    +0.000 A 
BRANCH  21  29
ATOM     28  C   UNL     1       6.063   6.726  17.283  0.00  0.00    +0.000 C 
ATOM     29  O   UNL     1       4.670   7.009  17.170  0.00  0.00    +0.000 OA
ENDBRANCH  21  29
ENDBRANCH  17  27
ENDBRANCH   1  19
TORSDOF 4
ENDMDL
