MODEL 1
REMARK VINA RESULT:      -8.9      0.000      0.000
REMARK  Name = 
REMARK  4 active torsions:
REMARK  status: ('A' for Active; 'I' for Inactive)
REMARK    1  A    between atoms: C_2  and  C_5
REMARK    2  A    between atoms: C_9  and  C_10
REMARK    3  A    between atoms: C_13  and  C_14
REMARK    4  A    between atoms: C_14  and  N_15
REMARK                            x       y       z     vdW  Elec       q    Type
REMARK                         _______ _______ _______ _____ _____    ______ ____
ROOT
ATOM      1  C   UNL     1       8.215   9.079  18.222  0.00  0.00    +0.000 A 
ATOM      2  N   UNL     1       8.780   8.029  18.830  0.00  0.00    +0.000 NA
ATOM      3  O   UNL     1       8.015   6.949  18.396  0.00  0.00    +0.000 OA
ATOM      4  C   UNL     1       7.063   7.465  17.572  0.00  0.00    +0.000 A 
ATOM      5  N   UNL     1       7.091   8.772  17.485  0.00  0.00    +0.000 NA
ENDROOT
BRANCH   1  10
ATOM      6  C   UNL     1      10.192  12.107  19.255  0.00  0.00    +0.000 A 
ATOM      7  C   UNL     1       9.659  13.065  18.381  0.00  0.00    +0.000 A 
ATOM      8  C   UNL     1       8.672  12.716  17.458  0.00  0.00    +0.000 A 
ATOM      9  C   UNL     1       8.210  11.404  17.391  0.00  0.00    +0.000 A 
ATOM     10  C   UNL     1       8.735  10.431  18.246  0.00  0.00    +0.000 A 
ATOM     11  C   UNL     1       9.712  10.792  19.186  0.00  0.00    +0.000 A 
BRANCH   6  13
ATOM     12  F   UNL     1      10.829  12.422  21.547  0.00  0.00    +0.000 F 
ATOM     13  C   UNL     1      11.262  12.459  20.256  0.00  0.00    +0.000 C 
ATOM     14  F   UNL     1      11.757  13.713  20.066  0.00  0.00    +0.000 F 
ATOM     15  F   UNL     1      12.333  11.620  20.199  0.00  0.00    +0.000 F 
ENDBRANCH   6  13
ENDBRANCH   1  10
BRANCH   4  16
ATOM     16  C   UNL     1       6.325   6.508  16.731  0.00  0.00    +0.000 C 
BRANCH  16  17
ATOM     17  N   UNL     1       5.015   6.214  17.257  0.00  0.00    +0.000 NA
ATOM     18  C   UNL     1       3.902   7.152  17.105  0.00  0.00    +0.000 C 
ATOM     19  C   UNL     1       2.856   6.671  18.138  0.00  0.00    +0.000 C 
ATOM     20  C   UNL     1       3.335   5.250  18.407  0.00  0.00    +0.000 C 
ATOM     21  C   UNL     1       4.853   5.494  18.514  0.00  0.00    +0.000 C 
ATOM     22  O   UNL     1       3.077   4.495  17.157  0.00  0.00    +0.000 OA
ATOM     23  C   UNL     1       3.210   3.107  17.458  0.00  0.00    +0.000 C 
ATOM     24  C   UNL     1       2.562   3.081  18.788  0.00  0.00    +0.000 A 
ATOM     25  C   UNL     1       1.880   2.029  19.365  0.00  0.00    +0.000 A 
ATOM     26  C   UNL     1       1.285   2.246  20.600  0.00  0.00    +0.000 A 
ATOM     27  C   UNL     1       1.422   3.489  21.242  0.00  0.00    +0.000 A 
ATOM     28  C   UNL     1       2.120   4.551  20.641  0.00  0.00    +0.000 A 
ATOM     29  C   UNL     1       2.672   4.345  19.390  0.00  0.00    +0.000 A 
ENDBRANCH  16  17
ENDBRANCH   4  16
TORSDOF 4
ENDMDL
MODEL 2
REMARK VINA RESULT:      -8.9      1.886      2.270
REMARK  Name = 
REMARK  4 active torsions:
REMARK  status: ('A' for Active; 'I' for Inactive)
REMARK    1  A    between atoms: C_2  and  C_5
REMARK    2  A    between atoms: C_9  and  C_10
REMARK    3  A    between atoms: C_13  and  C_14
REMARK    4  A    between atoms: C_14  and  N_15
REMARK                            x       y       z     vdW  Elec       q    Type
REMARK                         _______ _______ _______ _____ _____    ______ ____
ROOT
ATOM      1  C   UNL     1       8.580   9.478  18.229  0.00  0.00    +0.000 A 
ATOM      2  N   UNL     1       9.011   8.614  19.155  0.00  0.00    +0.000 NA
ATOM      3  O   UNL     1       8.365   7.426  18.821  0.00  0.00    +0.000 OA
ATOM      4  C   UNL     1       7.606   7.702  17.726  0.00  0.00    +0.000 A 
ATOM      5  N   UNL     1       7.642   8.960  17.361  0.00  0.00    +0.000 NA
ENDROOT
BRANCH   1  10
ATOM      6  C   UNL     1       8.631  13.224  17.896  0.00  0.00    +0.000 A 
ATOM      7  C   UNL     1       9.990  13.433  17.623  0.00  0.00    +0.000 A 
ATOM      8  C   UNL     1      10.878  12.358  17.561  0.00  0.00    +0.000 A 
ATOM      9  C   UNL     1      10.420  11.061  17.778  0.00  0.00    +0.000 A 
ATOM     10  C   UNL     1       9.072  10.831  18.062  0.00  0.00    +0.000 A 
ATOM     11  C   UNL     1       8.180  11.912  18.102  0.00  0.00    +0.000 A 
BRANCH   6  13
ATOM     12  F   UNL     1       7.240  14.643  19.241  0.00  0.00    +0.000 F 
ATOM     13  C   UNL     1       7.654  14.369  17.973  0.00  0.00    +0.000 C 
ATOM     14  F   UNL     1       6.522  14.132  17.256  0.00  0.00    +0.000 F 
ATOM     15  F   UNL     1       8.168  15.533  17.490  0.00  0.00    +0.000 F 
ENDBRANCH   6  13
ENDBRANCH   1  10
BRANCH   4  16
ATOM     16  C   UNL     1       7.073   6.549  16.981  0.00  0.00    +0.000 C 
BRANCH  16  17
ATOM     17  N   UNL     1       5.697   6.271  17.315  0.00  0.00    +0.000 NA
ATOM     18  C   UNL     1       4.612   7.147  16.873  0.00  0.00    +0.000 C 
ATOM     19  C   UNL     1       3.415   6.750  17.768  0.00  0.00    +0.000 C 
ATOM     20  C   UNL     1       3.864   5.386  18.277  0.00  0.00    +0.000 C 
ATOM     21  C   UNL     1       5.339   5.693  18.604  0.00  0.00    +0.000 C 
ATOM     22  O   UNL     1       3.831   4.486  17.099  0.00  0.00    +0.000 OA
ATOM     23  C   UNL     1       3.932   3.146  17.579  0.00  0.00    +0.000 C 
ATOM     24  C   UNL     1       3.071   3.248  18.778  0.00  0.00    +0.000 A 
ATOM     25  C   UNL     1       2.318   2.245  19.353  0.00  0.00    +0.000 A 
ATOM     26  C   UNL     1       1.522   2.580  20.439  0.00  0.00    +0.000 A 
ATOM     27  C   UNL     1       1.529   3.891  20.945  0.00  0.00    +0.000 A 
ATOM     28  C   UNL     1       2.302   4.902  20.347  0.00  0.00    +0.000 A 
ATOM     29  C   UNL     1       3.059   4.575  19.237  0.00  0.00    +0.000 A 
ENDBRANCH  16  17
ENDBRANCH   4  16
TORSDOF 4
ENDMDL
MODEL 3
REMARK VINA RESULT:      -8.8      1.466      1.933
REMARK  Name = 
REMARK  4 active torsions:
REMARK  status: ('A' for Active; 'I' for Inactive)
REMARK    1  A    between atoms: C_2  and  C_5
REMARK    2  A    between atoms: C_9  and  C_10
REMARK    3  A    between atoms: C_13  and  C_14
REMARK    4  A    between atoms: C_14  and  N_15
REMARK                            x       y       z     vdW  Elec       q    Type
REMARK                         _______ _______ _______ _____ _____    ______ ____
ROOT
ATOM      1  C   UNL     1       8.090   8.925  17.974  0.00  0.00    +0.000 A 
ATOM      2  N   UNL     1       7.068   8.552  17.195  0.00  0.00    +0.000 NA
ATOM      3  O   UNL     1       6.937   7.190  17.457  0.00  0.00    +0.000 OA
ATOM      4  C   UNL     1       7.902   6.885  18.368  0.00  0.00    +0.000 A 
ATOM      5  N   UNL     1       8.685   7.892  18.667  0.00  0.00    +0.000 NA
ENDROOT
BRANCH   1  10
ATOM      6  C   UNL     1       9.800  11.934  19.448  0.00  0.00    +0.000 A 
ATOM      7  C   UNL     1       9.298  12.942  18.613  0.00  0.00    +0.000 A 
ATOM      8  C   UNL     1       8.419  12.634  17.573  0.00  0.00    +0.000 A 
ATOM      9  C   UNL     1       8.037  11.314  17.350  0.00  0.00    +0.000 A 
ATOM     10  C   UNL     1       8.533  10.293  18.164  0.00  0.00    +0.000 A 
ATOM     11  C   UNL     1       9.399  10.610  19.220  0.00  0.00    +0.000 A 
BRANCH   6  13
ATOM     12  F   UNL     1      11.135  13.548  20.618  0.00  0.00    +0.000 F 
ATOM     13  C   UNL     1      10.754  12.241  20.573  0.00  0.00    +0.000 C 
ATOM     14  F   UNL     1      11.906  11.521  20.486  0.00  0.00    +0.000 F 
ATOM     15  F   UNL     1      10.229  11.964  21.798  0.00  0.00    +0.000 F 
ENDBRANCH   6  13
ENDBRANCH   1  10
BRANCH   4  16
ATOM     16  C   UNL     1       7.781   5.586  19.052  0.00  0.00    +0.000 C 
BRANCH  16  17
ATOM     17  N   UNL     1       6.551   4.908  18.725  0.00  0.00    +0.000 NA
ATOM     18  C   UNL     1       6.274   4.439  17.367  0.00  0.00    +0.000 C 
ATOM     19  C   UNL     1       4.750   4.178  17.359  0.00  0.00    +0.000 C 
ATOM     20  C   UNL     1       4.453   4.097  18.852  0.00  0.00    +0.000 C 
ATOM     21  C   UNL     1       5.293   5.287  19.357  0.00  0.00    +0.000 C 
ATOM     22  O   UNL     1       5.097   2.847  19.322  0.00  0.00    +0.000 OA
ATOM     23  C   UNL     1       4.588   2.565  20.625  0.00  0.00    +0.000 C 
ATOM     24  C   UNL     1       3.171   2.939  20.420  0.00  0.00    +0.000 A 
ATOM     25  C   UNL     1       2.067   2.411  21.060  0.00  0.00    +0.000 A 
ATOM     26  C   UNL     1       0.816   2.860  20.661  0.00  0.00    +0.000 A 
ATOM     27  C   UNL     1       0.702   3.849  19.668  0.00  0.00    +0.000 A 
ATOM     28  C   UNL     1       1.837   4.376  19.026  0.00  0.00    +0.000 A 
ATOM     29  C   UNL     1       3.079   3.893  19.394  0.00  0.00    +0.000 A 
ENDBRANCH  16  17
ENDBRANCH   4  16
TORSDOF 4
ENDMDL
MODEL 4
REMARK VINA RESULT:      -8.8      1.431      2.000
REMARK  Name = 
REMARK  4 active torsions:
REMARK  status: ('A' for Active; 'I' for Inactive)
REMARK    1  A    between atoms: C_2  and  C_5
REMARK    2  A    between atoms: C_9  and  C_10
REMARK    3  A    between atoms: C_13  and  C_14
REMARK    4  A    between atoms: C_14  and  N_15
REMARK                            x       y       z     vdW  Elec       q    Type
REMARK                         _______ _______ _______ _____ _____    ______ ____
ROOT
ATOM      1  C   UNL     1       8.553   9.173  18.240  0.00  0.00    +0.000 A 
ATOM      2  N   UNL     1       7.799   9.153  17.134  0.00  0.00    +0.000 NA
ATOM      3  O   UNL     1       7.406   7.821  17.031  0.00  0.00    +0.000 OA
ATOM      4  C   UNL     1       7.971   7.175  18.087  0.00  0.00    +0.000 A 
ATOM      5  N   UNL     1       8.743   7.938  18.822  0.00  0.00    +0.000 NA
ENDROOT
BRANCH   1  10
ATOM      6  C   UNL     1      10.159  12.551  18.634  0.00  0.00    +0.000 A 
ATOM      7  C   UNL     1      10.243  12.628  20.031  0.00  0.00    +0.000 A 
ATOM      8  C   UNL     1       9.767  11.588  20.831  0.00  0.00    +0.000 A 
ATOM      9  C   UNL     1       9.195  10.462  20.246  0.00  0.00    +0.000 A 
ATOM     10  C   UNL     1       9.092  10.370  18.856  0.00  0.00    +0.000 A 
ATOM     11  C   UNL     1       9.591  11.408  18.055  0.00  0.00    +0.000 A 
BRANCH   6  13
ATOM     12  F   UNL     1       9.819  14.734  17.695  0.00  0.00    +0.000 F 
ATOM     13  C   UNL     1      10.661  13.664  17.749  0.00  0.00    +0.000 C 
ATOM     14  F   UNL     1      10.832  13.261  16.460  0.00  0.00    +0.000 F 
ATOM     15  F   UNL     1      11.863  14.156  18.153  0.00  0.00    +0.000 F 
ENDBRANCH   6  13
ENDBRANCH   1  10
BRANCH   4  16
ATOM     16  C   UNL     1       7.458   5.829  18.393  0.00  0.00    +0.000 C 
BRANCH  16  17
ATOM     17  N   UNL     1       6.024   5.747  18.265  0.00  0.00    +0.000 NA
ATOM     18  C   UNL     1       5.254   6.803  17.606  0.00  0.00    +0.000 C 
ATOM     19  C   UNL     1       3.796   6.545  18.053  0.00  0.00    +0.000 C 
ATOM     20  C   UNL     1       3.883   5.101  18.532  0.00  0.00    +0.000 C 
ATOM     21  C   UNL     1       5.207   5.159  19.319  0.00  0.00    +0.000 C 
ATOM     22  O   UNL     1       4.107   4.286  17.314  0.00  0.00    +0.000 OA
ATOM     23  C   UNL     1       3.879   2.921  17.663  0.00  0.00    +0.000 C 
ATOM     24  C   UNL     1       2.706   3.086  18.549  0.00  0.00    +0.000 A 
ATOM     25  C   UNL     1       1.687   2.179  18.764  0.00  0.00    +0.000 A 
ATOM     26  C   UNL     1       0.640   2.570  19.586  0.00  0.00    +0.000 A 
ATOM     27  C   UNL     1       0.657   3.834  20.201  0.00  0.00    +0.000 A 
ATOM     28  C   UNL     1       1.702   4.747  19.971  0.00  0.00    +0.000 A 
ATOM     29  C   UNL     1       2.721   4.370  19.116  0.00  0.00    +0.000 A 
ENDBRANCH  16  17
ENDBRANCH   4  16
TORSDOF 4
ENDMDL
MODEL 5
REMARK VINA RESULT:      -8.7      6.348      8.548
REMARK  Name = 
REMARK  4 active torsions:
REMARK  status: ('A' for Active; 'I' for Inactive)
REMARK    1  A    between atoms: C_2  and  C_5
REMARK    2  A    between atoms: C_9  and  C_10
REMARK    3  A    between atoms: C_13  and  C_14
REMARK    4  A    between atoms: C_14  and  N_15
REMARK                            x       y       z     vdW  Elec       q    Type
REMARK                         _______ _______ _______ _____ _____    ______ ____
ROOT
ATOM      1  C   UNL     1       6.589   4.353  13.646  0.00  0.00    +0.000 A 
ATOM      2  N   UNL     1       7.621   5.200  13.556  0.00  0.00    +0.000 NA
ATOM      3  O   UNL     1       7.815   5.621  14.869  0.00  0.00    +0.000 OA
ATOM      4  C   UNL     1       6.872   4.983  15.615  0.00  0.00    +0.000 A 
ATOM      5  N   UNL     1       6.046   4.250  14.909  0.00  0.00    +0.000 NA
ENDROOT
BRANCH   1  10
ATOM      6  C   UNL     1       4.382   3.102  10.869  0.00  0.00    +0.000 A 
ATOM      7  C   UNL     1       5.044   1.911  10.539  0.00  0.00    +0.000 A 
ATOM      8  C   UNL     1       6.206   1.532  11.213  0.00  0.00    +0.000 A 
ATOM      9  C   UNL     1       6.725   2.341  12.220  0.00  0.00    +0.000 A 
ATOM     10  C   UNL     1       6.087   3.538  12.557  0.00  0.00    +0.000 A 
ATOM     11  C   UNL     1       4.908   3.904  11.892  0.00  0.00    +0.000 A 
BRANCH   6  13
ATOM     12  F   UNL     1       2.019   2.849  10.539  0.00  0.00    +0.000 F 
ATOM     13  C   UNL     1       3.129   3.536  10.152  0.00  0.00    +0.000 C 
ATOM     14  F   UNL     1       3.220   3.365   8.804  0.00  0.00    +0.000 F 
ATOM     15  F   UNL     1       2.839   4.851  10.346  0.00  0.00    +0.000 F 
ENDBRANCH   6  13
ENDBRANCH   1  10
BRANCH   4  16
ATOM     16  C   UNL     1       7.055   5.004  17.076  0.00  0.00    +0.000 C 
BRANCH  16  17
ATOM     17  N   UNL     1       5.808   5.162  17.782  0.00  0.00    +0.000 NA
ATOM     18  C   UNL     1       5.399   6.455  18.332  0.00  0.00    +0.000 C 
ATOM     19  C   UNL     1       4.275   6.104  19.333  0.00  0.00    +0.000 C 
ATOM     20  C   UNL     1       3.889   4.705  18.868  0.00  0.00    +0.000 C 
ATOM     21  C   UNL     1       5.290   4.103  18.638  0.00  0.00    +0.000 C 
ATOM     22  O   UNL     1       3.242   4.884  17.546  0.00  0.00    +0.000 OA
ATOM     23  C   UNL     1       2.586   3.659  17.219  0.00  0.00    +0.000 C 
ATOM     24  C   UNL     1       2.048   3.305  18.551  0.00  0.00    +0.000 A 
ATOM     25  C   UNL     1       0.904   2.584  18.824  0.00  0.00    +0.000 A 
ATOM     26  C   UNL     1       0.543   2.428  20.155  0.00  0.00    +0.000 A 
ATOM     27  C   UNL     1       1.352   2.959  21.174  0.00  0.00    +0.000 A 
ATOM     28  C   UNL     1       2.516   3.692  20.879  0.00  0.00    +0.000 A 
ATOM     29  C   UNL     1       2.847   3.884  19.551  0.00  0.00    +0.000 A 
ENDBRANCH  16  17
ENDBRANCH   4  16
TORSDOF 4
ENDMDL
MODEL 6
REMARK VINA RESULT:      -8.6      1.232      1.885
REMARK  Name = 
REMARK  4 active torsions:
REMARK  status: ('A' for Active; 'I' for Inactive)
REMARK    1  A    between atoms: C_2  and  C_5
REMARK    2  A    between atoms: C_9  and  C_10
REMARK    3  A    between atoms: C_13  and  C_14
REMARK    4  A    between atoms: C_14  and  N_15
REMARK                            x       y       z     vdW  Elec       q    Type
REMARK                         _______ _______ _______ _____ _____    ______ ____
ROOT
ATOM      1  C   UNL     1       8.131   8.707  18.083  0.00  0.00    +0.000 A 
ATOM      2  N   UNL     1       8.503   7.711  18.895  0.00  0.00    +0.000 NA
ATOM      3  O   UNL     1       7.999   6.572  18.271  0.00  0.00    +0.000 OA
ATOM      4  C   UNL     1       7.369   7.006  17.145  0.00  0.00    +0.000 A 
ATOM      5  N   UNL     1       7.355   8.310  17.015  0.00  0.00    +0.000 NA
ENDROOT
BRANCH   1  10
ATOM      6  C   UNL     1       9.772  11.806  19.444  0.00  0.00    +0.000 A 
ATOM      7  C   UNL     1       9.229  12.774  18.587  0.00  0.00    +0.000 A 
ATOM      8  C   UNL     1       8.345  12.410  17.570  0.00  0.00    +0.000 A 
ATOM      9  C   UNL     1       7.998  11.074  17.391  0.00  0.00    +0.000 A 
ATOM     10  C   UNL     1       8.536  10.091  18.226  0.00  0.00    +0.000 A 
ATOM     11  C   UNL     1       9.407  10.464  19.261  0.00  0.00    +0.000 A 
BRANCH   6  13
ATOM     12  F   UNL     1      11.031  13.502  20.582  0.00  0.00    +0.000 F 
ATOM     13  C   UNL     1      10.732  12.173  20.546  0.00  0.00    +0.000 C 
ATOM     14  F   UNL     1      11.924  11.527  20.429  0.00  0.00    +0.000 F 
ATOM     15  F   UNL     1      10.256  11.865  21.783  0.00  0.00    +0.000 F 
ENDBRANCH   6  13
ENDBRANCH   1  10
BRANCH   4  16
ATOM     16  C   UNL     1       7.026   5.983  16.142  0.00  0.00    +0.000 C 
BRANCH  16  17
ATOM     17  N   UNL     1       6.043   5.047  16.630  0.00  0.00    +0.000 NA
ATOM     18  C   UNL     1       5.892   3.718  16.035  0.00  0.00    +0.000 C 
ATOM     19  C   UNL     1       4.512   3.233  16.536  0.00  0.00    +0.000 C 
ATOM     20  C   UNL     1       4.279   4.166  17.719  0.00  0.00    +0.000 C 
ATOM     21  C   UNL     1       4.741   5.501  17.102  0.00  0.00    +0.000 C 
ATOM     22  O   UNL     1       5.270   3.767  18.747  0.00  0.00    +0.000 OA
ATOM     23  C   UNL     1       4.890   4.386  19.975  0.00  0.00    +0.000 C 
ATOM     24  C   UNL     1       3.422   4.220  19.889  0.00  0.00    +0.000 A 
ATOM     25  C   UNL     1       2.534   4.089  20.937  0.00  0.00    +0.000 A 
ATOM     26  C   UNL     1       1.199   3.870  20.627  0.00  0.00    +0.000 A 
ATOM     27  C   UNL     1       0.782   3.829  19.285  0.00  0.00    +0.000 A 
ATOM     28  C   UNL     1       1.700   3.963  18.228  0.00  0.00    +0.000 A 
ATOM     29  C   UNL     1       3.035   4.136  18.542  0.00  0.00    +0.000 A 
ENDBRANCH  16  17
ENDBRANCH   4  16
TORSDOF 4
ENDMDL
MODEL 7
REMARK VINA RESULT:      -8.6      7.381      9.747
REMARK  Name = 
REMARK  4 active torsions:
REMARK  status: ('A' for Active; 'I' for Inactive)
REMARK    1  A    between atoms: C_2  and  C_5
REMARK    2  A    between atoms: C_9  and  C_10
REMARK    3  A    between atoms: C_13  and  C_14
REMARK    4  A    between atoms: C_14  and  N_15
REMARK                            x       y       z     vdW  Elec       q    Type
REMARK                         _______ _______ _______ _____ _____    ______ ____
ROOT
ATOM      1  C   UNL     1       2.298   7.781  18.260  0.00  0.00    +0.000 A 
ATOM      2  N   UNL     1       2.193   8.767  17.362  0.00  0.00    +0.000 NA
ATOM      3  O   UNL     1       1.595   9.801  18.079  0.00  0.00    +0.000 OA
ATOM      4  C   UNL     1       1.398   9.324  19.338  0.00  0.00    +0.000 A 
ATOM      5  N   UNL     1       1.743   8.069  19.489  0.00  0.00    +0.000 NA
ENDROOT
BRANCH   1  10
ATOM      6  C   UNL     1       2.972   4.086  18.070  0.00  0.00    +0.000 A 
ATOM      7  C   UNL     1       4.332   4.096  17.728  0.00  0.00    +0.000 A 
ATOM      8  C   UNL     1       5.013   5.301  17.552  0.00  0.00    +0.000 A 
ATOM      9  C   UNL     1       4.343   6.511  17.708  0.00  0.00    +0.000 A 
ATOM     10  C   UNL     1       2.985   6.524  18.038  0.00  0.00    +0.000 A 
ATOM     11  C   UNL     1       2.310   5.310  18.235  0.00  0.00    +0.000 A 
BRANCH   6  13
ATOM     12  F   UNL     1       0.863   2.949  18.189  0.00  0.00    +0.000 F 
ATOM     13  C   UNL     1       2.214   2.797  18.260  0.00  0.00    +0.000 C 
ATOM     14  F   UNL     1       2.461   2.226  19.471  0.00  0.00    +0.000 F 
ATOM     15  F   UNL     1       2.532   1.856  17.328  0.00  0.00    +0.000 F 
ENDBRANCH   6  13
ENDBRANCH   1  10
BRANCH   4  16
ATOM     16  C   UNL     1       1.075  10.315  20.379  0.00  0.00    +0.000 C 
BRANCH  16  17
ATOM     17  N   UNL     1       0.021  11.211  19.973  0.00  0.00    +0.000 NA
ATOM     18  C   UNL     1       0.129  12.657  20.170  0.00  0.00    +0.000 C 
ATOM     19  C   UNL     1      -1.320  13.172  20.008  0.00  0.00    +0.000 C 
ATOM     20  C   UNL     1      -1.972  12.001  19.283  0.00  0.00    +0.000 C 
ATOM     21  C   UNL     1      -1.380  10.825  20.086  0.00  0.00    +0.000 C 
ATOM     22  O   UNL     1      -1.372  11.982  17.928  0.00  0.00    +0.000 OA
ATOM     23  C   UNL     1      -2.168  11.117  17.118  0.00  0.00    +0.000 C 
ATOM     24  C   UNL     1      -3.514  11.493  17.606  0.00  0.00    +0.000 A 
ATOM     25  C   UNL     1      -4.698  11.460  16.898  0.00  0.00    +0.000 A 
ATOM     26  C   UNL     1      -5.840  11.927  17.532  0.00  0.00    +0.000 A 
ATOM     27  C   UNL     1      -5.778  12.374  18.863  0.00  0.00    +0.000 A 
ATOM     28  C   UNL     1      -4.563  12.402  19.571  0.00  0.00    +0.000 A 
ATOM     29  C   UNL     1      -3.419  11.978  18.920  0.00  0.00    +0.000 A 
ENDBRANCH  16  17
ENDBRANCH   4  16
TORSDOF 4
ENDMDL
MODEL 8
REMARK VINA RESULT:      -8.4      6.255      8.606
REMARK  Name = 
REMARK  4 active torsions:
REMARK  status: ('A' for Active; 'I' for Inactive)
REMARK    1  A    between atoms: C_2  and  C_5
REMARK    2  A    between atoms: C_9  and  C_10
REMARK    3  A    between atoms: C_13  and  C_14
REMARK    4  A    between atoms: C_14  and  N_15
REMARK                            x       y       z     vdW  Elec       q    Type
REMARK                         _______ _______ _______ _____ _____    ______ ____
ROOT
ATOM      1  C   UNL     1       2.589   7.480  18.225  0.00  0.00    +0.000 A 
ATOM      2  N   UNL     1       2.378   8.466  17.345  0.00  0.00    +0.000 NA
ATOM      3  O   UNL     1       1.683   9.421  18.083  0.00  0.00    +0.000 OA
ATOM      4  C   UNL     1       1.545   8.906  19.335  0.00  0.00    +0.000 A 
ATOM      5  N   UNL     1       2.017   7.689  19.462  0.00  0.00    +0.000 NA
ENDROOT
BRANCH   1  10
ATOM      6  C   UNL     1       5.578   5.309  17.517  0.00  0.00    +0.000 A 
ATOM      7  C   UNL     1       4.954   4.062  17.377  0.00  0.00    +0.000 A 
ATOM      8  C   UNL     1       3.572   3.935  17.525  0.00  0.00    +0.000 A 
ATOM      9  C   UNL     1       2.797   5.053  17.822  0.00  0.00    +0.000 A 
ATOM     10  C   UNL     1       3.399   6.304  17.976  0.00  0.00    +0.000 A 
ATOM     11  C   UNL     1       4.785   6.430  17.805  0.00  0.00    +0.000 A 
BRANCH   6  13
ATOM     12  F   UNL     1       7.617   6.316  18.282  0.00  0.00    +0.000 F 
ATOM     13  C   UNL     1       7.069   5.470  17.366  0.00  0.00    +0.000 C 
ATOM     14  F   UNL     1       7.415   5.966  16.147  0.00  0.00    +0.000 F 
ATOM     15  F   UNL     1       7.741   4.293  17.499  0.00  0.00    +0.000 F 
ENDBRANCH   6  13
ENDBRANCH   1  10
BRANCH   4  16
ATOM     16  C   UNL     1       1.131   9.840  20.395  0.00  0.00    +0.000 C 
BRANCH  16  17
ATOM     17  N   UNL     1       0.160  10.800  19.930  0.00  0.00    +0.000 NA
ATOM     18  C   UNL     1       0.412  12.239  20.004  0.00  0.00    +0.000 C 
ATOM     19  C   UNL     1      -0.984  12.879  19.819  0.00  0.00    +0.000 C 
ATOM     20  C   UNL     1      -1.763  11.722  19.205  0.00  0.00    +0.000 C 
ATOM     21  C   UNL     1      -1.269  10.564  20.095  0.00  0.00    +0.000 C 
ATOM     22  O   UNL     1      -1.198  11.533  17.848  0.00  0.00    +0.000 OA
ATOM     23  C   UNL     1      -2.091  10.687  17.124  0.00  0.00    +0.000 C 
ATOM     24  C   UNL     1      -3.383  11.232  17.599  0.00  0.00    +0.000 A 
ATOM     25  C   UNL     1      -4.581  11.258  16.913  0.00  0.00    +0.000 A 
ATOM     26  C   UNL     1      -5.658  11.886  17.522  0.00  0.00    +0.000 A 
ATOM     27  C   UNL     1      -5.523  12.433  18.810  0.00  0.00    +0.000 A 
ATOM     28  C   UNL     1      -4.295  12.398  19.495  0.00  0.00    +0.000 A 
ATOM     29  C   UNL     1      -3.213  11.812  18.866  0.00  0.00    +0.000 A 
ENDBRANCH  16  17
ENDBRANCH   4  16
TORSDOF 4
ENDMDL
MODEL 9
REMARK VINA RESULT:      -8.4      6.200      8.276
REMARK  Name = 
REMARK  4 active torsions:
REMARK  status: ('A' for Active; 'I' for Inactive)
REMARK    1  A    between atoms: C_2  and  C_5
REMARK    2  A    between atoms: C_9  and  C_10
REMARK    3  A    between atoms: C_13  and  C_14
REMARK    4  A    between atoms: C_14  and  N_15
REMARK                            x       y       z     vdW  Elec       q    Type
REMARK                         _______ _______ _______ _____ _____    ______ ____
ROOT
ATOM      1  C   UNL     1       6.250   4.301  14.409  0.00  0.00    +0.000 A 
ATOM      2  N   UNL     1       6.611   3.667  15.531  0.00  0.00    +0.000 NA
ATOM      3  O   UNL     1       6.538   4.660  16.505  0.00  0.00    +0.000 OA
ATOM      4  C   UNL     1       6.144   5.793  15.863  0.00  0.00    +0.000 A 
ATOM      5  N   UNL     1       6.022   5.651  14.566  0.00  0.00    +0.000 NA
ENDROOT
BRANCH   1  10
ATOM      6  C   UNL     1       4.571   3.171  11.238  0.00  0.00    +0.000 A 
ATOM      7  C   UNL     1       5.566   2.336  10.711  0.00  0.00    +0.000 A 
ATOM      8  C   UNL     1       6.776   2.156  11.384  0.00  0.00    +0.000 A 
ATOM      9  C   UNL     1       7.009   2.815  12.588  0.00  0.00    +0.000 A 
ATOM     10  C   UNL     1       6.036   3.661  13.126  0.00  0.00    +0.000 A 
ATOM     11  C   UNL     1       4.813   3.821  12.457  0.00  0.00    +0.000 A 
BRANCH   6  13
ATOM     12  F   UNL     1       2.198   2.825  11.170  0.00  0.00    +0.000 F 
ATOM     13  C   UNL     1       3.259   3.385  10.527  0.00  0.00    +0.000 C 
ATOM     14  F   UNL     1       3.258   2.853   9.274  0.00  0.00    +0.000 F 
ATOM     15  F   UNL     1       2.951   4.702  10.377  0.00  0.00    +0.000 F 
ENDBRANCH   6  13
ENDBRANCH   1  10
BRANCH   4  16
ATOM     16  C   UNL     1       5.683   6.908  16.708  0.00  0.00    +0.000 C 
BRANCH  16  17
ATOM     17  N   UNL     1       4.494   6.574  17.453  0.00  0.00    +0.000 NA
ATOM     18  C   UNL     1       3.423   7.550  17.659  0.00  0.00    +0.000 C 
ATOM     19  C   UNL     1       2.586   6.956  18.816  0.00  0.00    +0.000 C 
ATOM     20  C   UNL     1       3.036   5.500  18.792  0.00  0.00    +0.000 C 
ATOM     21  C   UNL     1       4.555   5.693  18.612  0.00  0.00    +0.000 C 
ATOM     22  O   UNL     1       2.491   4.931  17.537  0.00  0.00    +0.000 OA
ATOM     23  C   UNL     1       2.611   3.512  17.621  0.00  0.00    +0.000 C 
ATOM     24  C   UNL     1       2.247   3.318  19.042  0.00  0.00    +0.000 A 
ATOM     25  C   UNL     1       1.643   2.213  19.606  0.00  0.00    +0.000 A 
ATOM     26  C   UNL     1       1.324   2.272  20.955  0.00  0.00    +0.000 A 
ATOM     27  C   UNL     1       1.651   3.411  21.711  0.00  0.00    +0.000 A 
ATOM     28  C   UNL     1       2.266   4.530  21.121  0.00  0.00    +0.000 A 
ATOM     29  C   UNL     1       2.541   4.484  19.766  0.00  0.00    +0.000 A 
ENDBRANCH  16  17
ENDBRANCH   4  16
TORSDOF 4
ENDMDL
