MODEL 1
REMARK VINA RESULT:      -8.9      0.000      0.000
REMARK  Name = 
REMARK  4 active torsions:
REMARK  status: ('A' for Active; 'I' for Inactive)
REMARK    1  A    between atoms: C_1  and  C_2
REMARK    2  A    between atoms: C_4  and  C_5
REMARK    3  A    between atoms: N_7  and  C_8
REMARK    4  A    between atoms: N_18  and  C_19
REMARK                            x       y       z     vdW  Elec       q    Type
REMARK                         _______ _______ _______ _____ _____    ______ ____
ROOT
ATOM      1  C   UNL     1       5.459   4.425  14.716  0.00  0.00    +0.000 C 
ATOM      2  C   UNL     1       5.866   5.094  15.979  0.00  0.00    +0.000 A 
ATOM      3  C   UNL     1       6.952   5.917  16.179  0.00  0.00    +0.000 A 
ATOM      4  C   UNL     1       6.825   6.422  17.488  0.00  0.00    +0.000 A 
ATOM      5  N   UNL     1       5.724   5.940  18.088  0.00  0.00    +0.000 NA
ATOM      6  N   UNL     1       5.155   5.099  17.175  0.00  0.00    +0.000 N 
ENDROOT
BRANCH   6   7
ATOM      7  C   UNL     1       4.004   4.343  17.527  0.00  0.00    +0.000 A 
ATOM      8  C   UNL     1       4.067   2.945  17.647  0.00  0.00    +0.000 A 
ATOM      9  C   UNL     1       2.924   2.214  17.980  0.00  0.00    +0.000 A 
ATOM     10  C   UNL     1       1.725   2.878  18.199  0.00  0.00    +0.000 A 
ATOM     11  F   UNL     1       0.630   2.170  18.505  0.00  0.00    +0.000 F 
ATOM     12  C   UNL     1       1.645   4.259  18.106  0.00  0.00    +0.000 A 
ATOM     13  C   UNL     1       2.788   4.989  17.782  0.00  0.00    +0.000 A 
ATOM     14  F   UNL     1       2.655   6.317  17.655  0.00  0.00    +0.000 F 
ENDBRANCH   6   7
BRANCH   4  15
ATOM     15  C   UNL     1       7.760   7.361  18.132  0.00  0.00    +0.000 C 
ATOM     16  O   UNL     1       8.510   6.968  19.021  0.00  0.00    +0.000 OA
ATOM     17  N   UNL     1       7.653   8.664  17.675  0.00  0.00    +0.000 N 
ATOM     18  H   UNL     1       6.898   8.814  17.009  0.00  0.00    +0.000 HD
BRANCH  17  19
ATOM     19  C   UNL     1       8.380   9.778  18.146  0.00  0.00    +0.000 A 
ATOM     20  C   UNL     1       9.269   9.700  19.239  0.00  0.00    +0.000 A 
ATOM     21  C   UNL     1       9.928  10.833  19.730  0.00  0.00    +0.000 A 
ATOM     22  C   UNL     1       9.673  12.033  19.112  0.00  0.00    +0.000 A 
ATOM     23  C   UNL     1       8.833  12.120  18.028  0.00  0.00    +0.000 A 
ATOM     24  C   UNL     1       8.190  11.012  17.507  0.00  0.00    +0.000 A 
ATOM     25  O   UNL     1       8.713  13.400  17.577  0.00  0.00    +0.000 OA
ATOM     26  C   UNL     1       9.506  14.108  18.555  0.00  0.00    +0.000 C 
ATOM     27  O   UNL     1      10.187  13.236  19.479  0.00  0.00    +0.000 OA
ENDBRANCH  17  19
ENDBRANCH   4  15
TORSDOF 3
ENDMDL
MODEL 2
REMARK VINA RESULT:      -8.5      0.667      1.416
REMARK  Name = 
REMARK  4 active torsions:
REMARK  status: ('A' for Active; 'I' for Inactive)
REMARK    1  A    between atoms: C_1  and  C_2
REMARK    2  A    between atoms: C_4  and  C_5
REMARK    3  A    between atoms: N_7  and  C_8
REMARK    4  A    between atoms: N_18  and  C_19
REMARK                            x       y       z     vdW  Elec       q    Type
REMARK                         _______ _______ _______ _____ _____    ______ ____
ROOT
ATOM      1  C   UNL     1       5.512   4.356  14.696  0.00  0.00    +0.000 C 
ATOM      2  C   UNL     1       5.884   5.094  15.931  0.00  0.00    +0.000 A 
ATOM      3  C   UNL     1       6.955   5.940  16.111  0.00  0.00    +0.000 A 
ATOM      4  C   UNL     1       6.794   6.510  17.390  0.00  0.00    +0.000 A 
ATOM      5  N   UNL     1       5.686   6.045  17.990  0.00  0.00    +0.000 NA
ATOM      6  N   UNL     1       5.147   5.151  17.110  0.00  0.00    +0.000 N 
ENDROOT
BRANCH   6   7
ATOM      7  C   UNL     1       3.997   4.400  17.476  0.00  0.00    +0.000 A 
ATOM      8  C   UNL     1       4.046   2.999  17.558  0.00  0.00    +0.000 A 
ATOM      9  C   UNL     1       2.905   2.273  17.906  0.00  0.00    +0.000 A 
ATOM     10  C   UNL     1       1.720   2.945  18.176  0.00  0.00    +0.000 A 
ATOM     11  F   UNL     1       0.626   2.243  18.496  0.00  0.00    +0.000 F 
ATOM     12  C   UNL     1       1.655   4.329  18.120  0.00  0.00    +0.000 A 
ATOM     13  C   UNL     1       2.796   5.054  17.781  0.00  0.00    +0.000 A 
ATOM     14  F   UNL     1       2.676   6.386  17.692  0.00  0.00    +0.000 F 
ENDBRANCH   6   7
BRANCH   4  15
ATOM     15  C   UNL     1       7.704   7.492  18.004  0.00  0.00    +0.000 C 
ATOM     16  O   UNL     1       8.482   7.142  18.886  0.00  0.00    +0.000 OA
ATOM     17  N   UNL     1       7.542   8.784  17.529  0.00  0.00    +0.000 N 
ATOM     18  H   UNL     1       6.771   8.895  16.874  0.00  0.00    +0.000 HD
BRANCH  17  19
ATOM     19  C   UNL     1       8.234   9.931  17.971  0.00  0.00    +0.000 A 
ATOM     20  C   UNL     1       8.087  11.193  17.356  0.00  0.00    +0.000 A 
ATOM     21  C   UNL     1       8.835  12.301  17.771  0.00  0.00    +0.000 A 
ATOM     22  C   UNL     1       9.728  12.116  18.798  0.00  0.00    +0.000 A 
ATOM     23  C   UNL     1       9.861  10.901  19.426  0.00  0.00    +0.000 A 
ATOM     24  C   UNL     1       9.116   9.797  19.053  0.00  0.00    +0.000 A 
ATOM     25  O   UNL     1      10.806  10.935  20.407  0.00  0.00    +0.000 OA
ATOM     26  C   UNL     1      11.303  12.283  20.259  0.00  0.00    +0.000 C 
ATOM     27  O   UNL     1      10.564  13.063  19.299  0.00  0.00    +0.000 OA
ENDBRANCH  17  19
ENDBRANCH   4  15
TORSDOF 3
ENDMDL
MODEL 3
REMARK VINA RESULT:      -8.4      5.818      8.755
REMARK  Name = 
REMARK  4 active torsions:
REMARK  status: ('A' for Active; 'I' for Inactive)
REMARK    1  A    between atoms: C_1  and  C_2
REMARK    2  A    between atoms: C_4  and  C_5
REMARK    3  A    between atoms: N_7  and  C_8
REMARK    4  A    between atoms: N_18  and  C_19
REMARK                            x       y       z     vdW  Elec       q    Type
REMARK                         _______ _______ _______ _____ _____    ______ ____
ROOT
ATOM      1  C   UNL     1      -0.380  10.312  22.487  0.00  0.00    +0.000 C 
ATOM      2  C   UNL     1       0.446   9.707  21.410  0.00  0.00    +0.000 A 
ATOM      3  C   UNL     1       1.016   8.453  21.396  0.00  0.00    +0.000 A 
ATOM      4  C   UNL     1       1.564   8.287  20.108  0.00  0.00    +0.000 A 
ATOM      5  N   UNL     1       1.360   9.378  19.351  0.00  0.00    +0.000 NA
ATOM      6  N   UNL     1       0.705  10.261  20.160  0.00  0.00    +0.000 N 
ENDROOT
BRANCH   6   7
ATOM      7  C   UNL     1       0.412  11.570  19.691  0.00  0.00    +0.000 A 
ATOM      8  C   UNL     1      -0.666  11.801  18.820  0.00  0.00    +0.000 A 
ATOM      9  C   UNL     1      -0.933  13.091  18.356  0.00  0.00    +0.000 A 
ATOM     10  C   UNL     1      -0.130  14.147  18.765  0.00  0.00    +0.000 A 
ATOM     11  F   UNL     1      -0.384  15.380  18.307  0.00  0.00    +0.000 F 
ATOM     12  C   UNL     1       0.926  13.945  19.640  0.00  0.00    +0.000 A 
ATOM     13  C   UNL     1       1.188  12.659  20.109  0.00  0.00    +0.000 A 
ATOM     14  F   UNL     1       2.248  12.501  20.914  0.00  0.00    +0.000 F 
ENDBRANCH   6   7
BRANCH   4  15
ATOM     15  C   UNL     1       2.266   7.083  19.632  0.00  0.00    +0.000 C 
ATOM     16  O   UNL     1       2.424   6.125  20.383  0.00  0.00    +0.000 OA
ATOM     17  N   UNL     1       2.740   7.185  18.334  0.00  0.00    +0.000 N 
ATOM     18  H   UNL     1       2.603   8.099  17.908  0.00  0.00    +0.000 HD
BRANCH  17  19
ATOM     19  C   UNL     1       3.493   6.213  17.639  0.00  0.00    +0.000 A 
ATOM     20  C   UNL     1       3.171   4.839  17.666  0.00  0.00    +0.000 A 
ATOM     21  C   UNL     1       3.971   3.887  17.024  0.00  0.00    +0.000 A 
ATOM     22  C   UNL     1       5.091   4.337  16.369  0.00  0.00    +0.000 A 
ATOM     23  C   UNL     1       5.402   5.675  16.309  0.00  0.00    +0.000 A 
ATOM     24  C   UNL     1       4.614   6.638  16.913  0.00  0.00    +0.000 A 
ATOM     25  O   UNL     1       6.556   5.900  15.622  0.00  0.00    +0.000 OA
ATOM     26  C   UNL     1       6.971   4.547  15.334  0.00  0.00    +0.000 C 
ATOM     27  O   UNL     1       6.002   3.556  15.730  0.00  0.00    +0.000 OA
ENDBRANCH  17  19
ENDBRANCH   4  15
TORSDOF 3
ENDMDL
MODEL 4
REMARK VINA RESULT:      -8.3      5.831      8.781
REMARK  Name = 
REMARK  4 active torsions:
REMARK  status: ('A' for Active; 'I' for Inactive)
REMARK    1  A    between atoms: C_1  and  C_2
REMARK    2  A    between atoms: C_4  and  C_5
REMARK    3  A    between atoms: N_7  and  C_8
REMARK    4  A    between atoms: N_18  and  C_19
REMARK                            x       y       z     vdW  Elec       q    Type
REMARK                         _______ _______ _______ _____ _____    ______ ____
ROOT
ATOM      1  C   UNL     1      -0.442  10.265  22.613  0.00  0.00    +0.000 C 
ATOM      2  C   UNL     1       0.382   9.674  21.527  0.00  0.00    +0.000 A 
ATOM      3  C   UNL     1       0.883   8.393  21.459  0.00  0.00    +0.000 A 
ATOM      4  C   UNL     1       1.460   8.265  20.179  0.00  0.00    +0.000 A 
ATOM      5  N   UNL     1       1.338   9.405  19.479  0.00  0.00    +0.000 NA
ATOM      6  N   UNL     1       0.708  10.279  20.317  0.00  0.00    +0.000 N 
ENDROOT
BRANCH   6   7
ATOM      7  C   UNL     1       0.501  11.626  19.913  0.00  0.00    +0.000 A 
ATOM      8  C   UNL     1       1.462  12.615  20.178  0.00  0.00    +0.000 A 
ATOM      9  C   UNL     1       1.238  13.937  19.787  0.00  0.00    +0.000 A 
ATOM     10  C   UNL     1       0.060  14.269  19.130  0.00  0.00    +0.000 A 
ATOM     11  F   UNL     1      -0.154  15.540  18.769  0.00  0.00    +0.000 F 
ATOM     12  C   UNL     1      -0.893  13.304  18.841  0.00  0.00    +0.000 A 
ATOM     13  C   UNL     1      -0.665  11.983  19.224  0.00  0.00    +0.000 A 
ATOM     14  F   UNL     1      -1.634  11.092  18.969  0.00  0.00    +0.000 F 
ENDBRANCH   6   7
BRANCH   4  15
ATOM     15  C   UNL     1       2.110   7.051  19.657  0.00  0.00    +0.000 C 
ATOM     16  O   UNL     1       2.099   6.016  20.315  0.00  0.00    +0.000 OA
ATOM     17  N   UNL     1       2.739   7.232  18.435  0.00  0.00    +0.000 N 
ATOM     18  H   UNL     1       2.729   8.192  18.097  0.00  0.00    +0.000 HD
BRANCH  17  19
ATOM     19  C   UNL     1       3.483   6.264  17.727  0.00  0.00    +0.000 A 
ATOM     20  C   UNL     1       3.145   4.894  17.726  0.00  0.00    +0.000 A 
ATOM     21  C   UNL     1       3.937   3.945  17.070  0.00  0.00    +0.000 A 
ATOM     22  C   UNL     1       5.066   4.393  16.429  0.00  0.00    +0.000 A 
ATOM     23  C   UNL     1       5.393   5.728  16.396  0.00  0.00    +0.000 A 
ATOM     24  C   UNL     1       4.613   6.689  17.014  0.00  0.00    +0.000 A 
ATOM     25  O   UNL     1       6.553   5.952  15.719  0.00  0.00    +0.000 OA
ATOM     26  C   UNL     1       6.953   4.599  15.409  0.00  0.00    +0.000 C 
ATOM     27  O   UNL     1       5.971   3.613  15.781  0.00  0.00    +0.000 OA
ENDBRANCH  17  19
ENDBRANCH   4  15
TORSDOF 3
ENDMDL
MODEL 5
REMARK VINA RESULT:      -8.2      5.519      7.318
REMARK  Name = 
REMARK  4 active torsions:
REMARK  status: ('A' for Active; 'I' for Inactive)
REMARK    1  A    between atoms: C_1  and  C_2
REMARK    2  A    between atoms: C_4  and  C_5
REMARK    3  A    between atoms: N_7  and  C_8
REMARK    4  A    between atoms: N_18  and  C_19
REMARK                            x       y       z     vdW  Elec       q    Type
REMARK                         _______ _______ _______ _____ _____    ______ ____
ROOT
ATOM      1  C   UNL     1       4.533   2.860  19.719  0.00  0.00    +0.000 C 
ATOM      2  C   UNL     1       3.825   4.156  19.552  0.00  0.00    +0.000 A 
ATOM      3  C   UNL     1       2.817   4.666  20.339  0.00  0.00    +0.000 A 
ATOM      4  C   UNL     1       2.584   5.977  19.876  0.00  0.00    +0.000 A 
ATOM      5  N   UNL     1       3.393   6.277  18.847  0.00  0.00    +0.000 NA
ATOM      6  N   UNL     1       4.130   5.149  18.626  0.00  0.00    +0.000 N 
ENDROOT
BRANCH   6   7
ATOM      7  C   UNL     1       5.036   5.095  17.533  0.00  0.00    +0.000 A 
ATOM      8  C   UNL     1       6.247   5.807  17.563  0.00  0.00    +0.000 A 
ATOM      9  C   UNL     1       7.121   5.757  16.475  0.00  0.00    +0.000 A 
ATOM     10  C   UNL     1       6.790   4.993  15.364  0.00  0.00    +0.000 A 
ATOM     11  F   UNL     1       7.627   4.959  14.319  0.00  0.00    +0.000 F 
ATOM     12  C   UNL     1       5.610   4.267  15.321  0.00  0.00    +0.000 A 
ATOM     13  C   UNL     1       4.741   4.311  16.411  0.00  0.00    +0.000 A 
ATOM     14  F   UNL     1       3.589   3.633  16.308  0.00  0.00    +0.000 F 
ENDBRANCH   6   7
BRANCH   4  15
ATOM     15  C   UNL     1       1.593   6.913  20.435  0.00  0.00    +0.000 C 
ATOM     16  O   UNL     1       0.747   6.511  21.229  0.00  0.00    +0.000 OA
ATOM     17  N   UNL     1       1.697   8.203  19.941  0.00  0.00    +0.000 N 
ATOM     18  H   UNL     1       2.395   8.316  19.209  0.00  0.00    +0.000 HD
BRANCH  17  19
ATOM     19  C   UNL     1       0.852   9.289  20.254  0.00  0.00    +0.000 A 
ATOM     20  C   UNL     1       0.257  10.101  19.264  0.00  0.00    +0.000 A 
ATOM     21  C   UNL     1      -0.523  11.213  19.601  0.00  0.00    +0.000 A 
ATOM     22  C   UNL     1      -0.685  11.494  20.935  0.00  0.00    +0.000 A 
ATOM     23  C   UNL     1      -0.137  10.696  21.911  0.00  0.00    +0.000 A 
ATOM     24  C   UNL     1       0.616   9.577  21.606  0.00  0.00    +0.000 A 
ATOM     25  O   UNL     1      -0.410  11.160  23.162  0.00  0.00    +0.000 OA
ATOM     26  C   UNL     1      -1.118  12.380  22.851  0.00  0.00    +0.000 C 
ATOM     27  O   UNL     1      -1.370  12.552  21.443  0.00  0.00    +0.000 OA
ENDBRANCH  17  19
ENDBRANCH   4  15
TORSDOF 3
ENDMDL
MODEL 6
REMARK VINA RESULT:      -8.2      6.322      8.939
REMARK  Name = 
REMARK  4 active torsions:
REMARK  status: ('A' for Active; 'I' for Inactive)
REMARK    1  A    between atoms: C_1  and  C_2
REMARK    2  A    between atoms: C_4  and  C_5
REMARK    3  A    between atoms: N_7  and  C_8
REMARK    4  A    between atoms: N_18  and  C_19
REMARK                            x       y       z     vdW  Elec       q    Type
REMARK                         _______ _______ _______ _____ _____    ______ ____
ROOT
ATOM      1  C   UNL     1      -0.202   9.213  22.703  0.00  0.00    +0.000 C 
ATOM      2  C   UNL     1       0.431   9.339  21.365  0.00  0.00    +0.000 A 
ATOM      3  C   UNL     1       1.201   8.403  20.711  0.00  0.00    +0.000 A 
ATOM      4  C   UNL     1       1.436   8.921  19.421  0.00  0.00    +0.000 A 
ATOM      5  N   UNL     1       0.855  10.122  19.269  0.00  0.00    +0.000 NA
ATOM      6  N   UNL     1       0.268  10.394  20.471  0.00  0.00    +0.000 N 
ENDROOT
BRANCH   6   7
ATOM      7  C   UNL     1      -0.369  11.647  20.683  0.00  0.00    +0.000 A 
ATOM      8  C   UNL     1       0.189  12.603  21.549  0.00  0.00    +0.000 A 
ATOM      9  C   UNL     1      -0.456  13.824  21.758  0.00  0.00    +0.000 A 
ATOM     10  C   UNL     1      -1.649  14.092  21.101  0.00  0.00    +0.000 A 
ATOM     11  F   UNL     1      -2.268  15.260  21.316  0.00  0.00    +0.000 F 
ATOM     12  C   UNL     1      -2.206  13.171  20.227  0.00  0.00    +0.000 A 
ATOM     13  C   UNL     1      -1.559  11.955  20.012  0.00  0.00    +0.000 A 
ATOM     14  F   UNL     1      -2.157  11.074  19.198  0.00  0.00    +0.000 F 
ENDBRANCH   6   7
BRANCH   4  15
ATOM     15  C   UNL     1       2.210   8.249  18.363  0.00  0.00    +0.000 C 
ATOM     16  O   UNL     1       2.295   8.754  17.248  0.00  0.00    +0.000 OA
ATOM     17  N   UNL     1       2.747   7.031  18.748  0.00  0.00    +0.000 N 
ATOM     18  H   UNL     1       2.478   6.730  19.682  0.00  0.00    +0.000 HD
BRANCH  17  19
ATOM     19  C   UNL     1       3.485   6.147  17.931  0.00  0.00    +0.000 A 
ATOM     20  C   UNL     1       3.116   4.797  17.744  0.00  0.00    +0.000 A 
ATOM     21  C   UNL     1       3.901   3.923  16.983  0.00  0.00    +0.000 A 
ATOM     22  C   UNL     1       5.052   4.424  16.426  0.00  0.00    +0.000 A 
ATOM     23  C   UNL     1       5.408   5.743  16.574  0.00  0.00    +0.000 A 
ATOM     24  C   UNL     1       4.638   6.634  17.299  0.00  0.00    +0.000 A 
ATOM     25  O   UNL     1       6.587   6.026  15.952  0.00  0.00    +0.000 OA
ATOM     26  C   UNL     1       6.963   4.716  15.474  0.00  0.00    +0.000 C 
ATOM     27  O   UNL     1       5.952   3.714  15.696  0.00  0.00    +0.000 OA
ENDBRANCH  17  19
ENDBRANCH   4  15
TORSDOF 3
ENDMDL
MODEL 7
REMARK VINA RESULT:      -8.2      5.523      7.265
REMARK  Name = 
REMARK  4 active torsions:
REMARK  status: ('A' for Active; 'I' for Inactive)
REMARK    1  A    between atoms: C_1  and  C_2
REMARK    2  A    between atoms: C_4  and  C_5
REMARK    3  A    between atoms: N_7  and  C_8
REMARK    4  A    between atoms: N_18  and  C_19
REMARK                            x       y       z     vdW  Elec       q    Type
REMARK                         _______ _______ _______ _____ _____    ______ ____
ROOT
ATOM      1  C   UNL     1       4.512   2.646  19.722  0.00  0.00    +0.000 C 
ATOM      2  C   UNL     1       3.823   3.950  19.541  0.00  0.00    +0.000 A 
ATOM      3  C   UNL     1       2.824   4.485  20.323  0.00  0.00    +0.000 A 
ATOM      4  C   UNL     1       2.610   5.793  19.844  0.00  0.00    +0.000 A 
ATOM      5  N   UNL     1       3.422   6.068  18.810  0.00  0.00    +0.000 NA
ATOM      6  N   UNL     1       4.141   4.927  18.602  0.00  0.00    +0.000 N 
ENDROOT
BRANCH   6   7
ATOM      7  C   UNL     1       5.044   4.847  17.508  0.00  0.00    +0.000 A 
ATOM      8  C   UNL     1       4.613   4.408  16.245  0.00  0.00    +0.000 A 
ATOM      9  C   UNL     1       5.515   4.321  15.183  0.00  0.00    +0.000 A 
ATOM     10  C   UNL     1       6.843   4.676  15.380  0.00  0.00    +0.000 A 
ATOM     11  F   UNL     1       7.706   4.579  14.360  0.00  0.00    +0.000 F 
ATOM     12  C   UNL     1       7.286   5.131  16.613  0.00  0.00    +0.000 A 
ATOM     13  C   UNL     1       6.383   5.225  17.671  0.00  0.00    +0.000 A 
ATOM     14  F   UNL     1       6.864   5.623  18.857  0.00  0.00    +0.000 F 
ENDBRANCH   6   7
BRANCH   4  15
ATOM     15  C   UNL     1       1.634   6.750  20.393  0.00  0.00    +0.000 C 
ATOM     16  O   UNL     1       0.766   6.366  21.172  0.00  0.00    +0.000 OA
ATOM     17  N   UNL     1       1.777   8.040  19.907  0.00  0.00    +0.000 N 
ATOM     18  H   UNL     1       2.488   8.139  19.186  0.00  0.00    +0.000 HD
BRANCH  17  19
ATOM     19  C   UNL     1       0.954   9.145  20.213  0.00  0.00    +0.000 A 
ATOM     20  C   UNL     1       0.392   9.974  19.219  0.00  0.00    +0.000 A 
ATOM     21  C   UNL     1      -0.366  11.103  19.550  0.00  0.00    +0.000 A 
ATOM     22  C   UNL     1      -0.539  11.384  20.883  0.00  0.00    +0.000 A 
ATOM     23  C   UNL     1      -0.022  10.570  21.863  0.00  0.00    +0.000 A 
ATOM     24  C   UNL     1       0.708   9.434  21.563  0.00  0.00    +0.000 A 
ATOM     25  O   UNL     1      -0.301  11.036  23.112  0.00  0.00    +0.000 OA
ATOM     26  C   UNL     1      -0.975  12.274  22.797  0.00  0.00    +0.000 C 
ATOM     27  O   UNL     1      -1.205  12.457  21.386  0.00  0.00    +0.000 OA
ENDBRANCH  17  19
ENDBRANCH   4  15
TORSDOF 3
ENDMDL
MODEL 8
REMARK VINA RESULT:      -8.2      5.512      7.001
REMARK  Name = 
REMARK  4 active torsions:
REMARK  status: ('A' for Active; 'I' for Inactive)
REMARK    1  A    between atoms: C_1  and  C_2
REMARK    2  A    between atoms: C_4  and  C_5
REMARK    3  A    between atoms: N_7  and  C_8
REMARK    4  A    between atoms: N_18  and  C_19
REMARK                            x       y       z     vdW  Elec       q    Type
REMARK                         _______ _______ _______ _____ _____    ______ ____
ROOT
ATOM      1  C   UNL     1       3.080   3.304  20.170  0.00  0.00    +0.000 C 
ATOM      2  C   UNL     1       2.843   4.747  19.906  0.00  0.00    +0.000 A 
ATOM      3  C   UNL     1       1.932   5.573  20.526  0.00  0.00    +0.000 A 
ATOM      4  C   UNL     1       2.192   6.872  20.045  0.00  0.00    +0.000 A 
ATOM      5  N   UNL     1       3.204   6.868  19.163  0.00  0.00    +0.000 NA
ATOM      6  N   UNL     1       3.581   5.560  19.052  0.00  0.00    +0.000 N 
ENDROOT
BRANCH   6   7
ATOM      7  C   UNL     1       4.585   5.188  18.118  0.00  0.00    +0.000 A 
ATOM      8  C   UNL     1       4.249   4.815  16.806  0.00  0.00    +0.000 A 
ATOM      9  C   UNL     1       5.246   4.438  15.903  0.00  0.00    +0.000 A 
ATOM     10  C   UNL     1       6.574   4.439  16.308  0.00  0.00    +0.000 A 
ATOM     11  F   UNL     1       7.524   4.064  15.441  0.00  0.00    +0.000 F 
ATOM     12  C   UNL     1       6.930   4.823  17.592  0.00  0.00    +0.000 A 
ATOM     13  C   UNL     1       5.935   5.208  18.490  0.00  0.00    +0.000 A 
ATOM     14  F   UNL     1       6.319   5.524  19.735  0.00  0.00    +0.000 F 
ENDBRANCH   6   7
BRANCH   4  15
ATOM     15  C   UNL     1       1.464   8.088  20.447  0.00  0.00    +0.000 C 
ATOM     16  O   UNL     1       1.026   8.194  21.589  0.00  0.00    +0.000 OA
ATOM     17  N   UNL     1       1.302   9.010  19.425  0.00  0.00    +0.000 N 
ATOM     18  H   UNL     1       1.642   8.695  18.519  0.00  0.00    +0.000 HD
BRANCH  17  19
ATOM     19  C   UNL     1       0.603  10.234  19.506  0.00  0.00    +0.000 A 
ATOM     20  C   UNL     1      -0.801  10.301  19.634  0.00  0.00    +0.000 A 
ATOM     21  C   UNL     1      -1.477  11.527  19.644  0.00  0.00    +0.000 A 
ATOM     22  C   UNL     1      -0.724  12.668  19.518  0.00  0.00    +0.000 A 
ATOM     23  C   UNL     1       0.646  12.620  19.422  0.00  0.00    +0.000 A 
ATOM     24  C   UNL     1       1.340  11.424  19.435  0.00  0.00    +0.000 A 
ATOM     25  O   UNL     1       1.193  13.861  19.294  0.00  0.00    +0.000 OA
ATOM     26  C   UNL     1       0.003  14.678  19.237  0.00  0.00    +0.000 C 
ATOM     27  O   UNL     1      -1.212  13.936  19.465  0.00  0.00    +0.000 OA
ENDBRANCH  17  19
ENDBRANCH   4  15
TORSDOF 3
ENDMDL
MODEL 9
REMARK VINA RESULT:      -8.1      1.228      1.924
REMARK  Name = 
REMARK  4 active torsions:
REMARK  status: ('A' for Active; 'I' for Inactive)
REMARK    1  A    between atoms: C_1  and  C_2
REMARK    2  A    between atoms: C_4  and  C_5
REMARK    3  A    between atoms: N_7  and  C_8
REMARK    4  A    between atoms: N_18  and  C_19
REMARK                            x       y       z     vdW  Elec       q    Type
REMARK                         _______ _______ _______ _____ _____    ______ ____
ROOT
ATOM      1  C   UNL     1       5.845   3.772  15.454  0.00  0.00    +0.000 C 
ATOM      2  C   UNL     1       6.128   4.741  16.545  0.00  0.00    +0.000 A 
ATOM      3  C   UNL     1       7.228   5.560  16.673  0.00  0.00    +0.000 A 
ATOM      4  C   UNL     1       6.967   6.397  17.776  0.00  0.00    +0.000 A 
ATOM      5  N   UNL     1       5.772   6.118  18.322  0.00  0.00    +0.000 NA
ATOM      6  N   UNL     1       5.273   5.080  17.589  0.00  0.00    +0.000 N 
ENDROOT
BRANCH   6   7
ATOM      7  C   UNL     1       4.044   4.473  17.962  0.00  0.00    +0.000 A 
ATOM      8  C   UNL     1       2.826   4.915  17.420  0.00  0.00    +0.000 A 
ATOM      9  C   UNL     1       1.624   4.319  17.807  0.00  0.00    +0.000 A 
ATOM     10  C   UNL     1       1.639   3.280  18.729  0.00  0.00    +0.000 A 
ATOM     11  F   UNL     1       0.482   2.721  19.105  0.00  0.00    +0.000 F 
ATOM     12  C   UNL     1       2.831   2.815  19.262  0.00  0.00    +0.000 A 
ATOM     13  C   UNL     1       4.032   3.405  18.869  0.00  0.00    +0.000 A 
ATOM     14  F   UNL     1       5.156   2.957  19.446  0.00  0.00    +0.000 F 
ENDBRANCH   6   7
BRANCH   4  15
ATOM     15  C   UNL     1       7.868   7.449  18.278  0.00  0.00    +0.000 C 
ATOM     16  O   UNL     1       8.718   7.179  19.121  0.00  0.00    +0.000 OA
ATOM     17  N   UNL     1       7.614   8.705  17.752  0.00  0.00    +0.000 N 
ATOM     18  H   UNL     1       6.797   8.748  17.146  0.00  0.00    +0.000 HD
BRANCH  17  19
ATOM     19  C   UNL     1       8.279   9.903  18.089  0.00  0.00    +0.000 A 
ATOM     20  C   UNL     1       8.009  11.131  17.446  0.00  0.00    +0.000 A 
ATOM     21  C   UNL     1       8.729  12.291  17.752  0.00  0.00    +0.000 A 
ATOM     22  C   UNL     1       9.719  12.194  18.699  0.00  0.00    +0.000 A 
ATOM     23  C   UNL     1       9.974  11.013  19.354  0.00  0.00    +0.000 A 
ATOM     24  C   UNL     1       9.260   9.858  19.090  0.00  0.00    +0.000 A 
ATOM     25  O   UNL     1      10.999  11.134  20.243  0.00  0.00    +0.000 OA
ATOM     26  C   UNL     1      11.406  12.499  20.004  0.00  0.00    +0.000 C 
ATOM     27  O   UNL     1      10.543  13.201  19.089  0.00  0.00    +0.000 OA
ENDBRANCH  17  19
ENDBRANCH   4  15
TORSDOF 3
ENDMDL
