MODEL 1
REMARK VINA RESULT:      -8.7      0.000      0.000
REMARK  Name = 
REMARK  2 active torsions:
REMARK  status: ('A' for Active; 'I' for Inactive)
REMARK    1  A    between atoms: N_3  and  C_4
REMARK    2  A    between atoms: C_4  and  C_5
REMARK                            x       y       z     vdW  Elec       q    Type
REMARK                         _______ _______ _______ _____ _____    ______ ____
ROOT
ATOM      1  O   UNL     1       2.402   8.817  17.285  0.00  0.00    +0.000 OA
ATOM      2  C   UNL     1       2.028   8.630  18.427  0.00  0.00    +0.000 C 
ATOM      3  N   UNL     1       2.181   7.425  19.063  0.00  0.00    +0.000 N 
ATOM      4  N   UNL     1       1.421   9.634  19.202  0.00  0.00    +0.000 N 
ATOM      5  C   UNL     1       1.061  10.885  18.526  0.00  0.00    +0.000 C 
ATOM      6  C   UNL     1       0.983  12.102  19.492  0.00  0.00    +0.000 C 
ATOM      7  C   UNL     1       0.019  11.802  20.675  0.00  0.00    +0.000 C 
ATOM      8  C   UNL     1       0.652  10.563  21.352  0.00  0.00    +0.000 C 
ATOM      9  C   UNL     1       0.786   9.345  20.479  0.00  0.00    +0.000 C 
ATOM     10  C   UNL     1      -1.404  11.685  20.025  0.00  0.00    +0.000 C 
ATOM     11  C   UNL     1      -2.626  12.084  20.843  0.00  0.00    +0.000 C 
ATOM     12  S   UNL     1      -2.512  13.713  21.561  0.00  0.00    +0.000 S 
ATOM     13  O   UNL     1      -2.917  13.597  22.954  0.00  0.00    +0.000 OA
ATOM     14  O   UNL     1      -3.187  14.653  20.679  0.00  0.00    +0.000 OA
ATOM     15  C   UNL     1      -0.781  14.090  21.516  0.00  0.00    +0.000 C 
ATOM     16  C   UNL     1       0.004  12.839  21.823  0.00  0.00    +0.000 C 
ATOM     17  H   UNL     1       1.443   7.194  19.707  0.00  0.00    +0.000 HD
ENDROOT
BRANCH   3  18
ATOM     18  C   UNL     1       2.741   6.290  18.350  0.00  0.00    +0.000 C 
BRANCH  18  19
ATOM     19  C   UNL     1       2.401   4.914  18.967  0.00  0.00    +0.000 C 
ATOM     20  C   UNL     1       1.615   4.036  17.957  0.00  0.00    +0.000 C 
ATOM     21  C   UNL     1       1.334   2.644  18.541  0.00  0.00    +0.000 C 
ATOM     22  C   UNL     1       2.667   1.954  18.865  0.00  0.00    +0.000 C 
ATOM     23  C   UNL     1       3.452   2.786  19.892  0.00  0.00    +0.000 C 
ATOM     24  C   UNL     1       2.614   2.930  21.174  0.00  0.00    +0.000 C 
ATOM     25  C   UNL     1       1.287   3.630  20.859  0.00  0.00    +0.000 C 
ATOM     26  C   UNL     1       0.508   2.794  19.828  0.00  0.00    +0.000 C 
ATOM     27  C   UNL     1       1.568   5.031  20.273  0.00  0.00    +0.000 C 
ATOM     28  C   UNL     1       3.727   4.182  19.313  0.00  0.00    +0.000 C 
ENDBRANCH  18  19
ENDBRANCH   3  18
TORSDOF 2
ENDMDL
MODEL 2
REMARK VINA RESULT:      -8.7      0.170      1.475
REMARK  Name = 
REMARK  2 active torsions:
REMARK  status: ('A' for Active; 'I' for Inactive)
REMARK    1  A    between atoms: N_3  and  C_4
REMARK    2  A    between atoms: C_4  and  C_5
REMARK                            x       y       z     vdW  Elec       q    Type
REMARK                         _______ _______ _______ _____ _____    ______ ____
ROOT
ATOM      1  O   UNL     1       2.441   9.029  17.313  0.00  0.00    +0.000 OA
ATOM      2  C   UNL     1       1.997   8.782  18.418  0.00  0.00    +0.000 C 
ATOM      3  N   UNL     1       2.089   7.538  18.987  0.00  0.00    +0.000 N 
ATOM      4  N   UNL     1       1.362   9.751  19.216  0.00  0.00    +0.000 N 
ATOM      5  C   UNL     1       1.066  11.048  18.597  0.00  0.00    +0.000 C 
ATOM      6  C   UNL     1       0.952  12.207  19.628  0.00  0.00    +0.000 C 
ATOM      7  C   UNL     1      -0.086  11.858  20.733  0.00  0.00    +0.000 C 
ATOM      8  C   UNL     1       0.484  10.568  21.369  0.00  0.00    +0.000 C 
ATOM      9  C   UNL     1       0.647   9.401  20.433  0.00  0.00    +0.000 C 
ATOM     10  C   UNL     1      -1.469  11.811  19.994  0.00  0.00    +0.000 C 
ATOM     11  C   UNL     1      -2.731  12.188  20.762  0.00  0.00    +0.000 C 
ATOM     12  S   UNL     1      -2.630  13.768  21.583  0.00  0.00    +0.000 S 
ATOM     13  O   UNL     1      -3.119  13.578  22.941  0.00  0.00    +0.000 OA
ATOM     14  O   UNL     1      -3.234  14.773  20.721  0.00  0.00    +0.000 OA
ATOM     15  C   UNL     1      -0.892  14.109  21.662  0.00  0.00    +0.000 C 
ATOM     16  C   UNL     1      -0.150  12.826  21.938  0.00  0.00    +0.000 C 
ATOM     17  H   UNL     1       1.309   7.286  19.573  0.00  0.00    +0.000 HD
ENDROOT
BRANCH   3  18
ATOM     18  C   UNL     1       2.669   6.436  18.241  0.00  0.00    +0.000 C 
BRANCH  18  19
ATOM     19  C   UNL     1       2.446   5.044  18.875  0.00  0.00    +0.000 C 
ATOM     20  C   UNL     1       1.652   5.164  20.203  0.00  0.00    +0.000 C 
ATOM     21  C   UNL     1       1.369   3.779  20.801  0.00  0.00    +0.000 C 
ATOM     22  C   UNL     1       0.543   2.956  19.802  0.00  0.00    +0.000 C 
ATOM     23  C   UNL     1       1.323   2.791  18.488  0.00  0.00    +0.000 C 
ATOM     24  C   UNL     1       2.655   2.078  18.776  0.00  0.00    +0.000 C 
ATOM     25  C   UNL     1       3.490   2.901  19.763  0.00  0.00    +0.000 C 
ATOM     26  C   UNL     1       2.703   3.066  21.075  0.00  0.00    +0.000 C 
ATOM     27  C   UNL     1       3.777   4.295  19.162  0.00  0.00    +0.000 C 
ATOM     28  C   UNL     1       1.614   4.176  17.891  0.00  0.00    +0.000 C 
ENDBRANCH  18  19
ENDBRANCH   3  18
TORSDOF 2
ENDMDL
MODEL 3
REMARK VINA RESULT:      -8.7      0.156      1.431
REMARK  Name = 
REMARK  2 active torsions:
REMARK  status: ('A' for Active; 'I' for Inactive)
REMARK    1  A    between atoms: N_3  and  C_4
REMARK    2  A    between atoms: C_4  and  C_5
REMARK                            x       y       z     vdW  Elec       q    Type
REMARK                         _______ _______ _______ _____ _____    ______ ____
ROOT
ATOM      1  O   UNL     1       2.464   9.004  17.301  0.00  0.00    +0.000 OA
ATOM      2  C   UNL     1       2.032   8.761  18.411  0.00  0.00    +0.000 C 
ATOM      3  N   UNL     1       2.138   7.521  18.987  0.00  0.00    +0.000 N 
ATOM      4  N   UNL     1       1.399   9.730  19.210  0.00  0.00    +0.000 N 
ATOM      5  C   UNL     1       1.088  11.021  18.587  0.00  0.00    +0.000 C 
ATOM      6  C   UNL     1       0.977  12.185  19.612  0.00  0.00    +0.000 C 
ATOM      7  C   UNL     1      -0.048  11.837  20.730  0.00  0.00    +0.000 C 
ATOM      8  C   UNL     1       0.537  10.554  21.368  0.00  0.00    +0.000 C 
ATOM      9  C   UNL     1       0.698   9.382  20.437  0.00  0.00    +0.000 C 
ATOM     10  C   UNL     1      -1.438  11.776  20.005  0.00  0.00    +0.000 C 
ATOM     11  C   UNL     1      -2.694  12.149  20.783  0.00  0.00    +0.000 C 
ATOM     12  S   UNL     1      -2.596  13.735  21.594  0.00  0.00    +0.000 S 
ATOM     13  O   UNL     1      -3.070  13.550  22.958  0.00  0.00    +0.000 OA
ATOM     14  O   UNL     1      -3.215  14.731  20.732  0.00  0.00    +0.000 OA
ATOM     15  C   UNL     1      -0.860  14.087  21.654  0.00  0.00    +0.000 C 
ATOM     16  C   UNL     1      -0.106  12.811  21.929  0.00  0.00    +0.000 C 
ATOM     17  H   UNL     1       1.366   7.267  19.582  0.00  0.00    +0.000 HD
ENDROOT
BRANCH   3  18
ATOM     18  C   UNL     1       2.719   6.418  18.242  0.00  0.00    +0.000 C 
BRANCH  18  19
ATOM     19  C   UNL     1       2.426   5.020  18.832  0.00  0.00    +0.000 C 
ATOM     20  C   UNL     1       3.745   4.255  19.118  0.00  0.00    +0.000 C 
ATOM     21  C   UNL     1       3.460   2.893  19.767  0.00  0.00    +0.000 C 
ATOM     22  C   UNL     1       2.717   3.111  21.093  0.00  0.00    +0.000 C 
ATOM     23  C   UNL     1       1.387   3.836  20.835  0.00  0.00    +0.000 C 
ATOM     24  C   UNL     1       0.524   2.989  19.886  0.00  0.00    +0.000 C 
ATOM     25  C   UNL     1       1.255   2.779  18.555  0.00  0.00    +0.000 C 
ATOM     26  C   UNL     1       2.587   2.055  18.820  0.00  0.00    +0.000 C 
ATOM     27  C   UNL     1       1.541   4.148  17.900  0.00  0.00    +0.000 C 
ATOM     28  C   UNL     1       1.669   5.196  20.178  0.00  0.00    +0.000 C 
ENDBRANCH  18  19
ENDBRANCH   3  18
TORSDOF 2
ENDMDL
MODEL 4
REMARK VINA RESULT:      -8.6      2.778      4.207
REMARK  Name = 
REMARK  2 active torsions:
REMARK  status: ('A' for Active; 'I' for Inactive)
REMARK    1  A    between atoms: N_3  and  C_4
REMARK    2  A    between atoms: C_4  and  C_5
REMARK                            x       y       z     vdW  Elec       q    Type
REMARK                         _______ _______ _______ _____ _____    ______ ____
ROOT
ATOM      1  O   UNL     1       2.149   6.332  20.799  0.00  0.00    +0.000 OA
ATOM      2  C   UNL     1       2.151   6.955  19.755  0.00  0.00    +0.000 C 
ATOM      3  N   UNL     1       2.795   6.506  18.630  0.00  0.00    +0.000 N 
ATOM      4  N   UNL     1       1.482   8.183  19.600  0.00  0.00    +0.000 N 
ATOM      5  C   UNL     1       0.931   8.808  20.808  0.00  0.00    +0.000 C 
ATOM      6  C   UNL     1      -0.257   9.768  20.513  0.00  0.00    +0.000 C 
ATOM      7  C   UNL     1       0.149  10.837  19.458  0.00  0.00    +0.000 C 
ATOM      8  C   UNL     1       0.536   9.993  18.220  0.00  0.00    +0.000 C 
ATOM      9  C   UNL     1       1.666   9.021  18.425  0.00  0.00    +0.000 C 
ATOM     10  C   UNL     1       1.239  11.717  20.166  0.00  0.00    +0.000 C 
ATOM     11  C   UNL     1       1.366  13.186  19.783  0.00  0.00    +0.000 C 
ATOM     12  S   UNL     1      -0.171  14.088  19.867  0.00  0.00    +0.000 S 
ATOM     13  O   UNL     1      -0.285  14.858  18.637  0.00  0.00    +0.000 OA
ATOM     14  O   UNL     1      -0.242  14.757  21.157  0.00  0.00    +0.000 OA
ATOM     15  C   UNL     1      -1.418  12.829  19.850  0.00  0.00    +0.000 C 
ATOM     16  C   UNL     1      -0.993  11.726  18.914  0.00  0.00    +0.000 C 
ATOM     17  H   UNL     1       3.187   7.232  18.053  0.00  0.00    +0.000 HD
ENDROOT
BRANCH   3  18
ATOM     18  C   UNL     1       3.572   5.280  18.676  0.00  0.00    +0.000 C 
BRANCH  18  19
ATOM     19  C   UNL     1       5.014   5.414  18.137  0.00  0.00    +0.000 C 
ATOM     20  C   UNL     1       5.354   4.246  17.174  0.00  0.00    +0.000 C 
ATOM     21  C   UNL     1       6.762   4.412  16.584  0.00  0.00    +0.000 C 
ATOM     22  C   UNL     1       6.830   5.733  15.805  0.00  0.00    +0.000 C 
ATOM     23  C   UNL     1       6.532   6.912  16.744  0.00  0.00    +0.000 C 
ATOM     24  C   UNL     1       7.565   6.925  17.884  0.00  0.00    +0.000 C 
ATOM     25  C   UNL     1       7.492   5.613  18.674  0.00  0.00    +0.000 C 
ATOM     26  C   UNL     1       7.788   4.436  17.728  0.00  0.00    +0.000 C 
ATOM     27  C   UNL     1       6.077   5.446  19.270  0.00  0.00    +0.000 C 
ATOM     28  C   UNL     1       5.127   6.744  17.342  0.00  0.00    +0.000 C 
ENDBRANCH  18  19
ENDBRANCH   3  18
TORSDOF 2
ENDMDL
MODEL 5
REMARK VINA RESULT:      -8.5      2.799      4.278
REMARK  Name = 
REMARK  2 active torsions:
REMARK  status: ('A' for Active; 'I' for Inactive)
REMARK    1  A    between atoms: N_3  and  C_4
REMARK    2  A    between atoms: C_4  and  C_5
REMARK                            x       y       z     vdW  Elec       q    Type
REMARK                         _______ _______ _______ _____ _____    ______ ____
ROOT
ATOM      1  O   UNL     1       2.259   6.312  20.646  0.00  0.00    +0.000 OA
ATOM      2  C   UNL     1       2.195   6.936  19.604  0.00  0.00    +0.000 C 
ATOM      3  N   UNL     1       2.757   6.482  18.439  0.00  0.00    +0.000 N 
ATOM      4  N   UNL     1       1.528   8.169  19.496  0.00  0.00    +0.000 N 
ATOM      5  C   UNL     1       1.067   8.799  20.738  0.00  0.00    +0.000 C 
ATOM      6  C   UNL     1      -0.130   9.769  20.525  0.00  0.00    +0.000 C 
ATOM      7  C   UNL     1       0.213  10.835  19.445  0.00  0.00    +0.000 C 
ATOM      8  C   UNL     1       0.507   9.989  18.184  0.00  0.00    +0.000 C 
ATOM      9  C   UNL     1       1.640   9.006  18.311  0.00  0.00    +0.000 C 
ATOM     10  C   UNL     1       1.356  11.704  20.077  0.00  0.00    +0.000 C 
ATOM     11  C   UNL     1       1.469  13.173  19.686  0.00  0.00    +0.000 C 
ATOM     12  S   UNL     1      -0.050  14.089  19.874  0.00  0.00    +0.000 S 
ATOM     13  O   UNL     1      -0.240  14.860  18.655  0.00  0.00    +0.000 OA
ATOM     14  O   UNL     1      -0.027  14.757  21.167  0.00  0.00    +0.000 OA
ATOM     15  C   UNL     1      -1.306  12.841  19.942  0.00  0.00    +0.000 C 
ATOM     16  C   UNL     1      -0.956  11.734  18.980  0.00  0.00    +0.000 C 
ATOM     17  H   UNL     1       3.116   7.204  17.836  0.00  0.00    +0.000 HD
ENDROOT
BRANCH   3  18
ATOM     18  C   UNL     1       3.525   5.248  18.431  0.00  0.00    +0.000 C 
BRANCH  18  19
ATOM     19  C   UNL     1       4.984   5.404  17.948  0.00  0.00    +0.000 C 
ATOM     20  C   UNL     1       5.183   6.761  17.221  0.00  0.00    +0.000 C 
ATOM     21  C   UNL     1       6.647   6.949  16.799  0.00  0.00    +0.000 C 
ATOM     22  C   UNL     1       7.541   6.920  18.047  0.00  0.00    +0.000 C 
ATOM     23  C   UNL     1       7.391   5.570  18.767  0.00  0.00    +0.000 C 
ATOM     24  C   UNL     1       7.795   4.437  17.809  0.00  0.00    +0.000 C 
ATOM     25  C   UNL     1       6.897   4.454  16.567  0.00  0.00    +0.000 C 
ATOM     26  C   UNL     1       7.049   5.808  15.852  0.00  0.00    +0.000 C 
ATOM     27  C   UNL     1       5.424   4.263  16.990  0.00  0.00    +0.000 C 
ATOM     28  C   UNL     1       5.925   5.376  19.184  0.00  0.00    +0.000 C 
ENDBRANCH  18  19
ENDBRANCH   3  18
TORSDOF 2
ENDMDL
MODEL 6
REMARK VINA RESULT:      -8.4      2.801      4.316
REMARK  Name = 
REMARK  2 active torsions:
REMARK  status: ('A' for Active; 'I' for Inactive)
REMARK    1  A    between atoms: N_3  and  C_4
REMARK    2  A    between atoms: C_4  and  C_5
REMARK                            x       y       z     vdW  Elec       q    Type
REMARK                         _______ _______ _______ _____ _____    ______ ____
ROOT
ATOM      1  O   UNL     1       2.326   6.333  20.546  0.00  0.00    +0.000 OA
ATOM      2  C   UNL     1       2.204   6.944  19.502  0.00  0.00    +0.000 C 
ATOM      3  N   UNL     1       2.717   6.485  18.316  0.00  0.00    +0.000 N 
ATOM      4  N   UNL     1       1.514   8.166  19.412  0.00  0.00    +0.000 N 
ATOM      5  C   UNL     1       1.101   8.803  20.667  0.00  0.00    +0.000 C 
ATOM      6  C   UNL     1      -0.119   9.753  20.500  0.00  0.00    +0.000 C 
ATOM      7  C   UNL     1       0.157  10.811  19.394  0.00  0.00    +0.000 C 
ATOM      8  C   UNL     1       0.404   9.955  18.129  0.00  0.00    +0.000 C 
ATOM      9  C   UNL     1       1.557   8.991  18.214  0.00  0.00    +0.000 C 
ATOM     10  C   UNL     1       1.315  11.705  19.962  0.00  0.00    +0.000 C 
ATOM     11  C   UNL     1       1.387  13.170  19.550  0.00  0.00    +0.000 C 
ATOM     12  S   UNL     1      -0.135  14.066  19.800  0.00  0.00    +0.000 S 
ATOM     13  O   UNL     1      -0.394  14.820  18.583  0.00  0.00    +0.000 OA
ATOM     14  O   UNL     1      -0.062  14.749  21.083  0.00  0.00    +0.000 OA
ATOM     15  C   UNL     1      -1.368  12.800  19.941  0.00  0.00    +0.000 C 
ATOM     16  C   UNL     1      -1.046  11.688  18.975  0.00  0.00    +0.000 C 
ATOM     17  H   UNL     1       3.036   7.205  17.689  0.00  0.00    +0.000 HD
ENDROOT
BRANCH   3  18
ATOM     18  C   UNL     1       3.502   5.263  18.285  0.00  0.00    +0.000 C 
BRANCH  18  19
ATOM     19  C   UNL     1       4.978   5.459  17.869  0.00  0.00    +0.000 C 
ATOM     20  C   UNL     1       5.903   5.485  19.114  0.00  0.00    +0.000 C 
ATOM     21  C   UNL     1       7.376   5.611  18.701  0.00  0.00    +0.000 C 
ATOM     22  C   UNL     1       7.760   4.411  17.824  0.00  0.00    +0.000 C 
ATOM     23  C   UNL     1       6.881   4.381  16.563  0.00  0.00    +0.000 C 
ATOM     24  C   UNL     1       7.080   5.687  15.776  0.00  0.00    +0.000 C 
ATOM     25  C   UNL     1       6.687   6.889  16.643  0.00  0.00    +0.000 C 
ATOM     26  C   UNL     1       7.567   6.912  17.905  0.00  0.00    +0.000 C 
ATOM     27  C   UNL     1       5.204   6.764  17.058  0.00  0.00    +0.000 C 
ATOM     28  C   UNL     1       5.406   4.263  16.974  0.00  0.00    +0.000 C 
ENDBRANCH  18  19
ENDBRANCH   3  18
TORSDOF 2
ENDMDL
MODEL 7
REMARK VINA RESULT:      -8.0      1.101      1.331
REMARK  Name = 
REMARK  2 active torsions:
REMARK  status: ('A' for Active; 'I' for Inactive)
REMARK    1  A    between atoms: N_3  and  C_4
REMARK    2  A    between atoms: C_4  and  C_5
REMARK                            x       y       z     vdW  Elec       q    Type
REMARK                         _______ _______ _______ _____ _____    ______ ____
ROOT
ATOM      1  O   UNL     1       2.421  10.167  17.580  0.00  0.00    +0.000 OA
ATOM      2  C   UNL     1       1.801   9.645  18.487  0.00  0.00    +0.000 C 
ATOM      3  N   UNL     1       1.816   8.291  18.704  0.00  0.00    +0.000 N 
ATOM      4  N   UNL     1       1.026  10.381  19.401  0.00  0.00    +0.000 N 
ATOM      5  C   UNL     1       0.818  11.805  19.118  0.00  0.00    +0.000 C 
ATOM      6  C   UNL     1       0.514  12.645  20.391  0.00  0.00    +0.000 C 
ATOM      7  C   UNL     1      -0.690  12.042  21.171  0.00  0.00    +0.000 C 
ATOM      8  C   UNL     1      -0.215  10.612  21.519  0.00  0.00    +0.000 C 
ATOM      9  C   UNL     1       0.122   9.736  20.342  0.00  0.00    +0.000 C 
ATOM     10  C   UNL     1      -1.929  12.239  20.229  0.00  0.00    +0.000 C 
ATOM     11  C   UNL     1      -3.307  12.432  20.850  0.00  0.00    +0.000 C 
ATOM     12  S   UNL     1      -3.370  13.728  22.074  0.00  0.00    +0.000 S 
ATOM     13  O   UNL     1      -4.078  13.194  23.228  0.00  0.00    +0.000 OA
ATOM     14  O   UNL     1      -3.837  14.947  21.430  0.00  0.00    +0.000 OA
ATOM     15  C   UNL     1      -1.677  13.981  22.530  0.00  0.00    +0.000 C 
ATOM     16  C   UNL     1      -0.970  12.650  22.566  0.00  0.00    +0.000 C 
ATOM     17  H   UNL     1       0.953   7.913  19.061  0.00  0.00    +0.000 HD
ENDROOT
BRANCH   3  18
ATOM     18  C   UNL     1       2.531   7.414  17.794  0.00  0.00    +0.000 C 
BRANCH  18  19
ATOM     19  C   UNL     1       2.607   5.940  18.251  0.00  0.00    +0.000 C 
ATOM     20  C   UNL     1       1.373   5.143  17.753  0.00  0.00    +0.000 C 
ATOM     21  C   UNL     1       1.478   3.663  18.147  0.00  0.00    +0.000 C 
ATOM     22  C   UNL     1       2.743   3.061  17.517  0.00  0.00    +0.000 C 
ATOM     23  C   UNL     1       3.986   3.810  18.023  0.00  0.00    +0.000 C 
ATOM     24  C   UNL     1       4.060   3.694  19.554  0.00  0.00    +0.000 C 
ATOM     25  C   UNL     1       2.805   4.304  20.189  0.00  0.00    +0.000 C 
ATOM     26  C   UNL     1       1.563   3.553  19.677  0.00  0.00    +0.000 C 
ATOM     27  C   UNL     1       2.699   5.794  19.795  0.00  0.00    +0.000 C 
ATOM     28  C   UNL     1       3.879   5.293  17.637  0.00  0.00    +0.000 C 
ENDBRANCH  18  19
ENDBRANCH   3  18
TORSDOF 2
ENDMDL
MODEL 8
REMARK VINA RESULT:      -8.0      1.126      1.671
REMARK  Name = 
REMARK  2 active torsions:
REMARK  status: ('A' for Active; 'I' for Inactive)
REMARK    1  A    between atoms: N_3  and  C_4
REMARK    2  A    between atoms: C_4  and  C_5
REMARK                            x       y       z     vdW  Elec       q    Type
REMARK                         _______ _______ _______ _____ _____    ______ ____
ROOT
ATOM      1  O   UNL     1       2.589  10.143  17.542  0.00  0.00    +0.000 OA
ATOM      2  C   UNL     1       1.894   9.617  18.390  0.00  0.00    +0.000 C 
ATOM      3  N   UNL     1       1.900   8.263  18.611  0.00  0.00    +0.000 N 
ATOM      4  N   UNL     1       1.034  10.347  19.229  0.00  0.00    +0.000 N 
ATOM      5  C   UNL     1       0.840  11.769  18.924  0.00  0.00    +0.000 C 
ATOM      6  C   UNL     1       0.416  12.608  20.163  0.00  0.00    +0.000 C 
ATOM      7  C   UNL     1      -0.848  11.997  20.833  0.00  0.00    +0.000 C 
ATOM      8  C   UNL     1      -0.395  10.571  21.225  0.00  0.00    +0.000 C 
ATOM      9  C   UNL     1       0.054   9.696  20.085  0.00  0.00    +0.000 C 
ATOM     10  C   UNL     1      -1.999  12.182  19.782  0.00  0.00    +0.000 C 
ATOM     11  C   UNL     1      -3.429  12.364  20.276  0.00  0.00    +0.000 C 
ATOM     12  S   UNL     1      -3.613  13.661  21.487  0.00  0.00    +0.000 S 
ATOM     13  O   UNL     1      -4.418  13.123  22.573  0.00  0.00    +0.000 OA
ATOM     14  O   UNL     1      -4.029  14.875  20.800  0.00  0.00    +0.000 OA
ATOM     15  C   UNL     1      -1.970  13.929  22.093  0.00  0.00    +0.000 C 
ATOM     16  C   UNL     1      -1.259  12.604  22.195  0.00  0.00    +0.000 C 
ATOM     17  H   UNL     1       1.012   7.879  18.889  0.00  0.00    +0.000 HD
ENDROOT
BRANCH   3  18
ATOM     18  C   UNL     1       2.702   7.391  17.770  0.00  0.00    +0.000 C 
BRANCH  18  19
ATOM     19  C   UNL     1       2.682   5.903  18.187  0.00  0.00    +0.000 C 
ATOM     20  C   UNL     1       3.895   5.145  17.586  0.00  0.00    +0.000 C 
ATOM     21  C   UNL     1       3.917   3.683  18.053  0.00  0.00    +0.000 C 
ATOM     22  C   UNL     1       4.017   3.643  19.585  0.00  0.00    +0.000 C 
ATOM     23  C   UNL     1       2.807   4.356  20.208  0.00  0.00    +0.000 C 
ATOM     24  C   UNL     1       1.516   3.656  19.751  0.00  0.00    +0.000 C 
ATOM     25  C   UNL     1       1.404   3.704  18.223  0.00  0.00    +0.000 C 
ATOM     26  C   UNL     1       2.620   2.991  17.605  0.00  0.00    +0.000 C 
ATOM     27  C   UNL     1       1.381   5.175  17.752  0.00  0.00    +0.000 C 
ATOM     28  C   UNL     1       2.778   5.818  19.736  0.00  0.00    +0.000 C 
ENDBRANCH  18  19
ENDBRANCH   3  18
TORSDOF 2
ENDMDL
MODEL 9
REMARK VINA RESULT:      -7.8      2.521      3.871
REMARK  Name = 
REMARK  2 active torsions:
REMARK  status: ('A' for Active; 'I' for Inactive)
REMARK    1  A    between atoms: N_3  and  C_4
REMARK    2  A    between atoms: C_4  and  C_5
REMARK                            x       y       z     vdW  Elec       q    Type
REMARK                         _______ _______ _______ _____ _____    ______ ____
ROOT
ATOM      1  O   UNL     1       1.526   7.169  21.195  0.00  0.00    +0.000 OA
ATOM      2  C   UNL     1       1.615   7.766  20.139  0.00  0.00    +0.000 C 
ATOM      3  N   UNL     1       2.212   7.219  19.033  0.00  0.00    +0.000 N 
ATOM      4  N   UNL     1       1.103   9.062  19.953  0.00  0.00    +0.000 N 
ATOM      5  C   UNL     1       0.620   9.775  21.141  0.00  0.00    +0.000 C 
ATOM      6  C   UNL     1      -0.438  10.866  20.812  0.00  0.00    +0.000 C 
ATOM      7  C   UNL     1       0.107  11.856  19.742  0.00  0.00    +0.000 C 
ATOM      8  C   UNL     1       0.402  10.946  18.526  0.00  0.00    +0.000 C 
ATOM      9  C   UNL     1       1.402   9.847  18.765  0.00  0.00    +0.000 C 
ATOM     10  C   UNL     1       1.288  12.610  20.448  0.00  0.00    +0.000 C 
ATOM     11  C   UNL     1       1.599  14.045  20.039  0.00  0.00    +0.000 C 
ATOM     12  S   UNL     1       0.183  15.130  20.084  0.00  0.00    +0.000 S 
ATOM     13  O   UNL     1       0.179  15.882  18.839  0.00  0.00    +0.000 OA
ATOM     14  O   UNL     1       0.180  15.828  21.361  0.00  0.00    +0.000 OA
ATOM     15  C   UNL     1      -1.208  14.032  20.075  0.00  0.00    +0.000 C 
ATOM     16  C   UNL     1      -0.911  12.867  19.166  0.00  0.00    +0.000 C 
ATOM     17  H   UNL     1       2.697   7.879  18.447  0.00  0.00    +0.000 HD
ENDROOT
BRANCH   3  18
ATOM     18  C   UNL     1       2.832   5.908  19.112  0.00  0.00    +0.000 C 
BRANCH  18  19
ATOM     19  C   UNL     1       4.066   5.726  18.199  0.00  0.00    +0.000 C 
ATOM     20  C   UNL     1       4.303   6.991  17.334  0.00  0.00    +0.000 C 
ATOM     21  C   UNL     1       5.567   6.841  16.475  0.00  0.00    +0.000 C 
ATOM     22  C   UNL     1       6.780   6.633  17.394  0.00  0.00    +0.000 C 
ATOM     23  C   UNL     1       6.587   5.363  18.237  0.00  0.00    +0.000 C 
ATOM     24  C   UNL     1       6.427   4.153  17.302  0.00  0.00    +0.000 C 
ATOM     25  C   UNL     1       5.210   4.349  16.391  0.00  0.00    +0.000 C 
ATOM     26  C   UNL     1       5.407   5.624  15.552  0.00  0.00    +0.000 C 
ATOM     27  C   UNL     1       3.937   4.499  17.254  0.00  0.00    +0.000 C 
ATOM     28  C   UNL     1       5.318   5.508  19.092  0.00  0.00    +0.000 C 
ENDBRANCH  18  19
ENDBRANCH   3  18
TORSDOF 2
ENDMDL
