MODEL 1
REMARK VINA RESULT:      -9.0      0.000      0.000
REMARK  Name = 
REMARK  9 active torsions:
REMARK  status: ('A' for Active; 'I' for Inactive)
REMARK    1  A    between atoms: C_1  and  C_2
REMARK    2  A    between atoms: C_2  and  N_3
REMARK    3  A    between atoms: C_2  and  C_27
REMARK    4  A    between atoms: C_4  and  C_6
REMARK    5  A    between atoms: C_6  and  S_7
REMARK    6  A    between atoms: S_7  and  C_8
REMARK    7  A    between atoms: C_11  and  C_12
REMARK    8  A    between atoms: N_19  and  C_20
REMARK    9  A    between atoms: C_20  and  C_21
REMARK                            x       y       z     vdW  Elec       q    Type
REMARK                         _______ _______ _______ _____ _____    ______ ____
ROOT
ATOM      1  C   UNL     1       0.907   9.417  20.990  0.00  0.00    +0.000 A 
ATOM      2  N   UNL     1       0.906   9.089  22.258  0.00  0.00    +0.000 NA
ATOM      3  N   UNL     1       0.228  10.068  22.941  0.00  0.00    +0.000 NA
ATOM      4  C   UNL     1      -0.185  10.998  22.094  0.00  0.00    +0.000 A 
ATOM      5  N   UNL     1       0.241  10.614  20.823  0.00  0.00    +0.000 N 
ENDROOT
BRANCH   4   6
ATOM      6  C   UNL     1      -1.026  12.158  22.464  0.00  0.00    +0.000 A 
ATOM      7  C   UNL     1      -2.349  12.036  22.918  0.00  0.00    +0.000 A 
ATOM      8  C   UNL     1      -3.080  13.154  23.353  0.00  0.00    +0.000 A 
ATOM      9  C   UNL     1      -2.522  14.426  23.286  0.00  0.00    +0.000 A 
ATOM     10  C   UNL     1      -1.238  14.580  22.776  0.00  0.00    +0.000 A 
ATOM     11  C   UNL     1      -0.503  13.458  22.377  0.00  0.00    +0.000 A 
ATOM     12  F   UNL     1       0.743  13.668  21.927  0.00  0.00    +0.000 F 
ENDBRANCH   4   6
BRANCH   1  13
ATOM     13  S   UNL     1       1.619   8.501  19.698  0.00  0.00    +0.000 S 
BRANCH  13  14
ATOM     14  C   UNL     1       2.118   6.934  20.493  0.00  0.00    +0.000 C 
BRANCH  14  16
ATOM     15  N   UNL     1       3.293   4.867  19.803  0.00  0.00    +0.000 N 
ATOM     16  C   UNL     1       2.468   5.906  19.406  0.00  0.00    +0.000 C 
ATOM     17  O   UNL     1       2.051   5.998  18.252  0.00  0.00    +0.000 OA
ATOM     18  H   UNL     1       3.660   4.849  20.745  0.00  0.00    +0.000 HD
BRANCH  15  20
ATOM     19  C   UNL     1       4.074   2.515  19.665  0.00  0.00    +0.000 C 
ATOM     20  C   UNL     1       3.672   3.782  18.897  0.00  0.00    +0.000 C 
BRANCH  20  21
ATOM     21  C   UNL     1       4.787   4.221  17.956  0.00  0.00    +0.000 A 
ATOM     22  C   UNL     1       6.015   4.733  18.448  0.00  0.00    +0.000 A 
ATOM     23  C   UNL     1       7.043   5.112  17.576  0.00  0.00    +0.000 A 
ATOM     24  C   UNL     1       6.831   4.969  16.222  0.00  0.00    +0.000 A 
ATOM     25  C   UNL     1       5.649   4.468  15.732  0.00  0.00    +0.000 A 
ATOM     26  C   UNL     1       4.613   4.094  16.564  0.00  0.00    +0.000 A 
ATOM     27  O   UNL     1       5.646   4.392  14.374  0.00  0.00    +0.000 OA
ATOM     28  C   UNL     1       6.979   4.856  14.073  0.00  0.00    +0.000 C 
ATOM     29  O   UNL     1       7.718   5.270  15.241  0.00  0.00    +0.000 OA
ENDBRANCH  20  21
ENDBRANCH  15  20
ENDBRANCH  14  16
ENDBRANCH  13  14
ENDBRANCH   1  13
BRANCH   5  30
ATOM     30  C   UNL     1       0.068  11.335  19.567  0.00  0.00    +0.000 C 
BRANCH  30  31
ATOM     31  C   UNL     1      -1.256  11.086  18.871  0.00  0.00    +0.000 A 
ATOM     32  C   UNL     1      -2.350  11.923  19.162  0.00  0.00    +0.000 A 
ATOM     33  C   UNL     1      -3.600  11.684  18.587  0.00  0.00    +0.000 A 
ATOM     34  C   UNL     1      -3.768  10.626  17.700  0.00  0.00    +0.000 A 
ATOM     35  C   UNL     1      -2.681   9.823  17.364  0.00  0.00    +0.000 A 
ATOM     36  C   UNL     1      -1.428  10.061  17.935  0.00  0.00    +0.000 A 
ENDBRANCH  30  31
ENDBRANCH   5  30
TORSDOF 8
ENDMDL
MODEL 2
REMARK VINA RESULT:      -8.9      5.748      9.162
REMARK  Name = 
REMARK  9 active torsions:
REMARK  status: ('A' for Active; 'I' for Inactive)
REMARK    1  A    between atoms: C_1  and  C_2
REMARK    2  A    between atoms: C_2  and  N_3
REMARK    3  A    between atoms: C_2  and  C_27
REMARK    4  A    between atoms: C_4  and  C_6
REMARK    5  A    between atoms: C_6  and  S_7
REMARK    6  A    between atoms: S_7  and  C_8
REMARK    7  A    between atoms: C_11  and  C_12
REMARK    8  A    between atoms: N_19  and  C_20
REMARK    9  A    between atoms: C_20  and  C_21
REMARK                            x       y       z     vdW  Elec       q    Type
REMARK                         _______ _______ _______ _____ _____    ______ ____
ROOT
ATOM      1  C   UNL     1       6.101   5.783  18.241  0.00  0.00    +0.000 A 
ATOM      2  N   UNL     1       6.608   4.919  19.084  0.00  0.00    +0.000 NA
ATOM      3  N   UNL     1       5.583   4.125  19.535  0.00  0.00    +0.000 NA
ATOM      4  C   UNL     1       4.446   4.503  18.972  0.00  0.00    +0.000 A 
ATOM      5  N   UNL     1       4.740   5.578  18.134  0.00  0.00    +0.000 N 
ENDROOT
BRANCH   4   6
ATOM      6  C   UNL     1       3.148   3.816  19.155  0.00  0.00    +0.000 A 
ATOM      7  C   UNL     1       2.531   3.055  18.149  0.00  0.00    +0.000 A 
ATOM      8  C   UNL     1       1.349   2.337  18.395  0.00  0.00    +0.000 A 
ATOM      9  C   UNL     1       0.727   2.415  19.636  0.00  0.00    +0.000 A 
ATOM     10  C   UNL     1       1.282   3.217  20.627  0.00  0.00    +0.000 A 
ATOM     11  C   UNL     1       2.478   3.901  20.386  0.00  0.00    +0.000 A 
ATOM     12  F   UNL     1       2.983   4.630  21.393  0.00  0.00    +0.000 F 
ENDBRANCH   4   6
BRANCH   1  13
ATOM     13  S   UNL     1       6.981   7.002  17.374  0.00  0.00    +0.000 S 
BRANCH  13  14
ATOM     14  C   UNL     1       8.241   7.569  18.568  0.00  0.00    +0.000 C 
BRANCH  14  16
ATOM     15  N   UNL     1       9.305   9.676  19.317  0.00  0.00    +0.000 N 
ATOM     16  C   UNL     1       8.442   9.085  18.409  0.00  0.00    +0.000 C 
ATOM     17  O   UNL     1       7.869   9.738  17.539  0.00  0.00    +0.000 OA
ATOM     18  H   UNL     1       9.719   9.119  20.052  0.00  0.00    +0.000 HD
BRANCH  15  20
ATOM     19  C   UNL     1      11.092  11.325  18.820  0.00  0.00    +0.000 C 
ATOM     20  C   UNL     1       9.640  11.099  19.261  0.00  0.00    +0.000 C 
BRANCH  20  21
ATOM     21  C   UNL     1       9.369  11.776  20.600  0.00  0.00    +0.000 A 
ATOM     22  C   UNL     1       9.769  13.113  20.850  0.00  0.00    +0.000 A 
ATOM     23  C   UNL     1       9.496  13.735  22.074  0.00  0.00    +0.000 A 
ATOM     24  C   UNL     1       8.820  13.010  23.033  0.00  0.00    +0.000 A 
ATOM     25  C   UNL     1       8.421  11.716  22.802  0.00  0.00    +0.000 A 
ATOM     26  C   UNL     1       8.684  11.073  21.609  0.00  0.00    +0.000 A 
ATOM     27  O   UNL     1       7.758  11.185  23.864  0.00  0.00    +0.000 OA
ATOM     28  C   UNL     1       7.744  12.311  24.766  0.00  0.00    +0.000 C 
ATOM     29  O   UNL     1       8.461  13.458  24.262  0.00  0.00    +0.000 OA
ENDBRANCH  20  21
ENDBRANCH  15  20
ENDBRANCH  14  16
ENDBRANCH  13  14
ENDBRANCH   1  13
BRANCH   5  30
ATOM     30  C   UNL     1       3.811   6.366  17.332  0.00  0.00    +0.000 C 
BRANCH  30  31
ATOM     31  C   UNL     1       2.972   7.353  18.121  0.00  0.00    +0.000 A 
ATOM     32  C   UNL     1       2.618   7.042  19.447  0.00  0.00    +0.000 A 
ATOM     33  C   UNL     1       1.795   7.898  20.183  0.00  0.00    +0.000 A 
ATOM     34  C   UNL     1       1.337   9.081  19.615  0.00  0.00    +0.000 A 
ATOM     35  C   UNL     1       1.723   9.426  18.321  0.00  0.00    +0.000 A 
ATOM     36  C   UNL     1       2.549   8.572  17.584  0.00  0.00    +0.000 A 
ENDBRANCH  30  31
ENDBRANCH   5  30
TORSDOF 8
ENDMDL
MODEL 3
REMARK VINA RESULT:      -8.7      5.929      9.308
REMARK  Name = 
REMARK  9 active torsions:
REMARK  status: ('A' for Active; 'I' for Inactive)
REMARK    1  A    between atoms: C_1  and  C_2
REMARK    2  A    between atoms: C_2  and  N_3
REMARK    3  A    between atoms: C_2  and  C_27
REMARK    4  A    between atoms: C_4  and  C_6
REMARK    5  A    between atoms: C_6  and  S_7
REMARK    6  A    between atoms: S_7  and  C_8
REMARK    7  A    between atoms: C_11  and  C_12
REMARK    8  A    between atoms: N_19  and  C_20
REMARK    9  A    between atoms: C_20  and  C_21
REMARK                            x       y       z     vdW  Elec       q    Type
REMARK                         _______ _______ _______ _____ _____    ______ ____
ROOT
ATOM      1  C   UNL     1       6.088   5.898  18.330  0.00  0.00    +0.000 A 
ATOM      2  N   UNL     1       6.645   5.082  19.191  0.00  0.00    +0.000 NA
ATOM      3  N   UNL     1       5.662   4.255  19.676  0.00  0.00    +0.000 NA
ATOM      4  C   UNL     1       4.503   4.562  19.115  0.00  0.00    +0.000 A 
ATOM      5  N   UNL     1       4.739   5.625  18.244  0.00  0.00    +0.000 N 
ENDROOT
BRANCH   4   6
ATOM      6  C   UNL     1       3.242   3.820  19.331  0.00  0.00    +0.000 A 
ATOM      7  C   UNL     1       2.557   3.806  20.556  0.00  0.00    +0.000 A 
ATOM      8  C   UNL     1       1.312   3.171  20.692  0.00  0.00    +0.000 A 
ATOM      9  C   UNL     1       0.754   2.484  19.619  0.00  0.00    +0.000 A 
ATOM     10  C   UNL     1       1.446   2.426  18.414  0.00  0.00    +0.000 A 
ATOM     11  C   UNL     1       2.668   3.091  18.276  0.00  0.00    +0.000 A 
ATOM     12  F   UNL     1       3.271   3.028  17.079  0.00  0.00    +0.000 F 
ENDBRANCH   4   6
BRANCH   1  13
ATOM     13  S   UNL     1       6.902   7.131  17.420  0.00  0.00    +0.000 S 
BRANCH  13  14
ATOM     14  C   UNL     1       8.266   7.659  18.513  0.00  0.00    +0.000 C 
BRANCH  14  16
ATOM     15  N   UNL     1       9.345   9.752  19.278  0.00  0.00    +0.000 N 
ATOM     16  C   UNL     1       8.463   9.178  18.379  0.00  0.00    +0.000 C 
ATOM     17  O   UNL     1       7.870   9.847  17.533  0.00  0.00    +0.000 OA
ATOM     18  H   UNL     1       9.775   9.182  19.993  0.00  0.00    +0.000 HD
BRANCH  15  20
ATOM     19  C   UNL     1      11.190  11.404  19.107  0.00  0.00    +0.000 C 
ATOM     20  C   UNL     1       9.679  11.177  19.242  0.00  0.00    +0.000 C 
BRANCH  20  21
ATOM     21  C   UNL     1       9.131  11.896  20.468  0.00  0.00    +0.000 A 
ATOM     22  C   UNL     1       8.875  11.206  21.681  0.00  0.00    +0.000 A 
ATOM     23  C   UNL     1       8.394  11.879  22.811  0.00  0.00    +0.000 A 
ATOM     24  C   UNL     1       8.179  13.237  22.714  0.00  0.00    +0.000 A 
ATOM     25  C   UNL     1       8.429  13.919  21.548  0.00  0.00    +0.000 A 
ATOM     26  C   UNL     1       8.895  13.283  20.414  0.00  0.00    +0.000 A 
ATOM     27  O   UNL     1       8.169  15.249  21.664  0.00  0.00    +0.000 OA
ATOM     28  C   UNL     1       7.776  15.329  23.050  0.00  0.00    +0.000 C 
ATOM     29  O   UNL     1       7.733  14.045  23.708  0.00  0.00    +0.000 OA
ENDBRANCH  20  21
ENDBRANCH  15  20
ENDBRANCH  14  16
ENDBRANCH  13  14
ENDBRANCH   1  13
BRANCH   5  30
ATOM     30  C   UNL     1       3.766   6.345  17.430  0.00  0.00    +0.000 C 
BRANCH  30  31
ATOM     31  C   UNL     1       2.921   7.348  18.192  0.00  0.00    +0.000 A 
ATOM     32  C   UNL     1       2.552   7.062  19.520  0.00  0.00    +0.000 A 
ATOM     33  C   UNL     1       1.723   7.934  20.231  0.00  0.00    +0.000 A 
ATOM     34  C   UNL     1       1.274   9.108  19.637  0.00  0.00    +0.000 A 
ATOM     35  C   UNL     1       1.675   9.428  18.341  0.00  0.00    +0.000 A 
ATOM     36  C   UNL     1       2.506   8.559  17.628  0.00  0.00    +0.000 A 
ENDBRANCH  30  31
ENDBRANCH   5  30
TORSDOF 8
ENDMDL
MODEL 4
REMARK VINA RESULT:      -8.5      1.043      1.312
REMARK  Name = 
REMARK  9 active torsions:
REMARK  status: ('A' for Active; 'I' for Inactive)
REMARK    1  A    between atoms: C_1  and  C_2
REMARK    2  A    between atoms: C_2  and  N_3
REMARK    3  A    between atoms: C_2  and  C_27
REMARK    4  A    between atoms: C_4  and  C_6
REMARK    5  A    between atoms: C_6  and  S_7
REMARK    6  A    between atoms: S_7  and  C_8
REMARK    7  A    between atoms: C_11  and  C_12
REMARK    8  A    between atoms: N_19  and  C_20
REMARK    9  A    between atoms: C_20  and  C_21
REMARK                            x       y       z     vdW  Elec       q    Type
REMARK                         _______ _______ _______ _____ _____    ______ ____
ROOT
ATOM      1  C   UNL     1       0.596   9.989  21.096  0.00  0.00    +0.000 A 
ATOM      2  N   UNL     1       0.669   9.753  22.382  0.00  0.00    +0.000 NA
ATOM      3  N   UNL     1      -0.011  10.755  23.029  0.00  0.00    +0.000 NA
ATOM      4  C   UNL     1      -0.499  11.608  22.141  0.00  0.00    +0.000 A 
ATOM      5  N   UNL     1      -0.120  11.148  20.880  0.00  0.00    +0.000 N 
ENDROOT
BRANCH   4   6
ATOM      6  C   UNL     1      -1.363  12.762  22.471  0.00  0.00    +0.000 A 
ATOM      7  C   UNL     1      -1.064  14.081  22.094  0.00  0.00    +0.000 A 
ATOM      8  C   UNL     1      -1.959  15.135  22.341  0.00  0.00    +0.000 A 
ATOM      9  C   UNL     1      -3.148  14.899  23.025  0.00  0.00    +0.000 A 
ATOM     10  C   UNL     1      -3.435  13.613  23.468  0.00  0.00    +0.000 A 
ATOM     11  C   UNL     1      -2.555  12.563  23.187  0.00  0.00    +0.000 A 
ATOM     12  F   UNL     1      -2.904  11.338  23.610  0.00  0.00    +0.000 F 
ENDBRANCH   4   6
BRANCH   1  13
ATOM     13  S   UNL     1       1.278   9.007  19.838  0.00  0.00    +0.000 S 
BRANCH  13  14
ATOM     14  C   UNL     1       1.952   7.559  20.724  0.00  0.00    +0.000 C 
BRANCH  14  16
ATOM     15  N   UNL     1       2.864   5.311  20.231  0.00  0.00    +0.000 N 
ATOM     16  C   UNL     1       2.285   6.455  19.709  0.00  0.00    +0.000 C 
ATOM     17  O   UNL     1       2.062   6.577  18.505  0.00  0.00    +0.000 OA
ATOM     18  H   UNL     1       3.081   5.264  21.218  0.00  0.00    +0.000 HD
BRANCH  15  20
ATOM     19  C   UNL     1       3.392   2.886  20.244  0.00  0.00    +0.000 C 
ATOM     20  C   UNL     1       3.189   4.151  19.401  0.00  0.00    +0.000 C 
BRANCH  20  21
ATOM     21  C   UNL     1       4.414   4.426  18.536  0.00  0.00    +0.000 A 
ATOM     22  C   UNL     1       5.634   4.878  19.100  0.00  0.00    +0.000 A 
ATOM     23  C   UNL     1       6.762   5.106  18.301  0.00  0.00    +0.000 A 
ATOM     24  C   UNL     1       6.654   4.874  16.947  0.00  0.00    +0.000 A 
ATOM     25  C   UNL     1       5.480   4.430  16.388  0.00  0.00    +0.000 A 
ATOM     26  C   UNL     1       4.349   4.204  17.147  0.00  0.00    +0.000 A 
ATOM     27  O   UNL     1       5.586   4.247  15.044  0.00  0.00    +0.000 OA
ATOM     28  C   UNL     1       6.975   4.580  14.834  0.00  0.00    +0.000 C 
ATOM     29  O   UNL     1       7.645   5.027  16.032  0.00  0.00    +0.000 OA
ENDBRANCH  20  21
ENDBRANCH  15  20
ENDBRANCH  14  16
ENDBRANCH  13  14
ENDBRANCH   1  13
BRANCH   5  30
ATOM     30  C   UNL     1      -0.380  11.771  19.587  0.00  0.00    +0.000 C 
BRANCH  30  31
ATOM     31  C   UNL     1      -1.688  11.361  18.938  0.00  0.00    +0.000 A 
ATOM     32  C   UNL     1      -2.854  12.095  19.226  0.00  0.00    +0.000 A 
ATOM     33  C   UNL     1      -4.087  11.708  18.695  0.00  0.00    +0.000 A 
ATOM     34  C   UNL     1      -4.167  10.602  17.855  0.00  0.00    +0.000 A 
ATOM     35  C   UNL     1      -3.012   9.898  17.521  0.00  0.00    +0.000 A 
ATOM     36  C   UNL     1      -1.777  10.285  18.048  0.00  0.00    +0.000 A 
ENDBRANCH  30  31
ENDBRANCH   5  30
TORSDOF 8
ENDMDL
MODEL 5
REMARK VINA RESULT:      -8.5      6.095      9.573
REMARK  Name = 
REMARK  9 active torsions:
REMARK  status: ('A' for Active; 'I' for Inactive)
REMARK    1  A    between atoms: C_1  and  C_2
REMARK    2  A    between atoms: C_2  and  N_3
REMARK    3  A    between atoms: C_2  and  C_27
REMARK    4  A    between atoms: C_4  and  C_6
REMARK    5  A    between atoms: C_6  and  S_7
REMARK    6  A    between atoms: S_7  and  C_8
REMARK    7  A    between atoms: C_11  and  C_12
REMARK    8  A    between atoms: N_19  and  C_20
REMARK    9  A    between atoms: C_20  and  C_21
REMARK                            x       y       z     vdW  Elec       q    Type
REMARK                         _______ _______ _______ _____ _____    ______ ____
ROOT
ATOM      1  C   UNL     1       6.246   6.183  18.212  0.00  0.00    +0.000 A 
ATOM      2  N   UNL     1       6.855   5.325  18.991  0.00  0.00    +0.000 NA
ATOM      3  N   UNL     1       5.946   4.353  19.331  0.00  0.00    +0.000 NA
ATOM      4  C   UNL     1       4.780   4.615  18.763  0.00  0.00    +0.000 A 
ATOM      5  N   UNL     1       4.933   5.795  18.036  0.00  0.00    +0.000 N 
ENDROOT
BRANCH   4   6
ATOM      6  C   UNL     1       3.593   3.734  18.835  0.00  0.00    +0.000 A 
ATOM      7  C   UNL     1       3.174   2.918  17.772  0.00  0.00    +0.000 A 
ATOM      8  C   UNL     1       2.101   2.023  17.915  0.00  0.00    +0.000 A 
ATOM      9  C   UNL     1       1.386   1.970  19.108  0.00  0.00    +0.000 A 
ATOM     10  C   UNL     1       1.740   2.817  20.152  0.00  0.00    +0.000 A 
ATOM     11  C   UNL     1       2.831   3.681  20.014  0.00  0.00    +0.000 A 
ATOM     12  F   UNL     1       3.145   4.448  21.069  0.00  0.00    +0.000 F 
ENDBRANCH   4   6
BRANCH   1  13
ATOM     13  S   UNL     1       6.958   7.592  17.491  0.00  0.00    +0.000 S 
BRANCH  13  14
ATOM     14  C   UNL     1       8.376   7.974  18.577  0.00  0.00    +0.000 C 
BRANCH  14  16
ATOM     15  N   UNL     1       9.518   9.970  19.495  0.00  0.00    +0.000 N 
ATOM     16  C   UNL     1       8.664   9.483  18.520  0.00  0.00    +0.000 C 
ATOM     17  O   UNL     1       8.163  10.218  17.671  0.00  0.00    +0.000 OA
ATOM     18  H   UNL     1       9.871   9.348  20.210  0.00  0.00    +0.000 HD
BRANCH  15  20
ATOM     19  C   UNL     1      11.450  11.525  19.387  0.00  0.00    +0.000 C 
ATOM     20  C   UNL     1       9.931  11.373  19.541  0.00  0.00    +0.000 C 
BRANCH  20  21
ATOM     21  C   UNL     1       9.447  12.042  20.822  0.00  0.00    +0.000 A 
ATOM     22  C   UNL     1       8.689  11.332  21.789  0.00  0.00    +0.000 A 
ATOM     23  C   UNL     1       8.269  11.947  22.975  0.00  0.00    +0.000 A 
ATOM     24  C   UNL     1       8.617  13.266  23.180  0.00  0.00    +0.000 A 
ATOM     25  C   UNL     1       9.357  13.962  22.255  0.00  0.00    +0.000 A 
ATOM     26  C   UNL     1       9.778  13.387  21.073  0.00  0.00    +0.000 A 
ATOM     27  O   UNL     1       9.607  15.239  22.653  0.00  0.00    +0.000 OA
ATOM     28  C   UNL     1       8.983  15.245  23.954  0.00  0.00    +0.000 C 
ATOM     29  O   UNL     1       8.309  14.009  24.272  0.00  0.00    +0.000 OA
ENDBRANCH  20  21
ENDBRANCH  15  20
ENDBRANCH  14  16
ENDBRANCH  13  14
ENDBRANCH   1  13
BRANCH   5  30
ATOM     30  C   UNL     1       3.918   6.514  17.274  0.00  0.00    +0.000 C 
BRANCH  30  31
ATOM     31  C   UNL     1       2.981   7.363  18.112  0.00  0.00    +0.000 A 
ATOM     32  C   UNL     1       2.463   8.552  17.565  0.00  0.00    +0.000 A 
ATOM     33  C   UNL     1       1.647   9.390  18.329  0.00  0.00    +0.000 A 
ATOM     34  C   UNL     1       1.320   9.041  19.635  0.00  0.00    +0.000 A 
ATOM     35  C   UNL     1       1.784   7.842  20.170  0.00  0.00    +0.000 A 
ATOM     36  C   UNL     1       2.598   7.000  19.407  0.00  0.00    +0.000 A 
ENDBRANCH  30  31
ENDBRANCH   5  30
TORSDOF 8
ENDMDL
MODEL 6
REMARK VINA RESULT:      -8.5      1.019      1.305
REMARK  Name = 
REMARK  9 active torsions:
REMARK  status: ('A' for Active; 'I' for Inactive)
REMARK    1  A    between atoms: C_1  and  C_2
REMARK    2  A    between atoms: C_2  and  N_3
REMARK    3  A    between atoms: C_2  and  C_27
REMARK    4  A    between atoms: C_4  and  C_6
REMARK    5  A    between atoms: C_6  and  S_7
REMARK    6  A    between atoms: S_7  and  C_8
REMARK    7  A    between atoms: C_11  and  C_12
REMARK    8  A    between atoms: N_19  and  C_20
REMARK    9  A    between atoms: C_20  and  C_21
REMARK                            x       y       z     vdW  Elec       q    Type
REMARK                         _______ _______ _______ _____ _____    ______ ____
ROOT
ATOM      1  C   UNL     1       1.117   8.961  21.180  0.00  0.00    +0.000 A 
ATOM      2  N   UNL     1       0.966   8.800  22.471  0.00  0.00    +0.000 NA
ATOM      3  N   UNL     1       0.414   9.953  22.973  0.00  0.00    +0.000 NA
ATOM      4  C   UNL     1       0.228  10.822  21.991  0.00  0.00    +0.000 A 
ATOM      5  N   UNL     1       0.678  10.218  20.818  0.00  0.00    +0.000 N 
ENDROOT
BRANCH   4   6
ATOM      6  C   UNL     1      -0.431  12.138  22.147  0.00  0.00    +0.000 A 
ATOM      7  C   UNL     1       0.139  13.341  21.704  0.00  0.00    +0.000 A 
ATOM      8  C   UNL     1      -0.561  14.556  21.781  0.00  0.00    +0.000 A 
ATOM      9  C   UNL     1      -1.825  14.600  22.361  0.00  0.00    +0.000 A 
ATOM     10  C   UNL     1      -2.383  13.433  22.869  0.00  0.00    +0.000 A 
ATOM     11  C   UNL     1      -1.693  12.221  22.756  0.00  0.00    +0.000 A 
ATOM     12  F   UNL     1      -2.299  11.123  23.233  0.00  0.00    +0.000 F 
ENDBRANCH   4   6
BRANCH   1  13
ATOM     13  S   UNL     1       1.759   7.788  20.073  0.00  0.00    +0.000 S 
BRANCH  13  14
ATOM     14  C   UNL     1       1.584   6.202  20.961  0.00  0.00    +0.000 C 
BRANCH  14  16
ATOM     15  N   UNL     1       3.278   4.916  19.693  0.00  0.00    +0.000 N 
ATOM     16  C   UNL     1       1.936   5.048  20.009  0.00  0.00    +0.000 C 
ATOM     17  O   UNL     1       1.083   4.291  19.546  0.00  0.00    +0.000 OA
ATOM     18  H   UNL     1       3.945   5.587  20.049  0.00  0.00    +0.000 HD
BRANCH  15  20
ATOM     19  C   UNL     1       4.310   2.659  19.672  0.00  0.00    +0.000 C 
ATOM     20  C   UNL     1       3.777   3.835  18.843  0.00  0.00    +0.000 C 
BRANCH  20  21
ATOM     21  C   UNL     1       4.842   4.346  17.881  0.00  0.00    +0.000 A 
ATOM     22  C   UNL     1       5.930   5.137  18.330  0.00  0.00    +0.000 A 
ATOM     23  C   UNL     1       6.918   5.583  17.443  0.00  0.00    +0.000 A 
ATOM     24  C   UNL     1       6.805   5.226  16.116  0.00  0.00    +0.000 A 
ATOM     25  C   UNL     1       5.760   4.455  15.668  0.00  0.00    +0.000 A 
ATOM     26  C   UNL     1       4.767   4.008  16.516  0.00  0.00    +0.000 A 
ATOM     27  O   UNL     1       5.842   4.202  14.334  0.00  0.00    +0.000 OA
ATOM     28  C   UNL     1       7.084   4.862  14.008  0.00  0.00    +0.000 C 
ATOM     29  O   UNL     1       7.674   5.556  15.127  0.00  0.00    +0.000 OA
ENDBRANCH  20  21
ENDBRANCH  15  20
ENDBRANCH  14  16
ENDBRANCH  13  14
ENDBRANCH   1  13
BRANCH   5  30
ATOM     30  C   UNL     1       0.724  10.792  19.478  0.00  0.00    +0.000 C 
BRANCH  30  31
ATOM     31  C   UNL     1      -0.595  10.762  18.730  0.00  0.00    +0.000 A 
ATOM     32  C   UNL     1      -1.555  11.757  18.996  0.00  0.00    +0.000 A 
ATOM     33  C   UNL     1      -2.804  11.725  18.372  0.00  0.00    +0.000 A 
ATOM     34  C   UNL     1      -3.102  10.717  17.461  0.00  0.00    +0.000 A 
ATOM     35  C   UNL     1      -2.142   9.756  17.151  0.00  0.00    +0.000 A 
ATOM     36  C   UNL     1      -0.890   9.788  17.772  0.00  0.00    +0.000 A 
ENDBRANCH  30  31
ENDBRANCH   5  30
TORSDOF 8
ENDMDL
MODEL 7
REMARK VINA RESULT:      -8.3      3.805      9.563
REMARK  Name = 
REMARK  9 active torsions:
REMARK  status: ('A' for Active; 'I' for Inactive)
REMARK    1  A    between atoms: C_1  and  C_2
REMARK    2  A    between atoms: C_2  and  N_3
REMARK    3  A    between atoms: C_2  and  C_27
REMARK    4  A    between atoms: C_4  and  C_6
REMARK    5  A    between atoms: C_6  and  S_7
REMARK    6  A    between atoms: S_7  and  C_8
REMARK    7  A    between atoms: C_11  and  C_12
REMARK    8  A    between atoms: N_19  and  C_20
REMARK    9  A    between atoms: C_20  and  C_21
REMARK                            x       y       z     vdW  Elec       q    Type
REMARK                         _______ _______ _______ _____ _____    ______ ____
ROOT
ATOM      1  C   UNL     1       2.181   7.573  19.370  0.00  0.00    +0.000 A 
ATOM      2  N   UNL     1       2.241   8.439  18.389  0.00  0.00    +0.000 NA
ATOM      3  N   UNL     1       3.187   7.993  17.499  0.00  0.00    +0.000 NA
ATOM      4  C   UNL     1       3.707   6.856  17.933  0.00  0.00    +0.000 A 
ATOM      5  N   UNL     1       3.086   6.557  19.145  0.00  0.00    +0.000 N 
ENDROOT
BRANCH   4   6
ATOM      6  C   UNL     1       4.691   6.042  17.185  0.00  0.00    +0.000 A 
ATOM      7  C   UNL     1       4.364   4.839  16.540  0.00  0.00    +0.000 A 
ATOM      8  C   UNL     1       5.304   4.148  15.758  0.00  0.00    +0.000 A 
ATOM      9  C   UNL     1       6.609   4.616  15.654  0.00  0.00    +0.000 A 
ATOM     10  C   UNL     1       6.976   5.769  16.339  0.00  0.00    +0.000 A 
ATOM     11  C   UNL     1       6.025   6.471  17.088  0.00  0.00    +0.000 A 
ATOM     12  F   UNL     1       6.430   7.595  17.697  0.00  0.00    +0.000 F 
ENDBRANCH   4   6
BRANCH   1  13
ATOM     13  S   UNL     1       1.128   7.663  20.747  0.00  0.00    +0.000 S 
BRANCH  13  14
ATOM     14  C   UNL     1       1.718   9.131  21.659  0.00  0.00    +0.000 C 
BRANCH  14  16
ATOM     15  N   UNL     1       0.762  10.773  20.071  0.00  0.00    +0.000 N 
ATOM     16  C   UNL     1       0.777  10.313  21.377  0.00  0.00    +0.000 C 
ATOM     17  O   UNL     1       0.084  10.828  22.254  0.00  0.00    +0.000 OA
ATOM     18  H   UNL     1       1.382  10.361  19.387  0.00  0.00    +0.000 HD
BRANCH  15  20
ATOM     19  C   UNL     1      -1.056  11.407  18.504  0.00  0.00    +0.000 C 
ATOM     20  C   UNL     1      -0.121  11.855  19.635  0.00  0.00    +0.000 C 
BRANCH  20  21
ATOM     21  C   UNL     1       0.684  13.080  19.218  0.00  0.00    +0.000 A 
ATOM     22  C   UNL     1       0.113  14.379  19.219  0.00  0.00    +0.000 A 
ATOM     23  C   UNL     1       0.866  15.502  18.857  0.00  0.00    +0.000 A 
ATOM     24  C   UNL     1       2.185  15.312  18.502  0.00  0.00    +0.000 A 
ATOM     25  C   UNL     1       2.752  14.061  18.503  0.00  0.00    +0.000 A 
ATOM     26  C   UNL     1       2.034  12.933  18.846  0.00  0.00    +0.000 A 
ATOM     27  O   UNL     1       4.063  14.090  18.139  0.00  0.00    +0.000 OA
ATOM     28  C   UNL     1       4.263  15.508  17.959  0.00  0.00    +0.000 C 
ATOM     29  O   UNL     1       3.060  16.284  18.140  0.00  0.00    +0.000 OA
ENDBRANCH  20  21
ENDBRANCH  15  20
ENDBRANCH  14  16
ENDBRANCH  13  14
ENDBRANCH   1  13
BRANCH   5  30
ATOM     30  C   UNL     1       3.353   5.429  20.031  0.00  0.00    +0.000 C 
BRANCH  30  31
ATOM     31  C   UNL     1       2.760   4.110  19.573  0.00  0.00    +0.000 A 
ATOM     32  C   UNL     1       1.362   3.989  19.465  0.00  0.00    +0.000 A 
ATOM     33  C   UNL     1       0.779   2.772  19.106  0.00  0.00    +0.000 A 
ATOM     34  C   UNL     1       1.582   1.671  18.828  0.00  0.00    +0.000 A 
ATOM     35  C   UNL     1       2.969   1.792  18.880  0.00  0.00    +0.000 A 
ATOM     36  C   UNL     1       3.555   3.010  19.236  0.00  0.00    +0.000 A 
ENDBRANCH  30  31
ENDBRANCH   5  30
TORSDOF 8
ENDMDL
MODEL 8
REMARK VINA RESULT:      -8.3      3.698     10.606
REMARK  Name = 
REMARK  9 active torsions:
REMARK  status: ('A' for Active; 'I' for Inactive)
REMARK    1  A    between atoms: C_1  and  C_2
REMARK    2  A    between atoms: C_2  and  N_3
REMARK    3  A    between atoms: C_2  and  C_27
REMARK    4  A    between atoms: C_4  and  C_6
REMARK    5  A    between atoms: C_6  and  S_7
REMARK    6  A    between atoms: S_7  and  C_8
REMARK    7  A    between atoms: C_11  and  C_12
REMARK    8  A    between atoms: N_19  and  C_20
REMARK    9  A    between atoms: C_20  and  C_21
REMARK                            x       y       z     vdW  Elec       q    Type
REMARK                         _______ _______ _______ _____ _____    ______ ____
ROOT
ATOM      1  C   UNL     1       2.271   8.168  18.806  0.00  0.00    +0.000 A 
ATOM      2  N   UNL     1       1.758   7.866  19.972  0.00  0.00    +0.000 NA
ATOM      3  N   UNL     1       1.870   6.508  20.138  0.00  0.00    +0.000 NA
ATOM      4  C   UNL     1       2.451   5.975  19.074  0.00  0.00    +0.000 A 
ATOM      5  N   UNL     1       2.718   7.018  18.188  0.00  0.00    +0.000 N 
ENDROOT
BRANCH   4   6
ATOM      6  C   UNL     1       2.816   4.547  18.941  0.00  0.00    +0.000 A 
ATOM      7  C   UNL     1       1.973   3.588  18.358  0.00  0.00    +0.000 A 
ATOM      8  C   UNL     1       2.396   2.263  18.162  0.00  0.00    +0.000 A 
ATOM      9  C   UNL     1       3.652   1.857  18.601  0.00  0.00    +0.000 A 
ATOM     10  C   UNL     1       4.478   2.772  19.243  0.00  0.00    +0.000 A 
ATOM     11  C   UNL     1       4.064   4.098  19.403  0.00  0.00    +0.000 A 
ATOM     12  F   UNL     1       4.920   4.942  19.998  0.00  0.00    +0.000 F 
ENDBRANCH   4   6
BRANCH   1  13
ATOM     13  S   UNL     1       2.392   9.760  18.124  0.00  0.00    +0.000 S 
BRANCH  13  14
ATOM     14  C   UNL     1       0.801  10.546  18.558  0.00  0.00    +0.000 C 
BRANCH  14  16
ATOM     15  N   UNL     1       0.049  10.465  20.915  0.00  0.00    +0.000 N 
ATOM     16  C   UNL     1       0.878  11.084  19.995  0.00  0.00    +0.000 C 
ATOM     17  O   UNL     1       1.621  12.012  20.313  0.00  0.00    +0.000 OA
ATOM     18  H   UNL     1      -0.587   9.741  20.610  0.00  0.00    +0.000 HD
BRANCH  15  20
ATOM     19  C   UNL     1      -0.093   9.596  23.235  0.00  0.00    +0.000 C 
ATOM     20  C   UNL     1       0.047  10.828  22.332  0.00  0.00    +0.000 C 
BRANCH  20  21
ATOM     21  C   UNL     1      -1.047  11.846  22.633  0.00  0.00    +0.000 A 
ATOM     22  C   UNL     1      -0.907  13.212  22.277  0.00  0.00    +0.000 A 
ATOM     23  C   UNL     1      -1.927  14.137  22.536  0.00  0.00    +0.000 A 
ATOM     24  C   UNL     1      -3.077  13.680  23.143  0.00  0.00    +0.000 A 
ATOM     25  C   UNL     1      -3.229  12.358  23.486  0.00  0.00    +0.000 A 
ATOM     26  C   UNL     1      -2.238  11.425  23.253  0.00  0.00    +0.000 A 
ATOM     27  O   UNL     1      -4.438  12.110  24.058  0.00  0.00    +0.000 OA
ATOM     28  C   UNL     1      -5.045  13.418  23.987  0.00  0.00    +0.000 C 
ATOM     29  O   UNL     1      -4.165  14.429  23.451  0.00  0.00    +0.000 OA
ENDBRANCH  20  21
ENDBRANCH  15  20
ENDBRANCH  14  16
ENDBRANCH  13  14
ENDBRANCH   1  13
BRANCH   5  30
ATOM     30  C   UNL     1       3.309   6.931  16.857  0.00  0.00    +0.000 C 
BRANCH  30  31
ATOM     31  C   UNL     1       4.672   6.266  16.812  0.00  0.00    +0.000 A 
ATOM     32  C   UNL     1       4.820   5.056  16.108  0.00  0.00    +0.000 A 
ATOM     33  C   UNL     1       6.044   4.385  16.097  0.00  0.00    +0.000 A 
ATOM     34  C   UNL     1       7.139   4.923  16.766  0.00  0.00    +0.000 A 
ATOM     35  C   UNL     1       7.019   6.145  17.423  0.00  0.00    +0.000 A 
ATOM     36  C   UNL     1       5.795   6.821  17.433  0.00  0.00    +0.000 A 
ENDBRANCH  30  31
ENDBRANCH   5  30
TORSDOF 8
ENDMDL
MODEL 9
REMARK VINA RESULT:      -8.3      3.898      9.859
REMARK  Name = 
REMARK  9 active torsions:
REMARK  status: ('A' for Active; 'I' for Inactive)
REMARK    1  A    between atoms: C_1  and  C_2
REMARK    2  A    between atoms: C_2  and  N_3
REMARK    3  A    between atoms: C_2  and  C_27
REMARK    4  A    between atoms: C_4  and  C_6
REMARK    5  A    between atoms: C_6  and  S_7
REMARK    6  A    between atoms: S_7  and  C_8
REMARK    7  A    between atoms: C_11  and  C_12
REMARK    8  A    between atoms: N_19  and  C_20
REMARK    9  A    between atoms: C_20  and  C_21
REMARK                            x       y       z     vdW  Elec       q    Type
REMARK                         _______ _______ _______ _____ _____    ______ ____
ROOT
ATOM      1  C   UNL     1       2.079   7.509  19.497  0.00  0.00    +0.000 A 
ATOM      2  N   UNL     1       2.123   8.407  18.544  0.00  0.00    +0.000 NA
ATOM      3  N   UNL     1       3.130   8.048  17.682  0.00  0.00    +0.000 NA
ATOM      4  C   UNL     1       3.704   6.933  18.105  0.00  0.00    +0.000 A 
ATOM      5  N   UNL     1       3.055   6.559  19.281  0.00  0.00    +0.000 N 
ENDROOT
BRANCH   4   6
ATOM      6  C   UNL     1       4.767   6.206  17.377  0.00  0.00    +0.000 A 
ATOM      7  C   UNL     1       6.104   6.632  17.339  0.00  0.00    +0.000 A 
ATOM      8  C   UNL     1       7.101   5.861  16.719  0.00  0.00    +0.000 A 
ATOM      9  C   UNL     1       6.769   4.675  16.072  0.00  0.00    +0.000 A 
ATOM     10  C   UNL     1       5.441   4.266  16.037  0.00  0.00    +0.000 A 
ATOM     11  C   UNL     1       4.459   5.022  16.687  0.00  0.00    +0.000 A 
ATOM     12  F   UNL     1       3.201   4.558  16.649  0.00  0.00    +0.000 F 
ENDBRANCH   4   6
BRANCH   1  13
ATOM     13  S   UNL     1       0.967   7.490  20.830  0.00  0.00    +0.000 S 
BRANCH  13  14
ATOM     14  C   UNL     1       1.471   8.924  21.844  0.00  0.00    +0.000 C 
BRANCH  14  16
ATOM     15  N   UNL     1       1.063  10.818  20.303  0.00  0.00    +0.000 N 
ATOM     16  C   UNL     1       0.637  10.149  21.437  0.00  0.00    +0.000 C 
ATOM     17  O   UNL     1      -0.344  10.522  22.081  0.00  0.00    +0.000 OA
ATOM     18  H   UNL     1       1.903  10.516  19.828  0.00  0.00    +0.000 HD
BRANCH  15  20
ATOM     19  C   UNL     1       0.057  13.023  20.838  0.00  0.00    +0.000 C 
ATOM     20  C   UNL     1       0.343  11.970  19.759  0.00  0.00    +0.000 C 
BRANCH  20  21
ATOM     21  C   UNL     1      -0.946  11.533  19.074  0.00  0.00    +0.000 A 
ATOM     22  C   UNL     1      -0.966  10.462  18.144  0.00  0.00    +0.000 A 
ATOM     23  C   UNL     1      -2.160  10.051  17.537  0.00  0.00    +0.000 A 
ATOM     24  C   UNL     1      -3.320  10.715  17.873  0.00  0.00    +0.000 A 
ATOM     25  C   UNL     1      -3.316  11.749  18.777  0.00  0.00    +0.000 A 
ATOM     26  C   UNL     1      -2.156  12.184  19.385  0.00  0.00    +0.000 A 
ATOM     27  O   UNL     1      -4.561  12.258  18.982  0.00  0.00    +0.000 OA
ATOM     28  C   UNL     1      -5.351  11.392  18.141  0.00  0.00    +0.000 C 
ATOM     29  O   UNL     1      -4.560  10.441  17.395  0.00  0.00    +0.000 OA
ENDBRANCH  20  21
ENDBRANCH  15  20
ENDBRANCH  14  16
ENDBRANCH  13  14
ENDBRANCH   1  13
BRANCH   5  30
ATOM     30  C   UNL     1       3.357   5.423  20.146  0.00  0.00    +0.000 C 
BRANCH  30  31
ATOM     31  C   UNL     1       2.802   4.097  19.665  0.00  0.00    +0.000 A 
ATOM     32  C   UNL     1       1.418   3.979  19.432  0.00  0.00    +0.000 A 
ATOM     33  C   UNL     1       0.863   2.755  19.049  0.00  0.00    +0.000 A 
ATOM     34  C   UNL     1       1.682   1.645  18.871  0.00  0.00    +0.000 A 
ATOM     35  C   UNL     1       3.059   1.761  19.049  0.00  0.00    +0.000 A 
ATOM     36  C   UNL     1       3.617   2.985  19.429  0.00  0.00    +0.000 A 
ENDBRANCH  30  31
ENDBRANCH   5  30
TORSDOF 8
ENDMDL
