MODEL 1
REMARK VINA RESULT:      -8.7      0.000      0.000
REMARK  Name = 
REMARK  5 active torsions:
REMARK  status: ('A' for Active; 'I' for Inactive)
REMARK    1  A    between atoms: C_1  and  C_2
REMARK    2  A    between atoms: C_2  and  N_3
REMARK    3  A    between atoms: C_2  and  C_23
REMARK    4  A    between atoms: C_4  and  C_6
REMARK    5  A    between atoms: C_6  and  N_7
REMARK                            x       y       z     vdW  Elec       q    Type
REMARK                         _______ _______ _______ _____ _____    ______ ____
ROOT
ATOM      1  N   UNL     1       5.674   4.887  17.400  0.00  0.00    +0.000 N 
ATOM      2  C   UNL     1       6.335   4.684  18.569  0.00  0.00    +0.000 C 
ATOM      3  O   UNL     1       7.360   5.238  18.931  0.00  0.00    +0.000 OA
ATOM      4  N   UNL     1       5.637   3.768  19.318  0.00  0.00    +0.000 N 
ATOM      5  C   UNL     1       4.344   3.450  18.735  0.00  0.00    +0.000 C 
ATOM      6  C   UNL     1       4.173   1.927  18.670  0.00  0.00    +0.000 C 
ATOM      7  C   UNL     1       2.742   1.514  18.339  0.00  0.00    +0.000 C 
ATOM      8  C   UNL     1       1.756   2.065  19.360  0.00  0.00    +0.000 C 
ATOM      9  C   UNL     1       1.971   3.522  19.687  0.00  0.00    +0.000 A 
ATOM     10  C   UNL     1       0.913   4.234  20.276  0.00  0.00    +0.000 A 
ATOM     11  C   UNL     1       1.056   5.577  20.617  0.00  0.00    +0.000 A 
ATOM     12  C   UNL     1       2.263   6.223  20.394  0.00  0.00    +0.000 A 
ATOM     13  C   UNL     1       3.326   5.523  19.824  0.00  0.00    +0.000 A 
ATOM     14  C   UNL     1       3.204   4.166  19.456  0.00  0.00    +0.000 A 
ATOM     15  C   UNL     1       4.555   4.096  17.335  0.00  0.00    +0.000 C 
ATOM     16  O   UNL     1       3.820   3.972  16.365  0.00  0.00    +0.000 OA
ATOM     17  H   UNL     1       5.888   3.586  20.281  0.00  0.00    +0.000 HD
ENDROOT
BRANCH   1  18
ATOM     18  C   UNL     1       6.053   5.880  16.424  0.00  0.00    +0.000 C 
BRANCH  18  20
ATOM     19  N   UNL     1       6.814   5.538  14.105  0.00  0.00    +0.000 N 
ATOM     20  C   UNL     1       7.026   5.231  15.434  0.00  0.00    +0.000 C 
ATOM     21  O   UNL     1       7.887   4.432  15.795  0.00  0.00    +0.000 OA
ATOM     22  H   UNL     1       6.056   6.164  13.852  0.00  0.00    +0.000 HD
BRANCH  19  24
ATOM     23  C   UNL     1       8.004   6.073  12.011  0.00  0.00    +0.000 C 
ATOM     24  C   UNL     1       7.663   5.001  13.052  0.00  0.00    +0.000 C 
BRANCH  24  25
ATOM     25  C   UNL     1       7.026   3.780  12.408  0.00  0.00    +0.000 A 
ATOM     26  C   UNL     1       7.834   2.849  11.732  0.00  0.00    +0.000 A 
ATOM     27  C   UNL     1       7.274   1.723  11.122  0.00  0.00    +0.000 A 
ATOM     28  C   UNL     1       5.902   1.523  11.190  0.00  0.00    +0.000 A 
ATOM     29  F   UNL     1       5.363   0.446  10.603  0.00  0.00    +0.000 F 
ATOM     30  C   UNL     1       5.082   2.423  11.855  0.00  0.00    +0.000 A 
ATOM     31  C   UNL     1       5.641   3.550  12.463  0.00  0.00    +0.000 A 
ENDBRANCH  24  25
ENDBRANCH  19  24
ENDBRANCH  18  20
ENDBRANCH   1  18
TORSDOF 4
ENDMDL
MODEL 2
REMARK VINA RESULT:      -7.7      7.003      9.958
REMARK  Name = 
REMARK  5 active torsions:
REMARK  status: ('A' for Active; 'I' for Inactive)
REMARK    1  A    between atoms: C_1  and  C_2
REMARK    2  A    between atoms: C_2  and  N_3
REMARK    3  A    between atoms: C_2  and  C_23
REMARK    4  A    between atoms: C_4  and  C_6
REMARK    5  A    between atoms: C_6  and  N_7
REMARK                            x       y       z     vdW  Elec       q    Type
REMARK                         _______ _______ _______ _____ _____    ______ ____
ROOT
ATOM      1  N   UNL     1       0.019  10.729  19.968  0.00  0.00    +0.000 N 
ATOM      2  C   UNL     1      -0.605  10.818  18.765  0.00  0.00    +0.000 C 
ATOM      3  O   UNL     1      -1.317   9.971  18.250  0.00  0.00    +0.000 OA
ATOM      4  N   UNL     1      -0.336  12.049  18.218  0.00  0.00    +0.000 N 
ATOM      5  C   UNL     1       0.351  12.928  19.149  0.00  0.00    +0.000 C 
ATOM      6  C   UNL     1       1.574  13.546  18.462  0.00  0.00    +0.000 C 
ATOM      7  C   UNL     1       2.181  14.690  19.269  0.00  0.00    +0.000 C 
ATOM      8  C   UNL     1       1.163  15.793  19.520  0.00  0.00    +0.000 C 
ATOM      9  C   UNL     1      -0.178  15.286  19.988  0.00  0.00    +0.000 A 
ATOM     10  C   UNL     1      -1.042  16.188  20.630  0.00  0.00    +0.000 A 
ATOM     11  C   UNL     1      -2.302  15.784  21.068  0.00  0.00    +0.000 A 
ATOM     12  C   UNL     1      -2.725  14.480  20.854  0.00  0.00    +0.000 A 
ATOM     13  C   UNL     1      -1.882  13.579  20.204  0.00  0.00    +0.000 A 
ATOM     14  C   UNL     1      -0.596  13.958  19.761  0.00  0.00    +0.000 A 
ATOM     15  C   UNL     1       0.731  11.873  20.228  0.00  0.00    +0.000 C 
ATOM     16  O   UNL     1       1.483  12.049  21.176  0.00  0.00    +0.000 OA
ATOM     17  H   UNL     1      -0.821  12.364  17.388  0.00  0.00    +0.000 HD
ENDROOT
BRANCH   1  18
ATOM     18  C   UNL     1      -0.147   9.623  20.881  0.00  0.00    +0.000 C 
BRANCH  18  20
ATOM     19  N   UNL     1       1.319   8.178  19.524  0.00  0.00    +0.000 N 
ATOM     20  C   UNL     1       1.089   8.724  20.771  0.00  0.00    +0.000 C 
ATOM     21  O   UNL     1       1.782   8.446  21.747  0.00  0.00    +0.000 OA
ATOM     22  H   UNL     1       0.687   8.397  18.760  0.00  0.00    +0.000 HD
BRANCH  19  24
ATOM     23  C   UNL     1       3.190   7.717  17.984  0.00  0.00    +0.000 C 
ATOM     24  C   UNL     1       2.458   7.310  19.268  0.00  0.00    +0.000 C 
BRANCH  24  25
ATOM     25  C   UNL     1       2.032   5.851  19.230  0.00  0.00    +0.000 A 
ATOM     26  C   UNL     1       2.033   5.158  18.006  0.00  0.00    +0.000 A 
ATOM     27  C   UNL     1       1.637   3.819  17.940  0.00  0.00    +0.000 A 
ATOM     28  C   UNL     1       1.241   3.168  19.100  0.00  0.00    +0.000 A 
ATOM     29  F   UNL     1       0.858   1.886  19.039  0.00  0.00    +0.000 F 
ATOM     30  C   UNL     1       1.237   3.827  20.322  0.00  0.00    +0.000 A 
ATOM     31  C   UNL     1       1.630   5.165  20.388  0.00  0.00    +0.000 A 
ENDBRANCH  24  25
ENDBRANCH  19  24
ENDBRANCH  18  20
ENDBRANCH   1  18
TORSDOF 4
ENDMDL
MODEL 3
REMARK VINA RESULT:      -7.4     10.251     13.350
REMARK  Name = 
REMARK  5 active torsions:
REMARK  status: ('A' for Active; 'I' for Inactive)
REMARK    1  A    between atoms: C_1  and  C_2
REMARK    2  A    between atoms: C_2  and  N_3
REMARK    3  A    between atoms: C_2  and  C_23
REMARK    4  A    between atoms: C_4  and  C_6
REMARK    5  A    between atoms: C_6  and  N_7
REMARK                            x       y       z     vdW  Elec       q    Type
REMARK                         _______ _______ _______ _____ _____    ______ ____
ROOT
ATOM      1  N   UNL     1      -4.405  13.884  22.117  0.00  0.00    +0.000 N 
ATOM      2  C   UNL     1      -4.121  14.893  21.254  0.00  0.00    +0.000 C 
ATOM      3  O   UNL     1      -3.422  15.867  21.477  0.00  0.00    +0.000 OA
ATOM      4  N   UNL     1      -4.725  14.626  20.048  0.00  0.00    +0.000 N 
ATOM      5  C   UNL     1      -5.304  13.294  20.005  0.00  0.00    +0.000 C 
ATOM      6  C   UNL     1      -6.746  13.379  19.492  0.00  0.00    +0.000 C 
ATOM      7  C   UNL     1      -7.325  12.010  19.148  0.00  0.00    +0.000 C 
ATOM      8  C   UNL     1      -6.483  11.300  18.097  0.00  0.00    +0.000 C 
ATOM      9  C   UNL     1      -5.001  11.347  18.373  0.00  0.00    +0.000 A 
ATOM     10  C   UNL     1      -4.175  10.411  17.729  0.00  0.00    +0.000 A 
ATOM     11  C   UNL     1      -2.796  10.415  17.930  0.00  0.00    +0.000 A 
ATOM     12  C   UNL     1      -2.220  11.366  18.760  0.00  0.00    +0.000 A 
ATOM     13  C   UNL     1      -3.028  12.310  19.393  0.00  0.00    +0.000 A 
ATOM     14  C   UNL     1      -4.428  12.320  19.218  0.00  0.00    +0.000 A 
ATOM     15  C   UNL     1      -5.219  12.953  21.521  0.00  0.00    +0.000 C 
ATOM     16  O   UNL     1      -5.733  11.992  22.075  0.00  0.00    +0.000 OA
ATOM     17  H   UNL     1      -4.521  15.186  19.232  0.00  0.00    +0.000 HD
ENDROOT
BRANCH   1  18
ATOM     18  C   UNL     1      -3.831  13.769  23.437  0.00  0.00    +0.000 C 
BRANCH  18  20
ATOM     19  N   UNL     1      -1.844  12.812  22.338  0.00  0.00    +0.000 N 
ATOM     20  C   UNL     1      -2.308  13.695  23.292  0.00  0.00    +0.000 C 
ATOM     21  O   UNL     1      -1.552  14.323  24.030  0.00  0.00    +0.000 OA
ATOM     22  H   UNL     1      -2.509  12.278  21.787  0.00  0.00    +0.000 HD
BRANCH  19  24
ATOM     23  C   UNL     1       0.054  13.547  20.943  0.00  0.00    +0.000 C 
ATOM     24  C   UNL     1      -0.421  12.640  22.084  0.00  0.00    +0.000 C 
BRANCH  24  25
ATOM     25  C   UNL     1      -0.089  11.181  21.812  0.00  0.00    +0.000 A 
ATOM     26  C   UNL     1      -0.661  10.178  22.615  0.00  0.00    +0.000 A 
ATOM     27  C   UNL     1      -0.366   8.829  22.395  0.00  0.00    +0.000 A 
ATOM     28  C   UNL     1       0.501   8.481  21.369  0.00  0.00    +0.000 A 
ATOM     29  F   UNL     1       0.789   7.189  21.159  0.00  0.00    +0.000 F 
ATOM     30  C   UNL     1       1.076   9.451  20.559  0.00  0.00    +0.000 A 
ATOM     31  C   UNL     1       0.783  10.798  20.780  0.00  0.00    +0.000 A 
ENDBRANCH  24  25
ENDBRANCH  19  24
ENDBRANCH  18  20
ENDBRANCH   1  18
TORSDOF 4
ENDMDL
MODEL 4
REMARK VINA RESULT:      -7.4     10.736     14.035
REMARK  Name = 
REMARK  5 active torsions:
REMARK  status: ('A' for Active; 'I' for Inactive)
REMARK    1  A    between atoms: C_1  and  C_2
REMARK    2  A    between atoms: C_2  and  N_3
REMARK    3  A    between atoms: C_2  and  C_23
REMARK    4  A    between atoms: C_4  and  C_6
REMARK    5  A    between atoms: C_6  and  N_7
REMARK                            x       y       z     vdW  Elec       q    Type
REMARK                         _______ _______ _______ _____ _____    ______ ____
ROOT
ATOM      1  N   UNL     1      -0.051  12.728  19.989  0.00  0.00    +0.000 N 
ATOM      2  C   UNL     1      -0.267  11.689  20.837  0.00  0.00    +0.000 C 
ATOM      3  O   UNL     1       0.161  11.576  21.973  0.00  0.00    +0.000 OA
ATOM      4  N   UNL     1      -1.093  10.781  20.220  0.00  0.00    +0.000 N 
ATOM      5  C   UNL     1      -1.623  11.282  18.963  0.00  0.00    +0.000 C 
ATOM      6  C   UNL     1      -1.422  10.230  17.866  0.00  0.00    +0.000 C 
ATOM      7  C   UNL     1      -2.199  10.556  16.595  0.00  0.00    +0.000 C 
ATOM      8  C   UNL     1      -3.690  10.680  16.872  0.00  0.00    +0.000 C 
ATOM      9  C   UNL     1      -4.014  11.517  18.085  0.00  0.00    +0.000 A 
ATOM     10  C   UNL     1      -5.314  12.036  18.206  0.00  0.00    +0.000 A 
ATOM     11  C   UNL     1      -5.680  12.801  19.312  0.00  0.00    +0.000 A 
ATOM     12  C   UNL     1      -4.759  13.042  20.321  0.00  0.00    +0.000 A 
ATOM     13  C   UNL     1      -3.470  12.520  20.220  0.00  0.00    +0.000 A 
ATOM     14  C   UNL     1      -3.070  11.753  19.105  0.00  0.00    +0.000 A 
ATOM     15  C   UNL     1      -0.694  12.518  18.795  0.00  0.00    +0.000 C 
ATOM     16  O   UNL     1      -0.598  13.219  17.797  0.00  0.00    +0.000 OA
ATOM     17  H   UNL     1      -1.486  10.005  20.736  0.00  0.00    +0.000 HD
ENDROOT
BRANCH   1  18
ATOM     18  C   UNL     1       0.669  13.926  20.352  0.00  0.00    +0.000 C 
BRANCH  18  20
ATOM     19  N   UNL     1      -0.641  14.602  22.327  0.00  0.00    +0.000 N 
ATOM     20  C   UNL     1      -0.316  14.893  21.017  0.00  0.00    +0.000 C 
ATOM     21  O   UNL     1      -0.840  15.818  20.400  0.00  0.00    +0.000 OA
ATOM     22  H   UNL     1      -0.221  13.795  22.778  0.00  0.00    +0.000 HD
BRANCH  19  24
ATOM     23  C   UNL     1      -0.890  15.987  24.353  0.00  0.00    +0.000 C 
ATOM     24  C   UNL     1      -1.559  15.435  23.089  0.00  0.00    +0.000 C 
BRANCH  24  25
ATOM     25  C   UNL     1      -2.836  14.678  23.418  0.00  0.00    +0.000 A 
ATOM     26  C   UNL     1      -2.767  13.318  23.768  0.00  0.00    +0.000 A 
ATOM     27  C   UNL     1      -3.926  12.595  24.065  0.00  0.00    +0.000 A 
ATOM     28  C   UNL     1      -5.158  13.232  24.016  0.00  0.00    +0.000 A 
ATOM     29  F   UNL     1      -6.270  12.540  24.296  0.00  0.00    +0.000 F 
ATOM     30  C   UNL     1      -5.254  14.575  23.678  0.00  0.00    +0.000 A 
ATOM     31  C   UNL     1      -4.096  15.297  23.378  0.00  0.00    +0.000 A 
ENDBRANCH  24  25
ENDBRANCH  19  24
ENDBRANCH  18  20
ENDBRANCH   1  18
TORSDOF 4
ENDMDL
MODEL 5
REMARK VINA RESULT:      -7.4      5.856      8.317
REMARK  Name = 
REMARK  5 active torsions:
REMARK  status: ('A' for Active; 'I' for Inactive)
REMARK    1  A    between atoms: C_1  and  C_2
REMARK    2  A    between atoms: C_2  and  N_3
REMARK    3  A    between atoms: C_2  and  C_23
REMARK    4  A    between atoms: C_4  and  C_6
REMARK    5  A    between atoms: C_6  and  N_7
REMARK                            x       y       z     vdW  Elec       q    Type
REMARK                         _______ _______ _______ _____ _____    ______ ____
ROOT
ATOM      1  N   UNL     1       1.060  10.162  19.647  0.00  0.00    +0.000 N 
ATOM      2  C   UNL     1       1.471  11.068  18.724  0.00  0.00    +0.000 C 
ATOM      3  O   UNL     1       2.532  11.064  18.122  0.00  0.00    +0.000 OA
ATOM      4  N   UNL     1       0.473  11.993  18.538  0.00  0.00    +0.000 N 
ATOM      5  C   UNL     1      -0.756  11.623  19.220  0.00  0.00    +0.000 C 
ATOM      6  C   UNL     1      -1.270  12.816  20.034  0.00  0.00    +0.000 C 
ATOM      7  C   UNL     1      -2.692  12.605  20.545  0.00  0.00    +0.000 C 
ATOM      8  C   UNL     1      -3.662  12.352  19.399  0.00  0.00    +0.000 C 
ATOM      9  C   UNL     1      -3.160  11.349  18.390  0.00  0.00    +0.000 A 
ATOM     10  C   UNL     1      -4.096  10.738  17.540  0.00  0.00    +0.000 A 
ATOM     11  C   UNL     1      -3.693   9.817  16.575  0.00  0.00    +0.000 A 
ATOM     12  C   UNL     1      -2.348   9.509  16.432  0.00  0.00    +0.000 A 
ATOM     13  C   UNL     1      -1.407  10.121  17.259  0.00  0.00    +0.000 A 
ATOM     14  C   UNL     1      -1.790  11.047  18.254  0.00  0.00    +0.000 A 
ATOM     15  C   UNL     1      -0.192  10.479  20.112  0.00  0.00    +0.000 C 
ATOM     16  O   UNL     1      -0.781   9.918  21.025  0.00  0.00    +0.000 OA
ATOM     17  H   UNL     1       0.527  12.671  17.790  0.00  0.00    +0.000 HD
ENDROOT
BRANCH   1  18
ATOM     18  C   UNL     1       1.805   8.975  19.998  0.00  0.00    +0.000 C 
BRANCH  18  20
ATOM     19  N   UNL     1       2.671   6.951  18.891  0.00  0.00    +0.000 N 
ATOM     20  C   UNL     1       1.883   8.076  18.760  0.00  0.00    +0.000 C 
ATOM     21  O   UNL     1       1.342   8.379  17.698  0.00  0.00    +0.000 OA
ATOM     22  H   UNL     1       3.140   6.771  19.774  0.00  0.00    +0.000 HD
BRANCH  19  24
ATOM     23  C   UNL     1       1.841   4.841  17.921  0.00  0.00    +0.000 C 
ATOM     24  C   UNL     1       2.835   6.001  17.801  0.00  0.00    +0.000 C 
BRANCH  24  25
ATOM     25  C   UNL     1       4.269   5.501  17.725  0.00  0.00    +0.000 A 
ATOM     26  C   UNL     1       5.123   5.670  18.830  0.00  0.00    +0.000 A 
ATOM     27  C   UNL     1       6.449   5.230  18.784  0.00  0.00    +0.000 A 
ATOM     28  C   UNL     1       6.925   4.617  17.633  0.00  0.00    +0.000 A 
ATOM     29  F   UNL     1       8.196   4.198  17.585  0.00  0.00    +0.000 F 
ATOM     30  C   UNL     1       6.101   4.435  16.530  0.00  0.00    +0.000 A 
ATOM     31  C   UNL     1       4.777   4.876  16.575  0.00  0.00    +0.000 A 
ENDBRANCH  24  25
ENDBRANCH  19  24
ENDBRANCH  18  20
ENDBRANCH   1  18
TORSDOF 4
ENDMDL
MODEL 6
REMARK VINA RESULT:      -7.4      6.331      9.159
REMARK  Name = 
REMARK  5 active torsions:
REMARK  status: ('A' for Active; 'I' for Inactive)
REMARK    1  A    between atoms: C_1  and  C_2
REMARK    2  A    between atoms: C_2  and  N_3
REMARK    3  A    between atoms: C_2  and  C_23
REMARK    4  A    between atoms: C_4  and  C_6
REMARK    5  A    between atoms: C_6  and  N_7
REMARK                            x       y       z     vdW  Elec       q    Type
REMARK                         _______ _______ _______ _____ _____    ______ ____
ROOT
ATOM      1  N   UNL     1       0.733  11.077  20.537  0.00  0.00    +0.000 N 
ATOM      2  C   UNL     1       1.123  12.016  19.637  0.00  0.00    +0.000 C 
ATOM      3  O   UNL     1       2.243  12.159  19.174  0.00  0.00    +0.000 OA
ATOM      4  N   UNL     1       0.032  12.775  19.289  0.00  0.00    +0.000 N 
ATOM      5  C   UNL     1      -1.207  12.237  19.826  0.00  0.00    +0.000 C 
ATOM      6  C   UNL     1      -1.993  13.355  20.520  0.00  0.00    +0.000 C 
ATOM      7  C   UNL     1      -3.423  12.942  20.856  0.00  0.00    +0.000 C 
ATOM      8  C   UNL     1      -4.186  12.521  19.608  0.00  0.00    +0.000 C 
ATOM      9  C   UNL     1      -3.415  11.585  18.712  0.00  0.00    +0.000 A 
ATOM     10  C   UNL     1      -4.132  10.821  17.776  0.00  0.00    +0.000 A 
ATOM     11  C   UNL     1      -3.474   9.951  16.908  0.00  0.00    +0.000 A 
ATOM     12  C   UNL     1      -2.092   9.848  16.947  0.00  0.00    +0.000 A 
ATOM     13  C   UNL     1      -1.368  10.612  17.861  0.00  0.00    +0.000 A 
ATOM     14  C   UNL     1      -2.009  11.491  18.761  0.00  0.00    +0.000 A 
ATOM     15  C   UNL     1      -0.601  11.211  20.827  0.00  0.00    +0.000 C 
ATOM     16  O   UNL     1      -1.216  10.587  21.681  0.00  0.00    +0.000 OA
ATOM     17  H   UNL     1       0.083  13.437  18.527  0.00  0.00    +0.000 HD
ENDROOT
BRANCH   1  18
ATOM     18  C   UNL     1       1.593  10.025  21.026  0.00  0.00    +0.000 C 
BRANCH  18  20
ATOM     19  N   UNL     1       2.033   7.656  20.509  0.00  0.00    +0.000 N 
ATOM     20  C   UNL     1       1.514   8.849  20.047  0.00  0.00    +0.000 C 
ATOM     21  O   UNL     1       1.089   8.981  18.902  0.00  0.00    +0.000 OA
ATOM     22  H   UNL     1       2.421   7.610  21.446  0.00  0.00    +0.000 HD
BRANCH  19  24
ATOM     23  C   UNL     1       1.653   5.219  20.526  0.00  0.00    +0.000 C 
ATOM     24  C   UNL     1       2.021   6.451  19.693  0.00  0.00    +0.000 C 
BRANCH  24  25
ATOM     25  C   UNL     1       3.351   6.265  18.978  0.00  0.00    +0.000 A 
ATOM     26  C   UNL     1       4.337   5.441  19.549  0.00  0.00    +0.000 A 
ATOM     27  C   UNL     1       5.572   5.261  18.919  0.00  0.00    +0.000 A 
ATOM     28  C   UNL     1       5.822   5.903  17.714  0.00  0.00    +0.000 A 
ATOM     29  F   UNL     1       7.006   5.734  17.110  0.00  0.00    +0.000 F 
ATOM     30  C   UNL     1       4.864   6.718  17.127  0.00  0.00    +0.000 A 
ATOM     31  C   UNL     1       3.631   6.900  17.757  0.00  0.00    +0.000 A 
ENDBRANCH  24  25
ENDBRANCH  19  24
ENDBRANCH  18  20
ENDBRANCH   1  18
TORSDOF 4
ENDMDL
MODEL 7
REMARK VINA RESULT:      -7.3      4.197      8.538
REMARK  Name = 
REMARK  5 active torsions:
REMARK  status: ('A' for Active; 'I' for Inactive)
REMARK    1  A    between atoms: C_1  and  C_2
REMARK    2  A    between atoms: C_2  and  N_3
REMARK    3  A    between atoms: C_2  and  C_23
REMARK    4  A    between atoms: C_4  and  C_6
REMARK    5  A    between atoms: C_6  and  N_7
REMARK                            x       y       z     vdW  Elec       q    Type
REMARK                         _______ _______ _______ _____ _____    ______ ____
ROOT
ATOM      1  N   UNL     1       3.582   4.579  19.123  0.00  0.00    +0.000 N 
ATOM      2  C   UNL     1       4.276   3.452  19.429  0.00  0.00    +0.000 C 
ATOM      3  O   UNL     1       3.822   2.421  19.896  0.00  0.00    +0.000 OA
ATOM      4  N   UNL     1       5.594   3.641  19.089  0.00  0.00    +0.000 N 
ATOM      5  C   UNL     1       5.802   4.875  18.352  0.00  0.00    +0.000 C 
ATOM      6  C   UNL     1       6.964   5.656  18.977  0.00  0.00    +0.000 C 
ATOM      7  C   UNL     1       7.430   6.813  18.099  0.00  0.00    +0.000 C 
ATOM      8  C   UNL     1       7.864   6.326  16.724  0.00  0.00    +0.000 C 
ATOM      9  C   UNL     1       6.899   5.356  16.091  0.00  0.00    +0.000 A 
ATOM     10  C   UNL     1       6.969   5.159  14.702  0.00  0.00    +0.000 A 
ATOM     11  C   UNL     1       6.116   4.262  14.061  0.00  0.00    +0.000 A 
ATOM     12  C   UNL     1       5.195   3.534  14.801  0.00  0.00    +0.000 A 
ATOM     13  C   UNL     1       5.126   3.709  16.182  0.00  0.00    +0.000 A 
ATOM     14  C   UNL     1       5.969   4.621  16.854  0.00  0.00    +0.000 A 
ATOM     15  C   UNL     1       4.419   5.538  18.611  0.00  0.00    +0.000 C 
ATOM     16  O   UNL     1       4.110   6.691  18.347  0.00  0.00    +0.000 OA
ATOM     17  H   UNL     1       6.249   2.871  19.109  0.00  0.00    +0.000 HD
ENDROOT
BRANCH   1  18
ATOM     18  C   UNL     1       2.146   4.692  19.228  0.00  0.00    +0.000 C 
BRANCH  18  20
ATOM     19  N   UNL     1       1.509   6.976  19.899  0.00  0.00    +0.000 N 
ATOM     20  C   UNL     1       1.826   5.704  20.333  0.00  0.00    +0.000 C 
ATOM     21  O   UNL     1       1.921   5.421  21.525  0.00  0.00    +0.000 OA
ATOM     22  H   UNL     1       1.494   7.175  18.903  0.00  0.00    +0.000 HD
BRANCH  19  24
ATOM     23  C   UNL     1      -0.189   7.801  21.487  0.00  0.00    +0.000 C 
ATOM     24  C   UNL     1       1.176   8.041  20.833  0.00  0.00    +0.000 C 
BRANCH  24  25
ATOM     25  C   UNL     1       1.238   9.400  20.153  0.00  0.00    +0.000 A 
ATOM     26  C   UNL     1       0.932  10.559  20.889  0.00  0.00    +0.000 A 
ATOM     27  C   UNL     1       0.971  11.821  20.288  0.00  0.00    +0.000 A 
ATOM     28  C   UNL     1       1.319  11.926  18.948  0.00  0.00    +0.000 A 
ATOM     29  F   UNL     1       1.354  13.133  18.368  0.00  0.00    +0.000 F 
ATOM     30  C   UNL     1       1.631  10.799  18.201  0.00  0.00    +0.000 A 
ATOM     31  C   UNL     1       1.590   9.538  18.801  0.00  0.00    +0.000 A 
ENDBRANCH  24  25
ENDBRANCH  19  24
ENDBRANCH  18  20
ENDBRANCH   1  18
TORSDOF 4
ENDMDL
MODEL 8
REMARK VINA RESULT:      -7.3      5.925      8.633
REMARK  Name = 
REMARK  5 active torsions:
REMARK  status: ('A' for Active; 'I' for Inactive)
REMARK    1  A    between atoms: C_1  and  C_2
REMARK    2  A    between atoms: C_2  and  N_3
REMARK    3  A    between atoms: C_2  and  C_23
REMARK    4  A    between atoms: C_4  and  C_6
REMARK    5  A    between atoms: C_6  and  N_7
REMARK                            x       y       z     vdW  Elec       q    Type
REMARK                         _______ _______ _______ _____ _____    ______ ____
ROOT
ATOM      1  N   UNL     1       0.826   9.566  21.425  0.00  0.00    +0.000 N 
ATOM      2  C   UNL     1       0.066  10.195  22.358  0.00  0.00    +0.000 C 
ATOM      3  O   UNL     1       0.061   9.979  23.559  0.00  0.00    +0.000 OA
ATOM      4  N   UNL     1      -0.688  11.160  21.736  0.00  0.00    +0.000 N 
ATOM      5  C   UNL     1      -0.312  11.340  20.344  0.00  0.00    +0.000 C 
ATOM      6  C   UNL     1      -1.569  11.312  19.466  0.00  0.00    +0.000 C 
ATOM      7  C   UNL     1      -1.295  11.775  18.039  0.00  0.00    +0.000 C 
ATOM      8  C   UNL     1      -0.724  13.186  18.014  0.00  0.00    +0.000 C 
ATOM      9  C   UNL     1       0.384  13.410  19.011  0.00  0.00    +0.000 A 
ATOM     10  C   UNL     1       1.246  14.501  18.813  0.00  0.00    +0.000 A 
ATOM     11  C   UNL     1       2.278  14.771  19.710  0.00  0.00    +0.000 A 
ATOM     12  C   UNL     1       2.451  13.968  20.828  0.00  0.00    +0.000 A 
ATOM     13  C   UNL     1       1.593  12.891  21.044  0.00  0.00    +0.000 A 
ATOM     14  C   UNL     1       0.548  12.587  20.145  0.00  0.00    +0.000 A 
ATOM     15  C   UNL     1       0.573  10.072  20.176  0.00  0.00    +0.000 C 
ATOM     16  O   UNL     1       1.018   9.637  19.122  0.00  0.00    +0.000 OA
ATOM     17  H   UNL     1      -1.217  11.833  22.276  0.00  0.00    +0.000 HD
ENDROOT
BRANCH   1  18
ATOM     18  C   UNL     1       1.833   8.580  21.740  0.00  0.00    +0.000 C 
BRANCH  18  20
ATOM     19  N   UNL     1       2.512   6.836  20.136  0.00  0.00    +0.000 N 
ATOM     20  C   UNL     1       1.509   7.300  20.963  0.00  0.00    +0.000 C 
ATOM     21  O   UNL     1       0.402   6.768  21.015  0.00  0.00    +0.000 OA
ATOM     22  H   UNL     1       3.392   7.340  20.088  0.00  0.00    +0.000 HD
BRANCH  19  24
ATOM     23  C   UNL     1       2.453   4.371  20.214  0.00  0.00    +0.000 C 
ATOM     24  C   UNL     1       2.350   5.628  19.342  0.00  0.00    +0.000 C 
BRANCH  24  25
ATOM     25  C   UNL     1       3.347   5.594  18.194  0.00  0.00    +0.000 A 
ATOM     26  C   UNL     1       3.880   6.798  17.701  0.00  0.00    +0.000 A 
ATOM     27  C   UNL     1       4.790   6.797  16.639  0.00  0.00    +0.000 A 
ATOM     28  C   UNL     1       5.171   5.590  16.069  0.00  0.00    +0.000 A 
ATOM     29  F   UNL     1       6.040   5.587  15.050  0.00  0.00    +0.000 F 
ATOM     30  C   UNL     1       4.663   4.387  16.540  0.00  0.00    +0.000 A 
ATOM     31  C   UNL     1       3.752   4.387  17.599  0.00  0.00    +0.000 A 
ENDBRANCH  24  25
ENDBRANCH  19  24
ENDBRANCH  18  20
ENDBRANCH   1  18
TORSDOF 4
ENDMDL
MODEL 9
REMARK VINA RESULT:      -7.3     12.906     15.559
REMARK  Name = 
REMARK  5 active torsions:
REMARK  status: ('A' for Active; 'I' for Inactive)
REMARK    1  A    between atoms: C_1  and  C_2
REMARK    2  A    between atoms: C_2  and  N_3
REMARK    3  A    between atoms: C_2  and  C_23
REMARK    4  A    between atoms: C_4  and  C_6
REMARK    5  A    between atoms: C_6  and  N_7
REMARK                            x       y       z     vdW  Elec       q    Type
REMARK                         _______ _______ _______ _____ _____    ______ ____
ROOT
ATOM      1  N   UNL     1      -6.562  13.320  22.297  0.00  0.00    +0.000 N 
ATOM      2  C   UNL     1      -6.422  14.544  21.725  0.00  0.00    +0.000 C 
ATOM      3  O   UNL     1      -6.349  15.615  22.305  0.00  0.00    +0.000 OA
ATOM      4  N   UNL     1      -6.334  14.387  20.363  0.00  0.00    +0.000 N 
ATOM      5  C   UNL     1      -6.226  12.991  19.975  0.00  0.00    +0.000 C 
ATOM      6  C   UNL     1      -7.243  12.687  18.868  0.00  0.00    +0.000 C 
ATOM      7  C   UNL     1      -7.002  11.332  18.211  0.00  0.00    +0.000 C 
ATOM      8  C   UNL     1      -5.604  11.245  17.615  0.00  0.00    +0.000 C 
ATOM      9  C   UNL     1      -4.519  11.740  18.538  0.00  0.00    +0.000 A 
ATOM     10  C   UNL     1      -3.197  11.343  18.282  0.00  0.00    +0.000 A 
ATOM     11  C   UNL     1      -2.148  11.781  19.088  0.00  0.00    +0.000 A 
ATOM     12  C   UNL     1      -2.402  12.638  20.149  0.00  0.00    +0.000 A 
ATOM     13  C   UNL     1      -3.709  13.052  20.404  0.00  0.00    +0.000 A 
ATOM     14  C   UNL     1      -4.791  12.612  19.612  0.00  0.00    +0.000 A 
ATOM     15  C   UNL     1      -6.601  12.341  21.337  0.00  0.00    +0.000 C 
ATOM     16  O   UNL     1      -6.830  11.155  21.533  0.00  0.00    +0.000 OA
ATOM     17  H   UNL     1      -6.087  15.166  19.767  0.00  0.00    +0.000 HD
ENDROOT
BRANCH   1  18
ATOM     18  C   UNL     1      -6.557  13.094  23.723  0.00  0.00    +0.000 C 
BRANCH  18  20
ATOM     19  N   UNL     1      -4.381  14.174  24.139  0.00  0.00    +0.000 N 
ATOM     20  C   UNL     1      -5.100  12.997  24.188  0.00  0.00    +0.000 C 
ATOM     21  O   UNL     1      -4.588  11.926  24.508  0.00  0.00    +0.000 OA
ATOM     22  H   UNL     1      -4.836  15.023  23.818  0.00  0.00    +0.000 HD
BRANCH  19  24
ATOM     23  C   UNL     1      -2.818  15.118  25.797  0.00  0.00    +0.000 C 
ATOM     24  C   UNL     1      -2.989  14.237  24.555  0.00  0.00    +0.000 C 
BRANCH  24  25
ATOM     25  C   UNL     1      -2.099  14.703  23.413  0.00  0.00    +0.000 A 
ATOM     26  C   UNL     1      -2.538  15.739  22.569  0.00  0.00    +0.000 A 
ATOM     27  C   UNL     1      -1.747  16.181  21.505  0.00  0.00    +0.000 A 
ATOM     28  C   UNL     1      -0.510  15.589  21.285  0.00  0.00    +0.000 A 
ATOM     29  F   UNL     1       0.249  16.008  20.263  0.00  0.00    +0.000 F 
ATOM     30  C   UNL     1      -0.051  14.568  22.105  0.00  0.00    +0.000 A 
ATOM     31  C   UNL     1      -0.843  14.125  23.167  0.00  0.00    +0.000 A 
ENDBRANCH  24  25
ENDBRANCH  19  24
ENDBRANCH  18  20
ENDBRANCH   1  18
TORSDOF 4
ENDMDL
