MODEL 1
REMARK VINA RESULT:      -7.4      0.000      0.000
REMARK  Name = 
REMARK  3 active torsions:
REMARK  status: ('A' for Active; 'I' for Inactive)
REMARK    1  A    between atoms: C_2  and  C_3
REMARK    2  A    between atoms: C_16  and  C_17
REMARK    3  A    between atoms: C_17  and  N_18
REMARK                            x       y       z     vdW  Elec       q    Type
REMARK                         _______ _______ _______ _____ _____    ______ ____
ROOT
ATOM      1  O   UNL     1       2.303  10.565  18.094  0.00  0.00    +0.000 OA
ATOM      2  C   UNL     1       1.817   9.485  18.468  0.00  0.00    +0.000 C 
ATOM      3  N   UNL     1       2.395   8.294  18.076  0.00  0.00    +0.000 N 
ATOM      4  C   UNL     1       3.615   8.214  17.306  0.00  0.00    +0.000 C 
ATOM      5  C   UNL     1       4.034   6.719  17.353  0.00  0.00    +0.000 C 
ATOM      6  C   UNL     1       3.023   6.126  18.409  0.00  0.00    +0.000 C 
ATOM      7  C   UNL     1       3.775   5.570  19.722  0.00  0.00    +0.000 C 
ATOM      8  C   UNL     1       3.519   4.156  19.115  0.00  0.00    +0.000 C 
ATOM      9  C   UNL     1       2.234   4.758  18.588  0.00  0.00    +0.000 C 
ATOM     10  C   UNL     1       1.799   7.001  18.208  0.00  0.00    +0.000 C 
ENDROOT
BRANCH   2  11
ATOM     11  C   UNL     1       0.571   9.399  19.357  0.00  0.00    +0.000 C 
ATOM     12  C   UNL     1      -0.611  10.206  18.799  0.00  0.00    +0.000 C 
ATOM     13  C   UNL     1      -0.411  11.703  19.027  0.00  0.00    +0.000 C 
ATOM     14  C   UNL     1      -0.145  12.057  20.508  0.00  0.00    +0.000 C 
ATOM     15  C   UNL     1       0.301  13.538  20.585  0.00  0.00    +0.000 C 
ATOM     16  C   UNL     1       0.399  14.079  22.013  0.00  0.00    +0.000 C 
ATOM     17  C   UNL     1      -0.899  13.869  22.783  0.00  0.00    +0.000 C 
ATOM     18  C   UNL     1      -1.342  12.411  22.764  0.00  0.00    +0.000 C 
ATOM     19  C   UNL     1      -1.444  11.879  21.336  0.00  0.00    +0.000 C 
ATOM     20  N   UNL     1       0.969  11.246  21.027  0.00  0.00    +0.000 NA
ATOM     21  C   UNL     1       0.842   9.810  20.811  0.00  0.00    +0.000 C 
ATOM     22  H   UNL     1       1.119  11.431  22.018  0.00  0.00    +0.000 HD
ENDBRANCH   2  11
BRANCH   5  23
ATOM     23  C   UNL     1       5.525   6.623  17.717  0.00  0.00    +0.000 C 
BRANCH  23  24
ATOM     24  N   UNL     1       6.300   5.633  17.001  0.00  0.00    +0.000 N 
ATOM     25  C   UNL     1       6.349   5.466  15.650  0.00  0.00    +0.000 A 
ATOM     26  N   UNL     1       7.301   4.611  15.353  0.00  0.00    +0.000 NA
ATOM     27  N   UNL     1       7.893   4.219  16.532  0.00  0.00    +0.000 NA
ATOM     28  C   UNL     1       7.285   4.848  17.513  0.00  0.00    +0.000 A 
ENDBRANCH  23  24
ENDBRANCH   5  23
TORSDOF 3
ENDMDL
MODEL 2
REMARK VINA RESULT:      -6.9      1.004      1.282
REMARK  Name = 
REMARK  3 active torsions:
REMARK  status: ('A' for Active; 'I' for Inactive)
REMARK    1  A    between atoms: C_2  and  C_3
REMARK    2  A    between atoms: C_16  and  C_17
REMARK    3  A    between atoms: C_17  and  N_18
REMARK                            x       y       z     vdW  Elec       q    Type
REMARK                         _______ _______ _______ _____ _____    ______ ____
ROOT
ATOM      1  O   UNL     1       2.416  10.280  17.926  0.00  0.00    +0.000 OA
ATOM      2  C   UNL     1       1.786   9.283  18.311  0.00  0.00    +0.000 C 
ATOM      3  N   UNL     1       2.271   8.016  18.055  0.00  0.00    +0.000 N 
ATOM      4  C   UNL     1       3.546   7.762  17.423  0.00  0.00    +0.000 C 
ATOM      5  C   UNL     1       3.799   6.241  17.603  0.00  0.00    +0.000 C 
ATOM      6  C   UNL     1       2.633   5.826  18.583  0.00  0.00    +0.000 C 
ATOM      7  C   UNL     1       3.191   5.293  19.998  0.00  0.00    +0.000 C 
ATOM      8  C   UNL     1       2.849   3.872  19.454  0.00  0.00    +0.000 C 
ATOM      9  C   UNL     1       1.692   4.558  18.761  0.00  0.00    +0.000 C 
ATOM     10  C   UNL     1       1.533   6.800  18.202  0.00  0.00    +0.000 C 
ENDROOT
BRANCH   2  11
ATOM     11  C   UNL     1       0.457   9.382  19.069  0.00  0.00    +0.000 C 
ATOM     12  C   UNL     1      -0.706   9.830  18.169  0.00  0.00    +0.000 C 
ATOM     13  C   UNL     1      -0.629  11.326  17.875  0.00  0.00    +0.000 C 
ATOM     14  C   UNL     1      -0.552  12.189  19.156  0.00  0.00    +0.000 C 
ATOM     15  C   UNL     1      -0.214  13.644  18.747  0.00  0.00    +0.000 C 
ATOM     16  C   UNL     1      -0.310  14.646  19.899  0.00  0.00    +0.000 C 
ATOM     17  C   UNL     1      -1.670  14.584  20.585  0.00  0.00    +0.000 C 
ATOM     18  C   UNL     1      -2.013  13.171  21.040  0.00  0.00    +0.000 C 
ATOM     19  C   UNL     1      -1.921  12.176  19.884  0.00  0.00    +0.000 C 
ATOM     20  N   UNL     1       0.547  11.718  20.016  0.00  0.00    +0.000 NA
ATOM     21  C   UNL     1       0.537  10.289  20.305  0.00  0.00    +0.000 C 
ATOM     22  H   UNL     1       0.573  12.244  20.888  0.00  0.00    +0.000 HD
ENDBRANCH   2  11
BRANCH   5  23
ATOM     23  C   UNL     1       5.229   6.025  18.127  0.00  0.00    +0.000 C 
BRANCH  23  24
ATOM     24  N   UNL     1       6.217   5.619  17.151  0.00  0.00    +0.000 N 
ATOM     25  C   UNL     1       7.264   4.772  17.363  0.00  0.00    +0.000 A 
ATOM     26  N   UNL     1       7.826   4.481  16.213  0.00  0.00    +0.000 NA
ATOM     27  N   UNL     1       7.127   5.141  15.228  0.00  0.00    +0.000 NA
ATOM     28  C   UNL     1       6.159   5.814  15.807  0.00  0.00    +0.000 A 
ENDBRANCH  23  24
ENDBRANCH   5  23
TORSDOF 3
ENDMDL
MODEL 3
REMARK VINA RESULT:      -6.8      8.291     11.102
REMARK  Name = 
REMARK  3 active torsions:
REMARK  status: ('A' for Active; 'I' for Inactive)
REMARK    1  A    between atoms: C_2  and  C_3
REMARK    2  A    between atoms: C_16  and  C_17
REMARK    3  A    between atoms: C_17  and  N_18
REMARK                            x       y       z     vdW  Elec       q    Type
REMARK                         _______ _______ _______ _____ _____    ______ ____
ROOT
ATOM      1  O   UNL     1       8.612  11.533  21.960  0.00  0.00    +0.000 OA
ATOM      2  C   UNL     1       8.223  12.643  22.356  0.00  0.00    +0.000 C 
ATOM      3  N   UNL     1       7.313  12.730  23.391  0.00  0.00    +0.000 N 
ATOM      4  C   UNL     1       6.830  11.584  24.126  0.00  0.00    +0.000 C 
ATOM      5  C   UNL     1       6.076  12.169  25.351  0.00  0.00    +0.000 C 
ATOM      6  C   UNL     1       6.437  13.703  25.260  0.00  0.00    +0.000 C 
ATOM      7  C   UNL     1       7.291  14.201  26.532  0.00  0.00    +0.000 C 
ATOM      8  C   UNL     1       5.955  14.843  27.018  0.00  0.00    +0.000 C 
ATOM      9  C   UNL     1       5.681  15.071  25.546  0.00  0.00    +0.000 C 
ATOM     10  C   UNL     1       6.591  13.907  23.764  0.00  0.00    +0.000 C 
ENDROOT
BRANCH   2  11
ATOM     11  C   UNL     1       8.704  13.961  21.735  0.00  0.00    +0.000 C 
ATOM     12  C   UNL     1       7.909  14.348  20.479  0.00  0.00    +0.000 C 
ATOM     13  C   UNL     1       8.327  13.498  19.281  0.00  0.00    +0.000 C 
ATOM     14  C   UNL     1       9.848  13.541  19.012  0.00  0.00    +0.000 C 
ATOM     15  C   UNL     1      10.191  12.454  17.963  0.00  0.00    +0.000 C 
ATOM     16  C   UNL     1      11.632  12.524  17.452  0.00  0.00    +0.000 C 
ATOM     17  C   UNL     1      11.972  13.911  16.919  0.00  0.00    +0.000 C 
ATOM     18  C   UNL     1      11.687  15.000  17.946  0.00  0.00    +0.000 C 
ATOM     19  C   UNL     1      10.247  14.929  18.448  0.00  0.00    +0.000 C 
ATOM     20  N   UNL     1      10.587  13.199  20.240  0.00  0.00    +0.000 NA
ATOM     21  C   UNL     1      10.206  13.963  21.422  0.00  0.00    +0.000 C 
ATOM     22  H   UNL     1      11.592  13.277  20.090  0.00  0.00    +0.000 HD
ENDBRANCH   2  11
BRANCH   5  23
ATOM     23  C   UNL     1       6.540  11.442  26.625  0.00  0.00    +0.000 C 
BRANCH  23  24
ATOM     24  N   UNL     1       5.566  10.586  27.268  0.00  0.00    +0.000 N 
ATOM     25  C   UNL     1       4.277  10.389  26.874  0.00  0.00    +0.000 A 
ATOM     26  N   UNL     1       3.756   9.404  27.570  0.00  0.00    +0.000 NA
ATOM     27  N   UNL     1       4.728   8.941  28.428  0.00  0.00    +0.000 NA
ATOM     28  C   UNL     1       5.811   9.657  28.229  0.00  0.00    +0.000 A 
ENDBRANCH  23  24
ENDBRANCH   5  23
TORSDOF 3
ENDMDL
MODEL 4
REMARK VINA RESULT:      -6.7      1.663      2.112
REMARK  Name = 
REMARK  3 active torsions:
REMARK  status: ('A' for Active; 'I' for Inactive)
REMARK    1  A    between atoms: C_2  and  C_3
REMARK    2  A    between atoms: C_16  and  C_17
REMARK    3  A    between atoms: C_17  and  N_18
REMARK                            x       y       z     vdW  Elec       q    Type
REMARK                         _______ _______ _______ _____ _____    ______ ____
ROOT
ATOM      1  O   UNL     1       2.406   8.910  19.570  0.00  0.00    +0.000 OA
ATOM      2  C   UNL     1       1.733   8.033  20.135  0.00  0.00    +0.000 C 
ATOM      3  N   UNL     1       1.923   6.703  19.818  0.00  0.00    +0.000 N 
ATOM      4  C   UNL     1       2.943   6.237  18.907  0.00  0.00    +0.000 C 
ATOM      5  C   UNL     1       2.976   4.694  19.081  0.00  0.00    +0.000 C 
ATOM      6  C   UNL     1       2.033   4.482  20.328  0.00  0.00    +0.000 C 
ATOM      7  C   UNL     1       2.824   3.857  21.586  0.00  0.00    +0.000 C 
ATOM      8  C   UNL     1       2.127   2.517  21.198  0.00  0.00    +0.000 C 
ATOM      9  C   UNL     1       0.966   3.394  20.778  0.00  0.00    +0.000 C 
ATOM     10  C   UNL     1       1.051   5.631  20.187  0.00  0.00    +0.000 C 
ENDROOT
BRANCH   2  11
ATOM     11  C   UNL     1       0.666   8.357  21.187  0.00  0.00    +0.000 C 
ATOM     12  C   UNL     1      -0.673   8.779  20.562  0.00  0.00    +0.000 C 
ATOM     13  C   UNL     1      -0.603  10.208  20.027  0.00  0.00    +0.000 C 
ATOM     14  C   UNL     1      -0.139  11.228  21.090  0.00  0.00    +0.000 C 
ATOM     15  C   UNL     1       0.149  12.576  20.384  0.00  0.00    +0.000 C 
ATOM     16  C   UNL     1       0.419  13.733  21.349  0.00  0.00    +0.000 C 
ATOM     17  C   UNL     1      -0.705  13.890  22.366  0.00  0.00    +0.000 C 
ATOM     18  C   UNL     1      -0.983  12.590  23.111  0.00  0.00    +0.000 C 
ATOM     19  C   UNL     1      -1.258  11.441  22.143  0.00  0.00    +0.000 C 
ATOM     20  N   UNL     1       1.127  10.783  21.698  0.00  0.00    +0.000 NA
ATOM     21  C   UNL     1       1.123   9.415  22.200  0.00  0.00    +0.000 C 
ATOM     22  H   UNL     1       1.415  11.420  22.439  0.00  0.00    +0.000 HD
ENDBRANCH   2  11
BRANCH   5  23
ATOM     23  C   UNL     1       4.434   4.235  19.251  0.00  0.00    +0.000 C 
BRANCH  23  24
ATOM     24  N   UNL     1       5.291   4.372  18.094  0.00  0.00    +0.000 N 
ATOM     25  C   UNL     1       6.596   4.764  18.095  0.00  0.00    +0.000 A 
ATOM     26  N   UNL     1       7.105   4.581  16.898  0.00  0.00    +0.000 NA
ATOM     27  N   UNL     1       6.116   4.050  16.101  0.00  0.00    +0.000 NA
ATOM     28  C   UNL     1       5.035   3.923  16.836  0.00  0.00    +0.000 A 
ENDBRANCH  23  24
ENDBRANCH   5  23
TORSDOF 3
ENDMDL
MODEL 5
REMARK VINA RESULT:      -6.5      2.830      8.463
REMARK  Name = 
REMARK  3 active torsions:
REMARK  status: ('A' for Active; 'I' for Inactive)
REMARK    1  A    between atoms: C_2  and  C_3
REMARK    2  A    between atoms: C_16  and  C_17
REMARK    3  A    between atoms: C_17  and  N_18
REMARK                            x       y       z     vdW  Elec       q    Type
REMARK                         _______ _______ _______ _____ _____    ______ ____
ROOT
ATOM      1  O   UNL     1       2.315   8.004  17.024  0.00  0.00    +0.000 OA
ATOM      2  C   UNL     1       2.443   8.049  18.257  0.00  0.00    +0.000 C 
ATOM      3  N   UNL     1       1.660   8.905  19.005  0.00  0.00    +0.000 N 
ATOM      4  C   UNL     1       0.607   9.719  18.441  0.00  0.00    +0.000 C 
ATOM      5  C   UNL     1      -0.176  10.280  19.660  0.00  0.00    +0.000 C 
ATOM      6  C   UNL     1       0.460   9.476  20.860  0.00  0.00    +0.000 C 
ATOM      7  C   UNL     1      -0.617   8.530  21.595  0.00  0.00    +0.000 C 
ATOM      8  C   UNL     1      -0.626   9.620  22.710  0.00  0.00    +0.000 C 
ATOM      9  C   UNL     1       0.839   9.793  22.370  0.00  0.00    +0.000 C 
ATOM     10  C   UNL     1       1.881   9.248  20.375  0.00  0.00    +0.000 C 
ENDROOT
BRANCH   2  11
ATOM     11  C   UNL     1       3.460   7.188  19.017  0.00  0.00    +0.000 C 
ATOM     12  C   UNL     1       4.583   6.660  18.112  0.00  0.00    +0.000 C 
ATOM     13  C   UNL     1       4.090   5.509  17.238  0.00  0.00    +0.000 C 
ATOM     14  C   UNL     1       3.449   4.364  18.055  0.00  0.00    +0.000 C 
ATOM     15  C   UNL     1       2.755   3.390  17.071  0.00  0.00    +0.000 C 
ATOM     16  C   UNL     1       2.256   2.102  17.730  0.00  0.00    +0.000 C 
ATOM     17  C   UNL     1       3.369   1.392  18.491  0.00  0.00    +0.000 C 
ATOM     18  C   UNL     1       4.044   2.314  19.501  0.00  0.00    +0.000 C 
ATOM     19  C   UNL     1       4.545   3.595  18.837  0.00  0.00    +0.000 C 
ATOM     20  N   UNL     1       2.400   4.901  18.939  0.00  0.00    +0.000 NA
ATOM     21  C   UNL     1       2.811   6.022  19.776  0.00  0.00    +0.000 C 
ATOM     22  H   UNL     1       2.007   4.164  19.522  0.00  0.00    +0.000 HD
ENDBRANCH   2  11
BRANCH   5  23
ATOM     23  C   UNL     1      -1.683  10.072  19.432  0.00  0.00    +0.000 C 
BRANCH  23  24
ATOM     24  N   UNL     1      -2.177  10.349  18.101  0.00  0.00    +0.000 N 
ATOM     25  C   UNL     1      -3.008   9.559  17.366  0.00  0.00    +0.000 A 
ATOM     26  N   UNL     1      -3.401  10.216  16.299  0.00  0.00    +0.000 NA
ATOM     27  N   UNL     1      -2.824  11.465  16.343  0.00  0.00    +0.000 NA
ATOM     28  C   UNL     1      -2.098  11.532  17.436  0.00  0.00    +0.000 A 
ENDBRANCH  23  24
ENDBRANCH   5  23
TORSDOF 3
ENDMDL
MODEL 6
REMARK VINA RESULT:      -6.4      2.809      9.157
REMARK  Name = 
REMARK  3 active torsions:
REMARK  status: ('A' for Active; 'I' for Inactive)
REMARK    1  A    between atoms: C_2  and  C_3
REMARK    2  A    between atoms: C_16  and  C_17
REMARK    3  A    between atoms: C_17  and  N_18
REMARK                            x       y       z     vdW  Elec       q    Type
REMARK                         _______ _______ _______ _____ _____    ______ ____
ROOT
ATOM      1  O   UNL     1       0.547   7.333  21.032  0.00  0.00    +0.000 OA
ATOM      2  C   UNL     1       1.198   8.068  20.273  0.00  0.00    +0.000 C 
ATOM      3  N   UNL     1       0.747   9.341  19.986  0.00  0.00    +0.000 N 
ATOM      4  C   UNL     1      -0.424   9.928  20.595  0.00  0.00    +0.000 C 
ATOM      5  C   UNL     1      -0.379  11.432  20.208  0.00  0.00    +0.000 C 
ATOM      6  C   UNL     1       1.047  11.559  19.545  0.00  0.00    +0.000 C 
ATOM      7  C   UNL     1       2.015  12.546  20.373  0.00  0.00    +0.000 C 
ATOM      8  C   UNL     1       1.718  13.580  19.243  0.00  0.00    +0.000 C 
ATOM      9  C   UNL     1       1.671  12.373  18.331  0.00  0.00    +0.000 C 
ATOM     10  C   UNL     1       1.244  10.181  18.940  0.00  0.00    +0.000 C 
ENDROOT
BRANCH   2  11
ATOM     11  C   UNL     1       2.506   7.623  19.609  0.00  0.00    +0.000 C 
ATOM     12  C   UNL     1       2.380   7.488  18.083  0.00  0.00    +0.000 C 
ATOM     13  C   UNL     1       1.623   6.217  17.705  0.00  0.00    +0.000 C 
ATOM     14  C   UNL     1       2.235   4.942  18.328  0.00  0.00    +0.000 C 
ATOM     15  C   UNL     1       1.251   3.766  18.104  0.00  0.00    +0.000 C 
ATOM     16  C   UNL     1       1.825   2.401  18.490  0.00  0.00    +0.000 C 
ATOM     17  C   UNL     1       3.152   2.132  17.791  0.00  0.00    +0.000 C 
ATOM     18  C   UNL     1       4.158   3.251  18.029  0.00  0.00    +0.000 C 
ATOM     19  C   UNL     1       3.582   4.610  17.637  0.00  0.00    +0.000 C 
ATOM     20  N   UNL     1       2.376   5.110  19.785  0.00  0.00    +0.000 NA
ATOM     21  C   UNL     1       3.069   6.324  20.201  0.00  0.00    +0.000 C 
ATOM     22  H   UNL     1       2.829   4.297  20.200  0.00  0.00    +0.000 HD
ENDBRANCH   2  11
BRANCH   5  23
ATOM     23  C   UNL     1      -0.617  12.285  21.465  0.00  0.00    +0.000 C 
BRANCH  23  24
ATOM     24  N   UNL     1      -1.911  12.153  22.098  0.00  0.00    +0.000 N 
ATOM     25  C   UNL     1      -2.149  11.757  23.380  0.00  0.00    +0.000 A 
ATOM     26  N   UNL     1      -3.418  11.945  23.664  0.00  0.00    +0.000 NA
ATOM     27  N   UNL     1      -4.019  12.484  22.549  0.00  0.00    +0.000 NA
ATOM     28  C   UNL     1      -3.099  12.610  21.619  0.00  0.00    +0.000 A 
ENDBRANCH  23  24
ENDBRANCH   5  23
TORSDOF 3
ENDMDL
MODEL 7
REMARK VINA RESULT:      -6.4      1.857      9.080
REMARK  Name = 
REMARK  3 active torsions:
REMARK  status: ('A' for Active; 'I' for Inactive)
REMARK    1  A    between atoms: C_2  and  C_3
REMARK    2  A    between atoms: C_16  and  C_17
REMARK    3  A    between atoms: C_17  and  N_18
REMARK                            x       y       z     vdW  Elec       q    Type
REMARK                         _______ _______ _______ _____ _____    ______ ____
ROOT
ATOM      1  O   UNL     1       2.764   6.889  20.405  0.00  0.00    +0.000 OA
ATOM      2  C   UNL     1       2.155   7.425  19.466  0.00  0.00    +0.000 C 
ATOM      3  N   UNL     1       1.207   8.396  19.720  0.00  0.00    +0.000 N 
ATOM      4  C   UNL     1       0.927   8.911  21.041  0.00  0.00    +0.000 C 
ATOM      5  C   UNL     1       0.029  10.158  20.814  0.00  0.00    +0.000 C 
ATOM      6  C   UNL     1       0.092  10.329  19.247  0.00  0.00    +0.000 C 
ATOM      7  C   UNL     1       0.786  11.719  18.816  0.00  0.00    +0.000 C 
ATOM      8  C   UNL     1      -0.666  12.206  18.520  0.00  0.00    +0.000 C 
ATOM      9  C   UNL     1      -0.924  10.773  18.108  0.00  0.00    +0.000 C 
ATOM     10  C   UNL     1       0.259   8.897  18.774  0.00  0.00    +0.000 C 
ENDROOT
BRANCH   2  11
ATOM     11  C   UNL     1       2.396   7.049  17.999  0.00  0.00    +0.000 C 
ATOM     12  C   UNL     1       2.216   5.547  17.734  0.00  0.00    +0.000 C 
ATOM     13  C   UNL     1       3.411   4.751  18.254  0.00  0.00    +0.000 C 
ATOM     14  C   UNL     1       4.761   5.256  17.696  0.00  0.00    +0.000 C 
ATOM     15  C   UNL     1       5.905   4.566  18.479  0.00  0.00    +0.000 C 
ATOM     16  C   UNL     1       7.295   4.820  17.892  0.00  0.00    +0.000 C 
ATOM     17  C   UNL     1       7.357   4.450  16.414  0.00  0.00    +0.000 C 
ATOM     18  C   UNL     1       6.270   5.149  15.607  0.00  0.00    +0.000 C 
ATOM     19  C   UNL     1       4.884   4.887  16.195  0.00  0.00    +0.000 C 
ATOM     20  N   UNL     1       4.893   6.705  17.931  0.00  0.00    +0.000 NA
ATOM     21  C   UNL     1       3.765   7.509  17.479  0.00  0.00    +0.000 C 
ATOM     22  H   UNL     1       5.755   7.060  17.519  0.00  0.00    +0.000 HD
ENDBRANCH   2  11
BRANCH   5  23
ATOM     23  C   UNL     1       0.576  11.332  21.644  0.00  0.00    +0.000 C 
BRANCH  23  24
ATOM     24  N   UNL     1      -0.403  12.149  22.327  0.00  0.00    +0.000 N 
ATOM     25  C   UNL     1      -0.497  13.508  22.281  0.00  0.00    +0.000 A 
ATOM     26  N   UNL     1      -1.616  13.885  22.855  0.00  0.00    +0.000 NA
ATOM     27  N   UNL     1      -2.272  12.750  23.275  0.00  0.00    +0.000 NA
ATOM     28  C   UNL     1      -1.534  11.715  22.944  0.00  0.00    +0.000 A 
ENDBRANCH  23  24
ENDBRANCH   5  23
TORSDOF 3
ENDMDL
MODEL 8
REMARK VINA RESULT:      -6.3      1.246      1.618
REMARK  Name = 
REMARK  3 active torsions:
REMARK  status: ('A' for Active; 'I' for Inactive)
REMARK    1  A    between atoms: C_2  and  C_3
REMARK    2  A    between atoms: C_16  and  C_17
REMARK    3  A    between atoms: C_17  and  N_18
REMARK                            x       y       z     vdW  Elec       q    Type
REMARK                         _______ _______ _______ _____ _____    ______ ____
ROOT
ATOM      1  O   UNL     1       2.896   9.104  17.915  0.00  0.00    +0.000 OA
ATOM      2  C   UNL     1       2.097   8.291  18.405  0.00  0.00    +0.000 C 
ATOM      3  N   UNL     1       2.343   6.936  18.311  0.00  0.00    +0.000 N 
ATOM      4  C   UNL     1       3.549   6.382  17.739  0.00  0.00    +0.000 C 
ATOM      5  C   UNL     1       3.522   4.873  18.105  0.00  0.00    +0.000 C 
ATOM      6  C   UNL     1       2.303   4.797  19.104  0.00  0.00    +0.000 C 
ATOM      7  C   UNL     1       2.759   4.347  20.583  0.00  0.00    +0.000 C 
ATOM      8  C   UNL     1       2.162   2.956  20.207  0.00  0.00    +0.000 C 
ATOM      9  C   UNL     1       1.147   3.751  19.414  0.00  0.00    +0.000 C 
ATOM     10  C   UNL     1       1.397   5.900  18.588  0.00  0.00    +0.000 C 
ENDROOT
BRANCH   2  11
ATOM     11  C   UNL     1       0.810   8.720  19.119  0.00  0.00    +0.000 C 
ATOM     12  C   UNL     1      -0.017   9.722  18.299  0.00  0.00    +0.000 C 
ATOM     13  C   UNL     1       0.608  11.115  18.342  0.00  0.00    +0.000 C 
ATOM     14  C   UNL     1       0.836  11.629  19.781  0.00  0.00    +0.000 C 
ATOM     15  C   UNL     1       1.703  12.911  19.712  0.00  0.00    +0.000 C 
ATOM     16  C   UNL     1       1.834  13.640  21.051  0.00  0.00    +0.000 C 
ATOM     17  C   UNL     1       0.470  13.946  21.659  0.00  0.00    +0.000 C 
ATOM     18  C   UNL     1      -0.391  12.696  21.782  0.00  0.00    +0.000 C 
ATOM     19  C   UNL     1      -0.523  11.976  20.441  0.00  0.00    +0.000 C 
ATOM     20  N   UNL     1       1.601  10.636  20.555  0.00  0.00    +0.000 NA
ATOM     21  C   UNL     1       1.062   9.282  20.525  0.00  0.00    +0.000 C 
ATOM     22  H   UNL     1       1.711  10.940  21.522  0.00  0.00    +0.000 HD
ENDBRANCH   2  11
BRANCH   5  23
ATOM     23  C   UNL     1       4.891   4.467  18.678  0.00  0.00    +0.000 C 
BRANCH  23  24
ATOM     24  N   UNL     1       6.018   4.554  17.775  0.00  0.00    +0.000 N 
ATOM     25  C   UNL     1       7.317   4.774  18.121  0.00  0.00    +0.000 A 
ATOM     26  N   UNL     1       8.083   4.591  17.070  0.00  0.00    +0.000 NA
ATOM     27  N   UNL     1       7.270   4.234  16.019  0.00  0.00    +0.000 NA
ATOM     28  C   UNL     1       6.033   4.209  16.460  0.00  0.00    +0.000 A 
ENDBRANCH  23  24
ENDBRANCH   5  23
TORSDOF 3
ENDMDL
MODEL 9
REMARK VINA RESULT:      -6.1      3.566      6.896
REMARK  Name = 
REMARK  3 active torsions:
REMARK  status: ('A' for Active; 'I' for Inactive)
REMARK    1  A    between atoms: C_2  and  C_3
REMARK    2  A    between atoms: C_16  and  C_17
REMARK    3  A    between atoms: C_17  and  N_18
REMARK                            x       y       z     vdW  Elec       q    Type
REMARK                         _______ _______ _______ _____ _____    ______ ____
ROOT
ATOM      1  O   UNL     1      -2.309  11.336  23.209  0.00  0.00    +0.000 OA
ATOM      2  C   UNL     1      -1.747  12.303  22.673  0.00  0.00    +0.000 C 
ATOM      3  N   UNL     1      -0.635  12.105  21.877  0.00  0.00    +0.000 N 
ATOM      4  C   UNL     1      -0.115  10.798  21.546  0.00  0.00    +0.000 C 
ATOM      5  C   UNL     1       0.929  11.045  20.423  0.00  0.00    +0.000 C 
ATOM      6  C   UNL     1       0.698  12.569  20.085  0.00  0.00    +0.000 C 
ATOM      7  C   UNL     1       0.179  12.782  18.574  0.00  0.00    +0.000 C 
ATOM      8  C   UNL     1       1.640  13.237  18.271  0.00  0.00    +0.000 C 
ATOM      9  C   UNL     1       1.618  13.798  19.677  0.00  0.00    +0.000 C 
ATOM     10  C   UNL     1       0.253  13.129  21.423  0.00  0.00    +0.000 C 
ENDROOT
BRANCH   2  11
ATOM     11  C   UNL     1      -2.225  13.748  22.858  0.00  0.00    +0.000 C 
ATOM     12  C   UNL     1      -2.578  14.073  24.317  0.00  0.00    +0.000 C 
ATOM     13  C   UNL     1      -3.919  13.457  24.709  0.00  0.00    +0.000 C 
ATOM     14  C   UNL     1      -5.068  13.859  23.757  0.00  0.00    +0.000 C 
ATOM     15  C   UNL     1      -6.303  12.982  24.082  0.00  0.00    +0.000 C 
ATOM     16  C   UNL     1      -7.576  13.417  23.352  0.00  0.00    +0.000 C 
ATOM     17  C   UNL     1      -7.885  14.890  23.591  0.00  0.00    +0.000 C 
ATOM     18  C   UNL     1      -6.703  15.784  23.237  0.00  0.00    +0.000 C 
ATOM     19  C   UNL     1      -5.437  15.349  23.973  0.00  0.00    +0.000 C 
ATOM     20  N   UNL     1      -4.692  13.569  22.363  0.00  0.00    +0.000 NA
ATOM     21  C   UNL     1      -3.404  14.111  21.945  0.00  0.00    +0.000 C 
ATOM     22  H   UNL     1      -5.419  13.880  21.721  0.00  0.00    +0.000 HD
ENDBRANCH   2  11
BRANCH   5  23
ATOM     23  C   UNL     1       0.680  10.053  19.274  0.00  0.00    +0.000 C 
BRANCH  23  24
ATOM     24  N   UNL     1       1.579   8.923  19.192  0.00  0.00    +0.000 N 
ATOM     25  C   UNL     1       1.740   7.947  20.130  0.00  0.00    +0.000 A 
ATOM     26  N   UNL     1       2.485   6.986  19.633  0.00  0.00    +0.000 NA
ATOM     27  N   UNL     1       2.810   7.336  18.342  0.00  0.00    +0.000 NA
ATOM     28  C   UNL     1       2.252   8.498  18.090  0.00  0.00    +0.000 A 
ENDBRANCH  23  24
ENDBRANCH   5  23
TORSDOF 3
ENDMDL
