MODEL 1
REMARK VINA RESULT:      -8.9      0.000      0.000
REMARK  Name = 
REMARK  7 active torsions:
REMARK  status: ('A' for Active; 'I' for Inactive)
REMARK    1  A    between atoms: C_1  and  C_2
REMARK    2  A    between atoms: C_5  and  C_6
REMARK    3  A    between atoms: N_8  and  C_9
REMARK    4  A    between atoms: C_15  and  C_16
REMARK    5  A    between atoms: N_18  and  C_19
REMARK    6  A    between atoms: C_21  and  S_22
REMARK    7  A    between atoms: S_22  and  N_25
REMARK                            x       y       z     vdW  Elec       q    Type
REMARK                         _______ _______ _______ _____ _____    ______ ____
ROOT
ATOM      1  C   UNL     1       5.967   4.241  15.947  0.00  0.00    +0.000 C 
ATOM      2  C   UNL     1       4.986   5.100  16.702  0.00  0.00    +0.000 A 
ATOM      3  C   UNL     1       5.256   6.487  16.689  0.00  0.00    +0.000 A 
ATOM      4  C   UNL     1       4.415   7.401  17.318  0.00  0.00    +0.000 A 
ATOM      5  C   UNL     1       3.264   6.946  17.954  0.00  0.00    +0.000 A 
ATOM      6  C   UNL     1       2.972   5.578  17.982  0.00  0.00    +0.000 A 
ATOM      7  C   UNL     1       3.832   4.646  17.388  0.00  0.00    +0.000 A 
ENDROOT
BRANCH   5   8
ATOM      8  C   UNL     1       2.336   7.876  18.645  0.00  0.00    +0.000 C 
ATOM      9  O   UNL     1       2.062   7.653  19.815  0.00  0.00    +0.000 OA
ATOM     10  N   UNL     1       1.823   8.887  17.859  0.00  0.00    +0.000 N 
ATOM     11  H   UNL     1       1.969   8.824  16.859  0.00  0.00    +0.000 HD
BRANCH  10  12
ATOM     12  C   UNL     1       0.922   9.876  18.296  0.00  0.00    +0.000 A 
ATOM     13  C   UNL     1       1.260  10.935  19.147  0.00  0.00    +0.000 A 
ATOM     14  N   UNL     1       0.413  11.885  19.613  0.00  0.00    +0.000 NA
ATOM     15  C   UNL     1      -0.854  11.698  19.200  0.00  0.00    +0.000 A 
ATOM     16  C   UNL     1      -1.327  10.700  18.360  0.00  0.00    +0.000 A 
ATOM     17  C   UNL     1      -0.402   9.773  17.859  0.00  0.00    +0.000 A 
ATOM     18  C   UNL     1      -2.724  10.928  18.279  0.00  0.00    +0.000 A 
ATOM     19  C   UNL     1      -3.735  10.110  17.567  0.00  0.00    +0.000 C 
ATOM     20  N   UNL     1      -3.102  12.003  18.989  0.00  0.00    +0.000 NA
ATOM     21  N   UNL     1      -1.946  12.448  19.534  0.00  0.00    +0.000 N 
ATOM     22  C   UNL     1      -1.935  13.596  20.403  0.00  0.00    +0.000 C 
ENDBRANCH  10  12
ENDBRANCH   5   8
BRANCH   7  23
ATOM     23  S   UNL     1       3.258   2.925  17.437  0.00  0.00    +0.000 S 
ATOM     24  O   UNL     1       2.183   2.813  16.490  0.00  0.00    +0.000 OA
ATOM     25  O   UNL     1       4.433   2.082  17.324  0.00  0.00    +0.000 OA
BRANCH  23  26
ATOM     26  N   UNL     1       2.601   2.708  19.006  0.00  0.00    +0.000 NA
ATOM     27  C   UNL     1       3.596   2.606  20.088  0.00  0.00    +0.000 C 
ATOM     28  C   UNL     1       3.039   2.598  21.500  0.00  0.00    +0.000 C 
ATOM     29  C   UNL     1       1.884   3.560  21.696  0.00  0.00    +0.000 C 
ATOM     30  C   UNL     1       0.788   3.240  20.699  0.00  0.00    +0.000 C 
ATOM     31  C   UNL     1       1.259   3.281  19.251  0.00  0.00    +0.000 C 
ENDBRANCH  23  26
ENDBRANCH   7  23
TORSDOF 4
ENDMDL
MODEL 2
REMARK VINA RESULT:      -8.5      1.124      1.331
REMARK  Name = 
REMARK  7 active torsions:
REMARK  status: ('A' for Active; 'I' for Inactive)
REMARK    1  A    between atoms: C_1  and  C_2
REMARK    2  A    between atoms: C_5  and  C_6
REMARK    3  A    between atoms: N_8  and  C_9
REMARK    4  A    between atoms: C_15  and  C_16
REMARK    5  A    between atoms: N_18  and  C_19
REMARK    6  A    between atoms: C_21  and  S_22
REMARK    7  A    between atoms: S_22  and  N_25
REMARK                            x       y       z     vdW  Elec       q    Type
REMARK                         _______ _______ _______ _____ _____    ______ ____
ROOT
ATOM      1  C   UNL     1       5.839   5.049  15.712  0.00  0.00    +0.000 C 
ATOM      2  C   UNL     1       4.895   5.734  16.665  0.00  0.00    +0.000 A 
ATOM      3  C   UNL     1       4.535   7.057  16.320  0.00  0.00    +0.000 A 
ATOM      4  C   UNL     1       3.646   7.798  17.093  0.00  0.00    +0.000 A 
ATOM      5  C   UNL     1       3.071   7.216  18.220  0.00  0.00    +0.000 A 
ATOM      6  C   UNL     1       3.409   5.909  18.585  0.00  0.00    +0.000 A 
ATOM      7  C   UNL     1       4.334   5.169  17.837  0.00  0.00    +0.000 A 
ENDROOT
BRANCH   5   8
ATOM      8  C   UNL     1       2.121   7.963  19.083  0.00  0.00    +0.000 C 
ATOM      9  O   UNL     1       1.818   7.475  20.162  0.00  0.00    +0.000 OA
ATOM     10  N   UNL     1       1.624   9.128  18.539  0.00  0.00    +0.000 N 
ATOM     11  H   UNL     1       1.796   9.298  17.556  0.00  0.00    +0.000 HD
BRANCH  10  12
ATOM     12  C   UNL     1       0.708   9.991  19.170  0.00  0.00    +0.000 A 
ATOM     13  C   UNL     1       0.858  10.497  20.465  0.00  0.00    +0.000 A 
ATOM     14  N   UNL     1      -0.018  11.302  21.114  0.00  0.00    +0.000 NA
ATOM     15  C   UNL     1      -1.121  11.561  20.388  0.00  0.00    +0.000 A 
ATOM     16  C   UNL     1      -1.399  11.130  19.099  0.00  0.00    +0.000 A 
ATOM     17  C   UNL     1      -0.437  10.345  18.448  0.00  0.00    +0.000 A 
ATOM     18  C   UNL     1      -2.694  11.638  18.819  0.00  0.00    +0.000 A 
ATOM     19  C   UNL     1      -3.509  11.418  17.602  0.00  0.00    +0.000 C 
ATOM     20  N   UNL     1      -3.184  12.358  19.841  0.00  0.00    +0.000 NA
ATOM     21  N   UNL     1      -2.207  12.293  20.775  0.00  0.00    +0.000 N 
ATOM     22  C   UNL     1      -2.367  12.933  22.055  0.00  0.00    +0.000 C 
ENDBRANCH  10  12
ENDBRANCH   5   8
BRANCH   7  23
ATOM     23  S   UNL     1       4.589   3.462  18.397  0.00  0.00    +0.000 S 
ATOM     24  O   UNL     1       4.794   2.660  17.221  0.00  0.00    +0.000 OA
ATOM     25  O   UNL     1       5.589   3.503  19.447  0.00  0.00    +0.000 OA
BRANCH  23  26
ATOM     26  N   UNL     1       3.101   2.985  19.103  0.00  0.00    +0.000 NA
ATOM     27  C   UNL     1       2.994   3.232  20.552  0.00  0.00    +0.000 C 
ATOM     28  C   UNL     1       1.627   2.991  21.165  0.00  0.00    +0.000 C 
ATOM     29  C   UNL     1       0.483   3.459  20.287  0.00  0.00    +0.000 C 
ATOM     30  C   UNL     1       0.578   2.781  18.934  0.00  0.00    +0.000 C 
ATOM     31  C   UNL     1       1.907   3.023  18.230  0.00  0.00    +0.000 C 
ENDBRANCH  23  26
ENDBRANCH   7  23
TORSDOF 4
ENDMDL
MODEL 3
REMARK VINA RESULT:      -8.5      1.711      2.099
REMARK  Name = 
REMARK  7 active torsions:
REMARK  status: ('A' for Active; 'I' for Inactive)
REMARK    1  A    between atoms: C_1  and  C_2
REMARK    2  A    between atoms: C_5  and  C_6
REMARK    3  A    between atoms: N_8  and  C_9
REMARK    4  A    between atoms: C_15  and  C_16
REMARK    5  A    between atoms: N_18  and  C_19
REMARK    6  A    between atoms: C_21  and  S_22
REMARK    7  A    between atoms: S_22  and  N_25
REMARK                            x       y       z     vdW  Elec       q    Type
REMARK                         _______ _______ _______ _____ _____    ______ ____
ROOT
ATOM      1  C   UNL     1       6.136   4.047  15.635  0.00  0.00    +0.000 C 
ATOM      2  C   UNL     1       5.268   5.066  16.327  0.00  0.00    +0.000 A 
ATOM      3  C   UNL     1       5.227   6.342  15.721  0.00  0.00    +0.000 A 
ATOM      4  C   UNL     1       4.441   7.369  16.235  0.00  0.00    +0.000 A 
ATOM      5  C   UNL     1       3.654   7.132  17.358  0.00  0.00    +0.000 A 
ATOM      6  C   UNL     1       3.676   5.879  17.979  0.00  0.00    +0.000 A 
ATOM      7  C   UNL     1       4.494   4.850  17.494  0.00  0.00    +0.000 A 
ENDROOT
BRANCH   5   8
ATOM      8  C   UNL     1       2.802   8.194  17.952  0.00  0.00    +0.000 C 
ATOM      9  O   UNL     1       2.696   9.250  17.347  0.00  0.00    +0.000 OA
ATOM     10  N   UNL     1       2.253   7.890  19.179  0.00  0.00    +0.000 N 
ATOM     11  H   UNL     1       2.598   7.066  19.657  0.00  0.00    +0.000 HD
BRANCH  10  12
ATOM     12  C   UNL     1       1.423   8.744  19.929  0.00  0.00    +0.000 A 
ATOM     13  C   UNL     1       1.231   8.650  21.312  0.00  0.00    +0.000 A 
ATOM     14  N   UNL     1       0.416   9.433  22.060  0.00  0.00    +0.000 NA
ATOM     15  C   UNL     1      -0.260  10.333  21.321  0.00  0.00    +0.000 A 
ATOM     16  C   UNL     1      -0.167  10.536  19.952  0.00  0.00    +0.000 A 
ATOM     17  C   UNL     1       0.732   9.738  19.230  0.00  0.00    +0.000 A 
ATOM     18  C   UNL     1      -1.109  11.560  19.674  0.00  0.00    +0.000 A 
ATOM     19  C   UNL     1      -1.474  12.120  18.351  0.00  0.00    +0.000 C 
ATOM     20  N   UNL     1      -1.729  11.990  20.785  0.00  0.00    +0.000 NA
ATOM     21  N   UNL     1      -1.191  11.228  21.765  0.00  0.00    +0.000 N 
ATOM     22  C   UNL     1      -1.623  11.372  23.132  0.00  0.00    +0.000 C 
ENDBRANCH  10  12
ENDBRANCH   5   8
BRANCH   7  23
ATOM     23  S   UNL     1       4.334   3.264  18.361  0.00  0.00    +0.000 S 
ATOM     24  O   UNL     1       3.987   2.278  17.374  0.00  0.00    +0.000 OA
ATOM     25  O   UNL     1       5.522   3.104  19.178  0.00  0.00    +0.000 OA
BRANCH  23  26
ATOM     26  N   UNL     1       2.992   3.450  19.411  0.00  0.00    +0.000 NA
ATOM     27  C   UNL     1       1.821   2.622  19.076  0.00  0.00    +0.000 C 
ATOM     28  C   UNL     1       0.693   2.630  20.091  0.00  0.00    +0.000 C 
ATOM     29  C   UNL     1       1.176   2.613  21.527  0.00  0.00    +0.000 C 
ATOM     30  C   UNL     1       2.099   3.792  21.761  0.00  0.00    +0.000 C 
ATOM     31  C   UNL     1       3.290   3.823  20.812  0.00  0.00    +0.000 C 
ENDBRANCH  23  26
ENDBRANCH   7  23
TORSDOF 4
ENDMDL
MODEL 4
REMARK VINA RESULT:      -8.5      3.219      8.969
REMARK  Name = 
REMARK  7 active torsions:
REMARK  status: ('A' for Active; 'I' for Inactive)
REMARK    1  A    between atoms: C_1  and  C_2
REMARK    2  A    between atoms: C_5  and  C_6
REMARK    3  A    between atoms: N_8  and  C_9
REMARK    4  A    between atoms: C_15  and  C_16
REMARK    5  A    between atoms: N_18  and  C_19
REMARK    6  A    between atoms: C_21  and  S_22
REMARK    7  A    between atoms: S_22  and  N_25
REMARK                            x       y       z     vdW  Elec       q    Type
REMARK                         _______ _______ _______ _____ _____    ______ ____
ROOT
ATOM      1  C   UNL     1      -1.838  12.372  22.644  0.00  0.00    +0.000 C 
ATOM      2  C   UNL     1      -0.987  11.294  22.026  0.00  0.00    +0.000 A 
ATOM      3  C   UNL     1      -0.518  10.303  22.918  0.00  0.00    +0.000 A 
ATOM      4  C   UNL     1       0.253   9.229  22.478  0.00  0.00    +0.000 A 
ATOM      5  C   UNL     1       0.549   9.110  21.123  0.00  0.00    +0.000 A 
ATOM      6  C   UNL     1       0.098  10.077  20.218  0.00  0.00    +0.000 A 
ATOM      7  C   UNL     1      -0.643  11.182  20.655  0.00  0.00    +0.000 A 
ENDROOT
BRANCH   5   8
ATOM      8  C   UNL     1       1.371   7.989  20.601  0.00  0.00    +0.000 C 
ATOM      9  O   UNL     1       1.617   7.058  21.354  0.00  0.00    +0.000 OA
ATOM     10  N   UNL     1       1.829   8.147  19.310  0.00  0.00    +0.000 N 
ATOM     11  H   UNL     1       1.727   9.060  18.884  0.00  0.00    +0.000 HD
BRANCH  10  12
ATOM     12  C   UNL     1       2.629   7.220  18.615  0.00  0.00    +0.000 A 
ATOM     13  C   UNL     1       3.730   7.561  17.822  0.00  0.00    +0.000 A 
ATOM     14  N   UNL     1       4.501   6.700  17.114  0.00  0.00    +0.000 NA
ATOM     15  C   UNL     1       4.078   5.425  17.211  0.00  0.00    +0.000 A 
ATOM     16  C   UNL     1       3.010   4.948  17.958  0.00  0.00    +0.000 A 
ATOM     17  C   UNL     1       2.277   5.870  18.717  0.00  0.00    +0.000 A 
ATOM     18  C   UNL     1       2.968   3.558  17.680  0.00  0.00    +0.000 A 
ATOM     19  C   UNL     1       1.976   2.568  18.162  0.00  0.00    +0.000 C 
ATOM     20  N   UNL     1       3.950   3.180  16.846  0.00  0.00    +0.000 NA
ATOM     21  N   UNL     1       4.605   4.334  16.581  0.00  0.00    +0.000 N 
ATOM     22  C   UNL     1       5.732   4.354  15.685  0.00  0.00    +0.000 C 
ENDBRANCH  10  12
ENDBRANCH   5   8
BRANCH   7  23
ATOM     23  S   UNL     1      -1.224  12.290  19.341  0.00  0.00    +0.000 S 
ATOM     24  O   UNL     1      -1.881  13.396  19.983  0.00  0.00    +0.000 OA
ATOM     25  O   UNL     1      -0.104  12.513  18.447  0.00  0.00    +0.000 OA
BRANCH  23  26
ATOM     26  N   UNL     1      -2.413  11.399  18.485  0.00  0.00    +0.000 NA
ATOM     27  C   UNL     1      -3.794  11.884  18.655  0.00  0.00    +0.000 C 
ATOM     28  C   UNL     1      -4.838  11.231  17.767  0.00  0.00    +0.000 C 
ATOM     29  C   UNL     1      -4.352  10.976  16.354  0.00  0.00    +0.000 C 
ATOM     30  C   UNL     1      -3.098  10.127  16.399  0.00  0.00    +0.000 C 
ATOM     31  C   UNL     1      -1.981  10.745  17.230  0.00  0.00    +0.000 C 
ENDBRANCH  23  26
ENDBRANCH   7  23
TORSDOF 4
ENDMDL
MODEL 5
REMARK VINA RESULT:      -8.4      3.443      9.405
REMARK  Name = 
REMARK  7 active torsions:
REMARK  status: ('A' for Active; 'I' for Inactive)
REMARK    1  A    between atoms: C_1  and  C_2
REMARK    2  A    between atoms: C_5  and  C_6
REMARK    3  A    between atoms: N_8  and  C_9
REMARK    4  A    between atoms: C_15  and  C_16
REMARK    5  A    between atoms: N_18  and  C_19
REMARK    6  A    between atoms: C_21  and  S_22
REMARK    7  A    between atoms: S_22  and  N_25
REMARK                            x       y       z     vdW  Elec       q    Type
REMARK                         _______ _______ _______ _____ _____    ______ ____
ROOT
ATOM      1  C   UNL     1      -1.506  11.720  22.791  0.00  0.00    +0.000 C 
ATOM      2  C   UNL     1      -0.694  11.046  21.716  0.00  0.00    +0.000 A 
ATOM      3  C   UNL     1       0.049   9.918  22.132  0.00  0.00    +0.000 A 
ATOM      4  C   UNL     1       0.818   9.179  21.237  0.00  0.00    +0.000 A 
ATOM      5  C   UNL     1       0.839   9.541  19.893  0.00  0.00    +0.000 A 
ATOM      6  C   UNL     1       0.114  10.653  19.454  0.00  0.00    +0.000 A 
ATOM      7  C   UNL     1      -0.630  11.427  20.352  0.00  0.00    +0.000 A 
ENDROOT
BRANCH   5   8
ATOM      8  C   UNL     1       1.647   8.791  18.897  0.00  0.00    +0.000 C 
ATOM      9  O   UNL     1       1.717   9.236  17.761  0.00  0.00    +0.000 OA
ATOM     10  N   UNL     1       2.201   7.615  19.356  0.00  0.00    +0.000 N 
ATOM     11  H   UNL     1       1.885   7.265  20.252  0.00  0.00    +0.000 HD
BRANCH  10  12
ATOM     12  C   UNL     1       2.995   6.741  18.590  0.00  0.00    +0.000 A 
ATOM     13  C   UNL     1       4.014   7.150  17.722  0.00  0.00    +0.000 A 
ATOM     14  N   UNL     1       4.775   6.339  16.947  0.00  0.00    +0.000 NA
ATOM     15  C   UNL     1       4.430   5.043  17.056  0.00  0.00    +0.000 A 
ATOM     16  C   UNL     1       3.450   4.500  17.874  0.00  0.00    +0.000 A 
ATOM     17  C   UNL     1       2.726   5.372  18.699  0.00  0.00    +0.000 A 
ATOM     18  C   UNL     1       3.462   3.112  17.580  0.00  0.00    +0.000 A 
ATOM     19  C   UNL     1       2.564   2.064  18.120  0.00  0.00    +0.000 C 
ATOM     20  N   UNL     1       4.398   2.798  16.670  0.00  0.00    +0.000 NA
ATOM     21  N   UNL     1       4.968   3.989  16.374  0.00  0.00    +0.000 N 
ATOM     22  C   UNL     1       6.022   4.080  15.397  0.00  0.00    +0.000 C 
ENDBRANCH  10  12
ENDBRANCH   5   8
BRANCH   7  23
ATOM     23  S   UNL     1      -1.582  12.778  19.602  0.00  0.00    +0.000 S 
ATOM     24  O   UNL     1      -1.572  13.870  20.538  0.00  0.00    +0.000 OA
ATOM     25  O   UNL     1      -1.077  12.957  18.254  0.00  0.00    +0.000 OA
BRANCH  23  26
ATOM     26  N   UNL     1      -3.191  12.198  19.490  0.00  0.00    +0.000 NA
ATOM     27  C   UNL     1      -4.166  12.902  20.341  0.00  0.00    +0.000 C 
ATOM     28  C   UNL     1      -5.622  12.531  20.124  0.00  0.00    +0.000 C 
ATOM     29  C   UNL     1      -5.980  12.327  18.665  0.00  0.00    +0.000 C 
ATOM     30  C   UNL     1      -5.076  11.268  18.069  0.00  0.00    +0.000 C 
ATOM     31  C   UNL     1      -3.594  11.597  18.200  0.00  0.00    +0.000 C 
ENDBRANCH  23  26
ENDBRANCH   7  23
TORSDOF 4
ENDMDL
MODEL 6
REMARK VINA RESULT:      -8.3      3.525      9.446
REMARK  Name = 
REMARK  7 active torsions:
REMARK  status: ('A' for Active; 'I' for Inactive)
REMARK    1  A    between atoms: C_1  and  C_2
REMARK    2  A    between atoms: C_5  and  C_6
REMARK    3  A    between atoms: N_8  and  C_9
REMARK    4  A    between atoms: C_15  and  C_16
REMARK    5  A    between atoms: N_18  and  C_19
REMARK    6  A    between atoms: C_21  and  S_22
REMARK    7  A    between atoms: S_22  and  N_25
REMARK                            x       y       z     vdW  Elec       q    Type
REMARK                         _______ _______ _______ _____ _____    ______ ____
ROOT
ATOM      1  C   UNL     1      -1.509  11.266  22.900  0.00  0.00    +0.000 C 
ATOM      2  C   UNL     1      -0.666  10.700  21.786  0.00  0.00    +0.000 A 
ATOM      3  C   UNL     1       0.080   9.546  22.114  0.00  0.00    +0.000 A 
ATOM      4  C   UNL     1       0.877   8.900  21.172  0.00  0.00    +0.000 A 
ATOM      5  C   UNL     1       0.922   9.383  19.868  0.00  0.00    +0.000 A 
ATOM      6  C   UNL     1       0.194  10.524  19.516  0.00  0.00    +0.000 A 
ATOM      7  C   UNL     1      -0.579  11.205  20.465  0.00  0.00    +0.000 A 
ENDROOT
BRANCH   5   8
ATOM      8  C   UNL     1       1.760   8.736  18.826  0.00  0.00    +0.000 C 
ATOM      9  O   UNL     1       1.787   9.242  17.714  0.00  0.00    +0.000 OA
ATOM     10  N   UNL     1       2.388   7.573  19.216  0.00  0.00    +0.000 N 
ATOM     11  H   UNL     1       2.106   7.159  20.096  0.00  0.00    +0.000 HD
BRANCH  10  12
ATOM     12  C   UNL     1       3.223   6.788  18.397  0.00  0.00    +0.000 A 
ATOM     13  C   UNL     1       2.857   5.558  17.840  0.00  0.00    +0.000 A 
ATOM     14  N   UNL     1       3.644   4.763  17.075  0.00  0.00    +0.000 NA
ATOM     15  C   UNL     1       4.885   5.260  16.916  0.00  0.00    +0.000 A 
ATOM     16  C   UNL     1       5.379   6.460  17.406  0.00  0.00    +0.000 A 
ATOM     17  C   UNL     1       4.510   7.274  18.146  0.00  0.00    +0.000 A 
ATOM     18  C   UNL     1       6.737   6.486  16.996  0.00  0.00    +0.000 A 
ATOM     19  C   UNL     1       7.759   7.512  17.311  0.00  0.00    +0.000 C 
ATOM     20  N   UNL     1       7.068   5.401  16.278  0.00  0.00    +0.000 NA
ATOM     21  N   UNL     1       5.924   4.679  16.246  0.00  0.00    +0.000 N 
ATOM     22  C   UNL     1       5.874   3.404  15.576  0.00  0.00    +0.000 C 
ENDBRANCH  10  12
ENDBRANCH   5   8
BRANCH   7  23
ATOM     23  S   UNL     1      -1.530  12.610  19.821  0.00  0.00    +0.000 S 
ATOM     24  O   UNL     1      -1.904  13.418  20.950  0.00  0.00    +0.000 OA
ATOM     25  O   UNL     1      -0.763  13.178  18.728  0.00  0.00    +0.000 OA
BRANCH  23  26
ATOM     26  N   UNL     1      -2.960  11.931  19.164  0.00  0.00    +0.000 NA
ATOM     27  C   UNL     1      -4.215  12.454  19.734  0.00  0.00    +0.000 C 
ATOM     28  C   UNL     1      -5.491  12.007  19.044  0.00  0.00    +0.000 C 
ATOM     29  C   UNL     1      -5.373  11.956  17.534  0.00  0.00    +0.000 C 
ATOM     30  C   UNL     1      -4.224  11.046  17.150  0.00  0.00    +0.000 C 
ATOM     31  C   UNL     1      -2.893  11.464  17.762  0.00  0.00    +0.000 C 
ENDBRANCH  23  26
ENDBRANCH   7  23
TORSDOF 4
ENDMDL
MODEL 7
REMARK VINA RESULT:      -8.3      2.497      4.327
REMARK  Name = 
REMARK  7 active torsions:
REMARK  status: ('A' for Active; 'I' for Inactive)
REMARK    1  A    between atoms: C_1  and  C_2
REMARK    2  A    between atoms: C_5  and  C_6
REMARK    3  A    between atoms: N_8  and  C_9
REMARK    4  A    between atoms: C_15  and  C_16
REMARK    5  A    between atoms: N_18  and  C_19
REMARK    6  A    between atoms: C_21  and  S_22
REMARK    7  A    between atoms: S_22  and  N_25
REMARK                            x       y       z     vdW  Elec       q    Type
REMARK                         _______ _______ _______ _____ _____    ______ ____
ROOT
ATOM      1  C   UNL     1       4.522   3.095  17.499  0.00  0.00    +0.000 C 
ATOM      2  C   UNL     1       4.015   4.510  17.609  0.00  0.00    +0.000 A 
ATOM      3  C   UNL     1       2.729   4.653  18.180  0.00  0.00    +0.000 A 
ATOM      4  C   UNL     1       2.150   5.904  18.372  0.00  0.00    +0.000 A 
ATOM      5  C   UNL     1       2.862   7.048  18.020  0.00  0.00    +0.000 A 
ATOM      6  C   UNL     1       4.135   6.936  17.453  0.00  0.00    +0.000 A 
ATOM      7  C   UNL     1       4.710   5.680  17.218  0.00  0.00    +0.000 A 
ENDROOT
BRANCH   5   8
ATOM      8  C   UNL     1       2.289   8.406  18.197  0.00  0.00    +0.000 C 
ATOM      9  O   UNL     1       2.580   9.265  17.378  0.00  0.00    +0.000 OA
ATOM     10  N   UNL     1       1.517   8.576  19.327  0.00  0.00    +0.000 N 
ATOM     11  H   UNL     1       1.537   7.841  20.024  0.00  0.00    +0.000 HD
BRANCH  10  12
ATOM     12  C   UNL     1       0.882   9.774  19.703  0.00  0.00    +0.000 A 
ATOM     13  C   UNL     1       1.370  10.661  20.669  0.00  0.00    +0.000 A 
ATOM     14  N   UNL     1       0.770  11.805  21.077  0.00  0.00    +0.000 NA
ATOM     15  C   UNL     1      -0.415  12.014  20.473  0.00  0.00    +0.000 A 
ATOM     16  C   UNL     1      -1.014  11.226  19.502  0.00  0.00    +0.000 A 
ATOM     17  C   UNL     1      -0.328  10.081  19.072  0.00  0.00    +0.000 A 
ATOM     18  C   UNL     1      -2.255  11.859  19.237  0.00  0.00    +0.000 A 
ATOM     19  C   UNL     1      -3.331  11.399  18.327  0.00  0.00    +0.000 C 
ATOM     20  N   UNL     1      -2.416  12.977  19.963  0.00  0.00    +0.000 NA
ATOM     21  N   UNL     1      -1.283  13.044  20.700  0.00  0.00    +0.000 N 
ATOM     22  C   UNL     1      -1.081  14.112  21.646  0.00  0.00    +0.000 C 
ENDBRANCH  10  12
ENDBRANCH   5   8
BRANCH   7  23
ATOM     23  S   UNL     1       6.402   5.718  16.561  0.00  0.00    +0.000 S 
ATOM     24  O   UNL     1       6.864   7.075  16.665  0.00  0.00    +0.000 OA
ATOM     25  O   UNL     1       7.130   4.639  17.202  0.00  0.00    +0.000 OA
BRANCH  23  26
ATOM     26  N   UNL     1       6.255   5.339  14.896  0.00  0.00    +0.000 NA
ATOM     27  C   UNL     1       7.515   5.388  14.134  0.00  0.00    +0.000 C 
ATOM     28  C   UNL     1       7.444   4.880  12.705  0.00  0.00    +0.000 C 
ATOM     29  C   UNL     1       6.574   3.649  12.547  0.00  0.00    +0.000 C 
ATOM     30  C   UNL     1       5.182   3.946  13.067  0.00  0.00    +0.000 C 
ATOM     31  C   UNL     1       5.167   4.410  14.517  0.00  0.00    +0.000 C 
ENDBRANCH  23  26
ENDBRANCH   7  23
TORSDOF 4
ENDMDL
MODEL 8
REMARK VINA RESULT:      -8.3      3.668      9.527
REMARK  Name = 
REMARK  7 active torsions:
REMARK  status: ('A' for Active; 'I' for Inactive)
REMARK    1  A    between atoms: C_1  and  C_2
REMARK    2  A    between atoms: C_5  and  C_6
REMARK    3  A    between atoms: N_8  and  C_9
REMARK    4  A    between atoms: C_15  and  C_16
REMARK    5  A    between atoms: N_18  and  C_19
REMARK    6  A    between atoms: C_21  and  S_22
REMARK    7  A    between atoms: S_22  and  N_25
REMARK                            x       y       z     vdW  Elec       q    Type
REMARK                         _______ _______ _______ _____ _____    ______ ____
ROOT
ATOM      1  C   UNL     1      -3.206  12.864  22.815  0.00  0.00    +0.000 C 
ATOM      2  C   UNL     1      -2.075  11.937  22.453  0.00  0.00    +0.000 A 
ATOM      3  C   UNL     1      -1.675  11.039  23.469  0.00  0.00    +0.000 A 
ATOM      4  C   UNL     1      -0.665  10.104  23.261  0.00  0.00    +0.000 A 
ATOM      5  C   UNL     1      -0.047  10.030  22.015  0.00  0.00    +0.000 A 
ATOM      6  C   UNL     1      -0.423  10.907  20.993  0.00  0.00    +0.000 A 
ATOM      7  C   UNL     1      -1.410  11.878  21.203  0.00  0.00    +0.000 A 
ENDROOT
BRANCH   5   8
ATOM      8  C   UNL     1       1.040   9.056  21.742  0.00  0.00    +0.000 C 
ATOM      9  O   UNL     1       2.065   9.139  22.401  0.00  0.00    +0.000 OA
ATOM     10  N   UNL     1       0.795   8.176  20.709  0.00  0.00    +0.000 N 
ATOM     11  H   UNL     1      -0.004   8.361  20.114  0.00  0.00    +0.000 HD
BRANCH  10  12
ATOM     12  C   UNL     1       1.681   7.176  20.269  0.00  0.00    +0.000 A 
ATOM     13  C   UNL     1       2.619   7.342  19.245  0.00  0.00    +0.000 A 
ATOM     14  N   UNL     1       3.465   6.392  18.775  0.00  0.00    +0.000 NA
ATOM     15  C   UNL     1       3.297   5.202  19.380  0.00  0.00    +0.000 A 
ATOM     16  C   UNL     1       2.413   4.898  20.405  0.00  0.00    +0.000 A 
ATOM     17  C   UNL     1       1.597   5.928  20.895  0.00  0.00    +0.000 A 
ATOM     18  C   UNL     1       2.602   3.513  20.647  0.00  0.00    +0.000 A 
ATOM     19  C   UNL     1       1.861   2.650  21.597  0.00  0.00    +0.000 C 
ATOM     20  N   UNL     1       3.553   2.989  19.857  0.00  0.00    +0.000 NA
ATOM     21  N   UNL     1       3.954   4.038  19.102  0.00  0.00    +0.000 N 
ATOM     22  C   UNL     1       4.967   3.874  18.091  0.00  0.00    +0.000 C 
ENDBRANCH  10  12
ENDBRANCH   5   8
BRANCH   7  23
ATOM     23  S   UNL     1      -1.839  12.871  19.746  0.00  0.00    +0.000 S 
ATOM     24  O   UNL     1      -2.348  14.126  20.228  0.00  0.00    +0.000 OA
ATOM     25  O   UNL     1      -0.696  12.831  18.853  0.00  0.00    +0.000 OA
BRANCH  23  26
ATOM     26  N   UNL     1      -3.130  12.037  18.988  0.00  0.00    +0.000 NA
ATOM     27  C   UNL     1      -4.477  12.480  19.390  0.00  0.00    +0.000 C 
ATOM     28  C   UNL     1      -5.631  11.888  18.601  0.00  0.00    +0.000 C 
ATOM     29  C   UNL     1      -5.346  11.767  17.118  0.00  0.00    +0.000 C 
ATOM     30  C   UNL     1      -4.092  10.940  16.912  0.00  0.00    +0.000 C 
ATOM     31  C   UNL     1      -2.874  11.503  17.632  0.00  0.00    +0.000 C 
ENDBRANCH  23  26
ENDBRANCH   7  23
TORSDOF 4
ENDMDL
MODEL 9
REMARK VINA RESULT:      -8.2      3.435      9.402
REMARK  Name = 
REMARK  7 active torsions:
REMARK  status: ('A' for Active; 'I' for Inactive)
REMARK    1  A    between atoms: C_1  and  C_2
REMARK    2  A    between atoms: C_5  and  C_6
REMARK    3  A    between atoms: N_8  and  C_9
REMARK    4  A    between atoms: C_15  and  C_16
REMARK    5  A    between atoms: N_18  and  C_19
REMARK    6  A    between atoms: C_21  and  S_22
REMARK    7  A    between atoms: S_22  and  N_25
REMARK                            x       y       z     vdW  Elec       q    Type
REMARK                         _______ _______ _______ _____ _____    ______ ____
ROOT
ATOM      1  C   UNL     1      -2.003  12.374  23.262  0.00  0.00    +0.000 C 
ATOM      2  C   UNL     1      -1.179  11.420  22.437  0.00  0.00    +0.000 A 
ATOM      3  C   UNL     1      -0.570  10.366  23.154  0.00  0.00    +0.000 A 
ATOM      4  C   UNL     1       0.194   9.393  22.514  0.00  0.00    +0.000 A 
ATOM      5  C   UNL     1       0.341   9.439  21.131  0.00  0.00    +0.000 A 
ATOM      6  C   UNL     1      -0.252  10.471  20.396  0.00  0.00    +0.000 A 
ATOM      7  C   UNL     1      -0.987  11.478  21.034  0.00  0.00    +0.000 A 
ENDROOT
BRANCH   5   8
ATOM      8  C   UNL     1       1.148   8.431  20.399  0.00  0.00    +0.000 C 
ATOM      9  O   UNL     1       1.631   8.751  19.323  0.00  0.00    +0.000 OA
ATOM     10  N   UNL     1       1.223   7.191  20.998  0.00  0.00    +0.000 N 
ATOM     11  H   UNL     1       0.601   7.006  21.775  0.00  0.00    +0.000 HD
BRANCH  10  12
ATOM     12  C   UNL     1       1.924   6.084  20.484  0.00  0.00    +0.000 A 
ATOM     13  C   UNL     1       1.955   4.818  21.080  0.00  0.00    +0.000 A 
ATOM     14  N   UNL     1       2.643   3.741  20.631  0.00  0.00    +0.000 NA
ATOM     15  C   UNL     1       3.364   4.009  19.526  0.00  0.00    +0.000 A 
ATOM     16  C   UNL     1       3.424   5.209  18.832  0.00  0.00    +0.000 A 
ATOM     17  C   UNL     1       2.650   6.279  19.304  0.00  0.00    +0.000 A 
ATOM     18  C   UNL     1       4.349   4.974  17.783  0.00  0.00    +0.000 A 
ATOM     19  C   UNL     1       4.843   5.944  16.777  0.00  0.00    +0.000 C 
ATOM     20  N   UNL     1       4.815   3.715  17.794  0.00  0.00    +0.000 NA
ATOM     21  N   UNL     1       4.198   3.156  18.861  0.00  0.00    +0.000 N 
ATOM     22  C   UNL     1       4.460   1.789  19.232  0.00  0.00    +0.000 C 
ENDBRANCH  10  12
ENDBRANCH   5   8
BRANCH   7  23
ATOM     23  S   UNL     1      -1.762  12.688  19.925  0.00  0.00    +0.000 S 
ATOM     24  O   UNL     1      -2.692  13.448  20.715  0.00  0.00    +0.000 OA
ATOM     25  O   UNL     1      -0.691  13.351  19.205  0.00  0.00    +0.000 OA
BRANCH  23  26
ATOM     26  N   UNL     1      -2.663  11.764  18.798  0.00  0.00    +0.000 NA
ATOM     27  C   UNL     1      -4.125  11.815  18.979  0.00  0.00    +0.000 C 
ATOM     28  C   UNL     1      -4.950  11.158  17.888  0.00  0.00    +0.000 C 
ATOM     29  C   UNL     1      -4.406  11.400  16.494  0.00  0.00    +0.000 C 
ATOM     30  C   UNL     1      -2.970  10.922  16.424  0.00  0.00    +0.000 C 
ATOM     31  C   UNL     1      -2.064  11.579  17.457  0.00  0.00    +0.000 C 
ENDBRANCH  23  26
ENDBRANCH   7  23
TORSDOF 4
ENDMDL
