MODEL 1
REMARK VINA RESULT:      -8.4      0.000      0.000
REMARK  Name = 
REMARK  7 active torsions:
REMARK  status: ('A' for Active; 'I' for Inactive)
REMARK    1  A    between atoms: C_2  and  C_3
REMARK    2  A    between atoms: C_3  and  C_4
REMARK    3  A    between atoms: C_4  and  C_5
REMARK    4  A    between atoms: N_11  and  C_12
REMARK    5  A    between atoms: C_12  and  C_13
REMARK    6  A    between atoms: C_16  and  C_17
REMARK    7  A    between atoms: C_17  and  N_18
REMARK                            x       y       z     vdW  Elec       q    Type
REMARK                         _______ _______ _______ _____ _____    ______ ____
ROOT
ATOM      1  C   UNL     1       7.539   6.989  18.126  0.00  0.00    +0.000 A 
ATOM      2  C   UNL     1       7.600   5.665  18.582  0.00  0.00    +0.000 A 
ATOM      3  C   UNL     1       6.639   4.724  18.188  0.00  0.00    +0.000 A 
ATOM      4  C   UNL     1       5.589   5.085  17.327  0.00  0.00    +0.000 A 
ATOM      5  C   UNL     1       5.533   6.405  16.864  0.00  0.00    +0.000 A 
ATOM      6  C   UNL     1       6.499   7.343  17.251  0.00  0.00    +0.000 A 
ENDROOT
BRANCH   1   7
ATOM      7  C   UNL     1       8.570   8.004  18.547  0.00  0.00    +0.000 C 
BRANCH   7  10
ATOM      8  O   UNL     1       9.739  10.407  19.392  0.00  0.00    +0.000 OA
ATOM      9  C   UNL     1       8.948  10.437  18.455  0.00  0.00    +0.000 C 
ATOM     10  N   UNL     1       8.311   9.309  17.978  0.00  0.00    +0.000 N 
ATOM     11  H   UNL     1       7.670   9.378  17.200  0.00  0.00    +0.000 HD
BRANCH   9  12
ATOM     12  C   UNL     1       8.539  11.715  17.747  0.00  0.00    +0.000 C 
BRANCH  12  13
ATOM     13  C   UNL     1       8.721  12.940  18.644  0.00  0.00    +0.000 C 
BRANCH  13  14
ATOM     14  C   UNL     1       9.591  13.999  18.006  0.00  0.00    +0.000 A 
ATOM     15  C   UNL     1       9.191  15.342  18.002  0.00  0.00    +0.000 A 
ATOM     16  C   UNL     1      10.003  16.325  17.432  0.00  0.00    +0.000 A 
ATOM     17  C   UNL     1      11.221  15.975  16.853  0.00  0.00    +0.000 A 
ATOM     18  C   UNL     1      11.624  14.640  16.841  0.00  0.00    +0.000 A 
ATOM     19  C   UNL     1      10.813  13.657  17.411  0.00  0.00    +0.000 A 
ENDBRANCH  13  14
ENDBRANCH  12  13
ENDBRANCH   9  12
ENDBRANCH   7  10
ENDBRANCH   1   7
BRANCH   4  20
ATOM     20  C   UNL     1       4.588   4.059  16.853  0.00  0.00    +0.000 C 
BRANCH  20  21
ATOM     21  N   UNL     1       3.908   3.301  17.900  0.00  0.00    +0.000 N 
ATOM     22  C   UNL     1       3.606   1.965  17.840  0.00  0.00    +0.000 A 
ATOM     23  N   UNL     1       2.603   1.649  18.626  0.00  0.00    +0.000 NA
ATOM     24  C   UNL     1       2.249   2.820  19.244  0.00  0.00    +0.000 A 
ATOM     25  C   UNL     1       1.175   3.081  20.108  0.00  0.00    +0.000 A 
ATOM     26  C   UNL     1       1.008   4.377  20.608  0.00  0.00    +0.000 A 
ATOM     27  C   UNL     1       1.922   5.383  20.292  0.00  0.00    +0.000 A 
ATOM     28  C   UNL     1       2.996   5.146  19.424  0.00  0.00    +0.000 A 
ATOM     29  C   UNL     1       3.109   3.858  18.882  0.00  0.00    +0.000 A 
ENDBRANCH  20  21
ENDBRANCH   4  20
TORSDOF 7
ENDMDL
MODEL 2
REMARK VINA RESULT:      -8.4      5.231      8.670
REMARK  Name = 
REMARK  7 active torsions:
REMARK  status: ('A' for Active; 'I' for Inactive)
REMARK    1  A    between atoms: C_2  and  C_3
REMARK    2  A    between atoms: C_3  and  C_4
REMARK    3  A    between atoms: C_4  and  C_5
REMARK    4  A    between atoms: N_11  and  C_12
REMARK    5  A    between atoms: C_12  and  C_13
REMARK    6  A    between atoms: C_16  and  C_17
REMARK    7  A    between atoms: C_17  and  N_18
REMARK                            x       y       z     vdW  Elec       q    Type
REMARK                         _______ _______ _______ _____ _____    ______ ____
ROOT
ATOM      1  C   UNL     1       1.438   8.458  20.330  0.00  0.00    +0.000 A 
ATOM      2  C   UNL     1       1.677   7.139  20.740  0.00  0.00    +0.000 A 
ATOM      3  C   UNL     1       2.200   6.194  19.848  0.00  0.00    +0.000 A 
ATOM      4  C   UNL     1       2.495   6.543  18.519  0.00  0.00    +0.000 A 
ATOM      5  C   UNL     1       2.264   7.863  18.112  0.00  0.00    +0.000 A 
ATOM      6  C   UNL     1       1.750   8.810  19.008  0.00  0.00    +0.000 A 
ENDROOT
BRANCH   1   7
ATOM      7  C   UNL     1       0.875   9.478  21.286  0.00  0.00    +0.000 C 
BRANCH   7  10
ATOM      8  O   UNL     1       1.435  12.224  21.344  0.00  0.00    +0.000 OA
ATOM      9  C   UNL     1       0.481  11.833  20.679  0.00  0.00    +0.000 C 
ATOM     10  N   UNL     1       0.118  10.503  20.602  0.00  0.00    +0.000 N 
ATOM     11  H   UNL     1      -0.673  10.225  20.038  0.00  0.00    +0.000 HD
BRANCH   9  12
ATOM     12  C   UNL     1      -0.438  12.764  19.911  0.00  0.00    +0.000 C 
BRANCH  12  13
ATOM     13  C   UNL     1      -0.564  12.350  18.445  0.00  0.00    +0.000 C 
BRANCH  13  14
ATOM     14  C   UNL     1      -1.848  11.604  18.164  0.00  0.00    +0.000 A 
ATOM     15  C   UNL     1      -1.830  10.397  17.451  0.00  0.00    +0.000 A 
ATOM     16  C   UNL     1      -3.012   9.696  17.208  0.00  0.00    +0.000 A 
ATOM     17  C   UNL     1      -4.228  10.198  17.667  0.00  0.00    +0.000 A 
ATOM     18  C   UNL     1      -4.261  11.403  18.366  0.00  0.00    +0.000 A 
ATOM     19  C   UNL     1      -3.079  12.105  18.610  0.00  0.00    +0.000 A 
ENDBRANCH  13  14
ENDBRANCH  12  13
ENDBRANCH   9  12
ENDBRANCH   7  10
ENDBRANCH   1   7
BRANCH   4  20
ATOM     20  C   UNL     1       3.114   5.542  17.574  0.00  0.00    +0.000 C 
BRANCH  20  21
ATOM     21  N   UNL     1       4.440   5.053  17.942  0.00  0.00    +0.000 N 
ATOM     22  C   UNL     1       4.689   4.005  18.790  0.00  0.00    +0.000 A 
ATOM     23  N   UNL     1       5.882   4.082  19.334  0.00  0.00    +0.000 NA
ATOM     24  C   UNL     1       6.446   5.213  18.803  0.00  0.00    +0.000 A 
ATOM     25  C   UNL     1       7.670   5.826  19.112  0.00  0.00    +0.000 A 
ATOM     26  C   UNL     1       8.028   6.998  18.438  0.00  0.00    +0.000 A 
ATOM     27  C   UNL     1       7.206   7.523  17.440  0.00  0.00    +0.000 A 
ATOM     28  C   UNL     1       5.975   6.932  17.123  0.00  0.00    +0.000 A 
ATOM     29  C   UNL     1       5.604   5.795  17.855  0.00  0.00    +0.000 A 
ENDBRANCH  20  21
ENDBRANCH   4  20
TORSDOF 7
ENDMDL
MODEL 3
REMARK VINA RESULT:      -8.3      5.831     10.013
REMARK  Name = 
REMARK  7 active torsions:
REMARK  status: ('A' for Active; 'I' for Inactive)
REMARK    1  A    between atoms: C_2  and  C_3
REMARK    2  A    between atoms: C_3  and  C_4
REMARK    3  A    between atoms: C_4  and  C_5
REMARK    4  A    between atoms: N_11  and  C_12
REMARK    5  A    between atoms: C_12  and  C_13
REMARK    6  A    between atoms: C_16  and  C_17
REMARK    7  A    between atoms: C_17  and  N_18
REMARK                            x       y       z     vdW  Elec       q    Type
REMARK                         _______ _______ _______ _____ _____    ______ ____
ROOT
ATOM      1  C   UNL     1       2.834   7.864  18.225  0.00  0.00    +0.000 A 
ATOM      2  C   UNL     1       2.411   7.349  19.458  0.00  0.00    +0.000 A 
ATOM      3  C   UNL     1       1.446   8.016  20.223  0.00  0.00    +0.000 A 
ATOM      4  C   UNL     1       0.877   9.221  19.774  0.00  0.00    +0.000 A 
ATOM      5  C   UNL     1       1.292   9.731  18.538  0.00  0.00    +0.000 A 
ATOM      6  C   UNL     1       2.252   9.057  17.770  0.00  0.00    +0.000 A 
ENDROOT
BRANCH   1   7
ATOM      7  C   UNL     1       3.873   7.150  17.400  0.00  0.00    +0.000 C 
BRANCH   7  10
ATOM      8  O   UNL     1       5.344   5.276  15.924  0.00  0.00    +0.000 OA
ATOM      9  C   UNL     1       4.573   4.869  16.786  0.00  0.00    +0.000 C 
ATOM     10  N   UNL     1       3.795   5.714  17.553  0.00  0.00    +0.000 N 
ATOM     11  H   UNL     1       3.176   5.335  18.256  0.00  0.00    +0.000 HD
BRANCH   9  12
ATOM     12  C   UNL     1       4.344   3.397  17.074  0.00  0.00    +0.000 C 
BRANCH  12  13
ATOM     13  C   UNL     1       2.864   3.089  17.299  0.00  0.00    +0.000 C 
BRANCH  13  14
ATOM     14  C   UNL     1       2.477   3.144  18.759  0.00  0.00    +0.000 A 
ATOM     15  C   UNL     1       1.263   3.723  19.154  0.00  0.00    +0.000 A 
ATOM     16  C   UNL     1       0.894   3.756  20.500  0.00  0.00    +0.000 A 
ATOM     17  C   UNL     1       1.739   3.218  21.468  0.00  0.00    +0.000 A 
ATOM     18  C   UNL     1       2.954   2.651  21.090  0.00  0.00    +0.000 A 
ATOM     19  C   UNL     1       3.323   2.617  19.744  0.00  0.00    +0.000 A 
ENDBRANCH  13  14
ENDBRANCH  12  13
ENDBRANCH   9  12
ENDBRANCH   7  10
ENDBRANCH   1   7
BRANCH   4  20
ATOM     20  C   UNL     1      -0.207   9.909  20.567  0.00  0.00    +0.000 C 
BRANCH  20  21
ATOM     21  N   UNL     1      -0.927  10.973  19.872  0.00  0.00    +0.000 N 
ATOM     22  C   UNL     1      -1.118  12.243  20.353  0.00  0.00    +0.000 A 
ATOM     23  N   UNL     1      -2.167  12.822  19.816  0.00  0.00    +0.000 NA
ATOM     24  C   UNL     1      -2.670  11.903  18.931  0.00  0.00    +0.000 A 
ATOM     25  C   UNL     1      -3.842  11.958  18.161  0.00  0.00    +0.000 A 
ATOM     26  C   UNL     1      -4.157  10.878  17.331  0.00  0.00    +0.000 A 
ATOM     27  C   UNL     1      -3.296   9.784  17.231  0.00  0.00    +0.000 A 
ATOM     28  C   UNL     1      -2.126   9.705  17.999  0.00  0.00    +0.000 A 
ATOM     29  C   UNL     1      -1.861  10.768  18.873  0.00  0.00    +0.000 A 
ENDBRANCH  20  21
ENDBRANCH   4  20
TORSDOF 7
ENDMDL
MODEL 4
REMARK VINA RESULT:      -8.3      6.190      9.857
REMARK  Name = 
REMARK  7 active torsions:
REMARK  status: ('A' for Active; 'I' for Inactive)
REMARK    1  A    between atoms: C_2  and  C_3
REMARK    2  A    between atoms: C_3  and  C_4
REMARK    3  A    between atoms: C_4  and  C_5
REMARK    4  A    between atoms: N_11  and  C_12
REMARK    5  A    between atoms: C_12  and  C_13
REMARK    6  A    between atoms: C_16  and  C_17
REMARK    7  A    between atoms: C_17  and  N_18
REMARK                            x       y       z     vdW  Elec       q    Type
REMARK                         _______ _______ _______ _____ _____    ______ ____
ROOT
ATOM      1  C   UNL     1       1.753   8.770  18.883  0.00  0.00    +0.000 A 
ATOM      2  C   UNL     1       1.725   8.026  20.071  0.00  0.00    +0.000 A 
ATOM      3  C   UNL     1       2.189   6.705  20.102  0.00  0.00    +0.000 A 
ATOM      4  C   UNL     1       2.692   6.090  18.942  0.00  0.00    +0.000 A 
ATOM      5  C   UNL     1       2.729   6.836  17.758  0.00  0.00    +0.000 A 
ATOM      6  C   UNL     1       2.273   8.161  17.730  0.00  0.00    +0.000 A 
ENDROOT
BRANCH   1   7
ATOM      7  C   UNL     1       1.254  10.192  18.845  0.00  0.00    +0.000 C 
BRANCH   7  10
ATOM      8  O   UNL     1      -1.381  10.778  19.600  0.00  0.00    +0.000 OA
ATOM      9  C   UNL     1      -1.126  10.654  18.406  0.00  0.00    +0.000 C 
ATOM     10  N   UNL     1       0.137  10.351  17.939  0.00  0.00    +0.000 N 
ATOM     11  H   UNL     1       0.304  10.263  16.946  0.00  0.00    +0.000 HD
BRANCH   9  12
ATOM     12  C   UNL     1      -2.172  10.766  17.313  0.00  0.00    +0.000 C 
BRANCH  12  13
ATOM     13  C   UNL     1      -3.396   9.901  17.612  0.00  0.00    +0.000 C 
BRANCH  13  14
ATOM     14  C   UNL     1      -4.670  10.712  17.695  0.00  0.00    +0.000 A 
ATOM     15  C   UNL     1      -5.712  10.316  18.545  0.00  0.00    +0.000 A 
ATOM     16  C   UNL     1      -6.881  11.074  18.639  0.00  0.00    +0.000 A 
ATOM     17  C   UNL     1      -7.024  12.233  17.878  0.00  0.00    +0.000 A 
ATOM     18  C   UNL     1      -5.999  12.630  17.021  0.00  0.00    +0.000 A 
ATOM     19  C   UNL     1      -4.830  11.873  16.927  0.00  0.00    +0.000 A 
ENDBRANCH  13  14
ENDBRANCH  12  13
ENDBRANCH   9  12
ENDBRANCH   7  10
ENDBRANCH   1   7
BRANCH   4  20
ATOM     20  C   UNL     1       3.249   4.688  18.987  0.00  0.00    +0.000 C 
BRANCH  20  21
ATOM     21  N   UNL     1       4.677   4.560  18.713  0.00  0.00    +0.000 N 
ATOM     22  C   UNL     1       5.683   4.965  19.553  0.00  0.00    +0.000 A 
ATOM     23  N   UNL     1       6.801   5.201  18.907  0.00  0.00    +0.000 NA
ATOM     24  C   UNL     1       6.524   4.917  17.595  0.00  0.00    +0.000 A 
ATOM     25  C   UNL     1       7.328   5.092  16.458  0.00  0.00    +0.000 A 
ATOM     26  C   UNL     1       6.814   4.738  15.206  0.00  0.00    +0.000 A 
ATOM     27  C   UNL     1       5.542   4.175  15.093  0.00  0.00    +0.000 A 
ATOM     28  C   UNL     1       4.720   4.001  16.215  0.00  0.00    +0.000 A 
ATOM     29  C   UNL     1       5.227   4.422  17.452  0.00  0.00    +0.000 A 
ENDBRANCH  20  21
ENDBRANCH   4  20
TORSDOF 7
ENDMDL
MODEL 5
REMARK VINA RESULT:      -8.3      6.060      8.730
REMARK  Name = 
REMARK  7 active torsions:
REMARK  status: ('A' for Active; 'I' for Inactive)
REMARK    1  A    between atoms: C_2  and  C_3
REMARK    2  A    between atoms: C_3  and  C_4
REMARK    3  A    between atoms: C_4  and  C_5
REMARK    4  A    between atoms: N_11  and  C_12
REMARK    5  A    between atoms: C_12  and  C_13
REMARK    6  A    between atoms: C_16  and  C_17
REMARK    7  A    between atoms: C_17  and  N_18
REMARK                            x       y       z     vdW  Elec       q    Type
REMARK                         _______ _______ _______ _____ _____    ______ ____
ROOT
ATOM      1  C   UNL     1       1.720   7.112  20.358  0.00  0.00    +0.000 A 
ATOM      2  C   UNL     1       2.349   7.412  19.142  0.00  0.00    +0.000 A 
ATOM      3  C   UNL     1       2.872   6.395  18.334  0.00  0.00    +0.000 A 
ATOM      4  C   UNL     1       2.783   5.047  18.723  0.00  0.00    +0.000 A 
ATOM      5  C   UNL     1       2.146   4.747  19.934  0.00  0.00    +0.000 A 
ATOM      6  C   UNL     1       1.615   5.765  20.737  0.00  0.00    +0.000 A 
ENDROOT
BRANCH   1   7
ATOM      7  C   UNL     1       1.156   8.204  21.231  0.00  0.00    +0.000 C 
BRANCH   7  10
ATOM      8  O   UNL     1       0.763  10.854  22.055  0.00  0.00    +0.000 OA
ATOM      9  C   UNL     1       0.366  10.520  20.944  0.00  0.00    +0.000 C 
ATOM     10  N   UNL     1       0.501   9.235  20.456  0.00  0.00    +0.000 N 
ATOM     11  H   UNL     1       0.164   9.004  19.532  0.00  0.00    +0.000 HD
BRANCH   9  12
ATOM     12  C   UNL     1      -0.361  11.458  20.000  0.00  0.00    +0.000 C 
BRANCH  12  13
ATOM     13  C   UNL     1      -0.397  10.909  18.574  0.00  0.00    +0.000 C 
BRANCH  13  14
ATOM     14  C   UNL     1      -1.791  10.911  17.989  0.00  0.00    +0.000 A 
ATOM     15  C   UNL     1      -2.835  11.585  18.638  0.00  0.00    +0.000 A 
ATOM     16  C   UNL     1      -4.118  11.606  18.088  0.00  0.00    +0.000 A 
ATOM     17  C   UNL     1      -4.375  10.947  16.888  0.00  0.00    +0.000 A 
ATOM     18  C   UNL     1      -3.348  10.263  16.239  0.00  0.00    +0.000 A 
ATOM     19  C   UNL     1      -2.064  10.243  16.788  0.00  0.00    +0.000 A 
ENDBRANCH  13  14
ENDBRANCH  12  13
ENDBRANCH   9  12
ENDBRANCH   7  10
ENDBRANCH   1   7
BRANCH   4  20
ATOM     20  C   UNL     1       3.292   3.946  17.825  0.00  0.00    +0.000 C 
BRANCH  20  21
ATOM     21  N   UNL     1       4.739   3.891  17.641  0.00  0.00    +0.000 N 
ATOM     22  C   UNL     1       5.670   4.095  18.627  0.00  0.00    +0.000 A 
ATOM     23  N   UNL     1       6.828   4.480  18.143  0.00  0.00    +0.000 NA
ATOM     24  C   UNL     1       6.656   4.507  16.783  0.00  0.00    +0.000 A 
ATOM     25  C   UNL     1       7.538   4.944  15.783  0.00  0.00    +0.000 A 
ATOM     26  C   UNL     1       7.127   4.887  14.447  0.00  0.00    +0.000 A 
ATOM     27  C   UNL     1       5.881   4.360  14.109  0.00  0.00    +0.000 A 
ATOM     28  C   UNL     1       4.981   3.927  15.092  0.00  0.00    +0.000 A 
ATOM     29  C   UNL     1       5.385   4.052  16.429  0.00  0.00    +0.000 A 
ENDBRANCH  20  21
ENDBRANCH   4  20
TORSDOF 7
ENDMDL
MODEL 6
REMARK VINA RESULT:      -8.2      0.692      1.502
REMARK  Name = 
REMARK  7 active torsions:
REMARK  status: ('A' for Active; 'I' for Inactive)
REMARK    1  A    between atoms: C_2  and  C_3
REMARK    2  A    between atoms: C_3  and  C_4
REMARK    3  A    between atoms: C_4  and  C_5
REMARK    4  A    between atoms: N_11  and  C_12
REMARK    5  A    between atoms: C_12  and  C_13
REMARK    6  A    between atoms: C_16  and  C_17
REMARK    7  A    between atoms: C_17  and  N_18
REMARK                            x       y       z     vdW  Elec       q    Type
REMARK                         _______ _______ _______ _____ _____    ______ ____
ROOT
ATOM      1  C   UNL     1       7.420   6.914  18.080  0.00  0.00    +0.000 A 
ATOM      2  C   UNL     1       6.491   7.265  17.091  0.00  0.00    +0.000 A 
ATOM      3  C   UNL     1       5.531   6.345  16.649  0.00  0.00    +0.000 A 
ATOM      4  C   UNL     1       5.478   5.046  17.183  0.00  0.00    +0.000 A 
ATOM      5  C   UNL     1       6.400   4.699  18.178  0.00  0.00    +0.000 A 
ATOM      6  C   UNL     1       7.353   5.623  18.626  0.00  0.00    +0.000 A 
ENDROOT
BRANCH   1   7
ATOM      7  C   UNL     1       8.454   7.900  18.559  0.00  0.00    +0.000 C 
BRANCH   7  10
ATOM      8  O   UNL     1       9.666  10.265  19.450  0.00  0.00    +0.000 OA
ATOM      9  C   UNL     1       8.920  10.318  18.478  0.00  0.00    +0.000 C 
ATOM     10  N   UNL     1       8.266   9.211  17.976  0.00  0.00    +0.000 N 
ATOM     11  H   UNL     1       7.664   9.299  17.169  0.00  0.00    +0.000 HD
BRANCH   9  12
ATOM     12  C   UNL     1       8.588  11.607  17.750  0.00  0.00    +0.000 C 
BRANCH  12  13
ATOM     13  C   UNL     1       9.796  12.539  17.671  0.00  0.00    +0.000 C 
BRANCH  13  14
ATOM     14  C   UNL     1       9.427  13.986  17.905  0.00  0.00    +0.000 A 
ATOM     15  C   UNL     1      10.423  14.961  18.054  0.00  0.00    +0.000 A 
ATOM     16  C   UNL     1      10.083  16.301  18.250  0.00  0.00    +0.000 A 
ATOM     17  C   UNL     1       8.744  16.681  18.307  0.00  0.00    +0.000 A 
ATOM     18  C   UNL     1       7.745  15.719  18.173  0.00  0.00    +0.000 A 
ATOM     19  C   UNL     1       8.083  14.378  17.976  0.00  0.00    +0.000 A 
ENDBRANCH  13  14
ENDBRANCH  12  13
ENDBRANCH   9  12
ENDBRANCH   7  10
ENDBRANCH   1   7
BRANCH   4  20
ATOM     20  C   UNL     1       4.407   4.074  16.751  0.00  0.00    +0.000 C 
BRANCH  20  21
ATOM     21  N   UNL     1       3.786   3.294  17.819  0.00  0.00    +0.000 N 
ATOM     22  C   UNL     1       3.493   1.956  17.753  0.00  0.00    +0.000 A 
ATOM     23  N   UNL     1       2.533   1.619  18.582  0.00  0.00    +0.000 NA
ATOM     24  C   UNL     1       2.200   2.777  19.234  0.00  0.00    +0.000 A 
ATOM     25  C   UNL     1       1.166   3.015  20.154  0.00  0.00    +0.000 A 
ATOM     26  C   UNL     1       1.013   4.301  20.681  0.00  0.00    +0.000 A 
ATOM     27  C   UNL     1       1.901   5.321  20.336  0.00  0.00    +0.000 A 
ATOM     28  C   UNL     1       2.933   5.107  19.413  0.00  0.00    +0.000 A 
ATOM     29  C   UNL     1       3.031   3.829  18.847  0.00  0.00    +0.000 A 
ENDBRANCH  20  21
ENDBRANCH   4  20
TORSDOF 7
ENDMDL
MODEL 7
REMARK VINA RESULT:      -8.2      6.109      8.634
REMARK  Name = 
REMARK  7 active torsions:
REMARK  status: ('A' for Active; 'I' for Inactive)
REMARK    1  A    between atoms: C_2  and  C_3
REMARK    2  A    between atoms: C_3  and  C_4
REMARK    3  A    between atoms: C_4  and  C_5
REMARK    4  A    between atoms: N_11  and  C_12
REMARK    5  A    between atoms: C_12  and  C_13
REMARK    6  A    between atoms: C_16  and  C_17
REMARK    7  A    between atoms: C_17  and  N_18
REMARK                            x       y       z     vdW  Elec       q    Type
REMARK                         _______ _______ _______ _____ _____    ______ ____
ROOT
ATOM      1  C   UNL     1       1.601   7.541  20.558  0.00  0.00    +0.000 A 
ATOM      2  C   UNL     1       1.449   6.196  20.923  0.00  0.00    +0.000 A 
ATOM      3  C   UNL     1       1.842   5.168  20.057  0.00  0.00    +0.000 A 
ATOM      4  C   UNL     1       2.396   5.458  18.798  0.00  0.00    +0.000 A 
ATOM      5  C   UNL     1       2.556   6.801  18.437  0.00  0.00    +0.000 A 
ATOM      6  C   UNL     1       2.171   7.829  19.308  0.00  0.00    +0.000 A 
ENDROOT
BRANCH   1   7
ATOM      7  C   UNL     1       1.179   8.651  21.486  0.00  0.00    +0.000 C 
BRANCH   7  10
ATOM      8  O   UNL     1      -0.671  10.616  22.241  0.00  0.00    +0.000 OA
ATOM      9  C   UNL     1       0.006  10.803  21.236  0.00  0.00    +0.000 C 
ATOM     10  N   UNL     1       0.932   9.887  20.777  0.00  0.00    +0.000 N 
ATOM     11  H   UNL     1       1.472  10.084  19.946  0.00  0.00    +0.000 HD
BRANCH   9  12
ATOM     12  C   UNL     1      -0.128  12.030  20.355  0.00  0.00    +0.000 C 
BRANCH  12  13
ATOM     13  C   UNL     1      -1.591  12.336  20.032  0.00  0.00    +0.000 C 
BRANCH  13  14
ATOM     14  C   UNL     1      -2.121  11.490  18.897  0.00  0.00    +0.000 A 
ATOM     15  C   UNL     1      -3.484  11.513  18.568  0.00  0.00    +0.000 A 
ATOM     16  C   UNL     1      -3.972  10.749  17.507  0.00  0.00    +0.000 A 
ATOM     17  C   UNL     1      -3.106   9.946  16.767  0.00  0.00    +0.000 A 
ATOM     18  C   UNL     1      -1.751   9.906  17.092  0.00  0.00    +0.000 A 
ATOM     19  C   UNL     1      -1.262  10.671  18.153  0.00  0.00    +0.000 A 
ENDBRANCH  13  14
ENDBRANCH  12  13
ENDBRANCH   9  12
ENDBRANCH   7  10
ENDBRANCH   1   7
BRANCH   4  20
ATOM     20  C   UNL     1       2.876   4.353  17.889  0.00  0.00    +0.000 C 
BRANCH  20  21
ATOM     21  N   UNL     1       4.313   4.096  17.901  0.00  0.00    +0.000 N 
ATOM     22  C   UNL     1       5.114   4.136  19.013  0.00  0.00    +0.000 A 
ATOM     23  N   UNL     1       6.371   4.364  18.710  0.00  0.00    +0.000 NA
ATOM     24  C   UNL     1       6.398   4.454  17.342  0.00  0.00    +0.000 A 
ATOM     25  C   UNL     1       7.465   4.789  16.494  0.00  0.00    +0.000 A 
ATOM     26  C   UNL     1       7.244   4.830  15.113  0.00  0.00    +0.000 A 
ATOM     27  C   UNL     1       5.996   4.497  14.584  0.00  0.00    +0.000 A 
ATOM     28  C   UNL     1       4.915   4.170  15.414  0.00  0.00    +0.000 A 
ATOM     29  C   UNL     1       5.140   4.197  16.797  0.00  0.00    +0.000 A 
ENDBRANCH  20  21
ENDBRANCH   4  20
TORSDOF 7
ENDMDL
MODEL 8
REMARK VINA RESULT:      -8.2      5.597      9.887
REMARK  Name = 
REMARK  7 active torsions:
REMARK  status: ('A' for Active; 'I' for Inactive)
REMARK    1  A    between atoms: C_2  and  C_3
REMARK    2  A    between atoms: C_3  and  C_4
REMARK    3  A    between atoms: C_4  and  C_5
REMARK    4  A    between atoms: N_11  and  C_12
REMARK    5  A    between atoms: C_12  and  C_13
REMARK    6  A    between atoms: C_16  and  C_17
REMARK    7  A    between atoms: C_17  and  N_18
REMARK                            x       y       z     vdW  Elec       q    Type
REMARK                         _______ _______ _______ _____ _____    ______ ____
ROOT
ATOM      1  C   UNL     1       3.158   7.797  17.985  0.00  0.00    +0.000 A 
ATOM      2  C   UNL     1       2.573   9.013  17.607  0.00  0.00    +0.000 A 
ATOM      3  C   UNL     1       1.569   9.600  18.388  0.00  0.00    +0.000 A 
ATOM      4  C   UNL     1       1.121   8.983  19.568  0.00  0.00    +0.000 A 
ATOM      5  C   UNL     1       1.712   7.773  19.950  0.00  0.00    +0.000 A 
ATOM      6  C   UNL     1       2.722   7.191  19.174  0.00  0.00    +0.000 A 
ENDROOT
BRANCH   1   7
ATOM      7  C   UNL     1       4.238   7.162  17.147  0.00  0.00    +0.000 C 
BRANCH   7  10
ATOM      8  O   UNL     1       6.094   5.364  18.233  0.00  0.00    +0.000 OA
ATOM      9  C   UNL     1       5.087   4.914  17.695  0.00  0.00    +0.000 C 
ATOM     10  N   UNL     1       4.125   5.720  17.119  0.00  0.00    +0.000 N 
ATOM     11  H   UNL     1       3.308   5.307  16.690  0.00  0.00    +0.000 HD
BRANCH   9  12
ATOM     12  C   UNL     1       4.808   3.430  17.553  0.00  0.00    +0.000 C 
BRANCH  12  13
ATOM     13  C   UNL     1       3.308   3.143  17.482  0.00  0.00    +0.000 C 
BRANCH  13  14
ATOM     14  C   UNL     1       2.646   3.192  18.840  0.00  0.00    +0.000 A 
ATOM     15  C   UNL     1       3.257   2.597  19.953  0.00  0.00    +0.000 A 
ATOM     16  C   UNL     1       2.657   2.660  21.212  0.00  0.00    +0.000 A 
ATOM     17  C   UNL     1       1.434   3.309  21.372  0.00  0.00    +0.000 A 
ATOM     18  C   UNL     1       0.811   3.893  20.270  0.00  0.00    +0.000 A 
ATOM     19  C   UNL     1       1.411   3.832  19.011  0.00  0.00    +0.000 A 
ENDBRANCH  13  14
ENDBRANCH  12  13
ENDBRANCH   9  12
ENDBRANCH   7  10
ENDBRANCH   1   7
BRANCH   4  20
ATOM     20  C   UNL     1       0.082   9.644  20.443  0.00  0.00    +0.000 C 
BRANCH  20  21
ATOM     21  N   UNL     1      -0.631  10.770  19.845  0.00  0.00    +0.000 N 
ATOM     22  C   UNL     1      -0.759  12.013  20.408  0.00  0.00    +0.000 A 
ATOM     23  N   UNL     1      -1.810  12.656  19.953  0.00  0.00    +0.000 NA
ATOM     24  C   UNL     1      -2.380  11.809  19.039  0.00  0.00    +0.000 A 
ATOM     25  C   UNL     1      -3.581  11.947  18.327  0.00  0.00    +0.000 A 
ATOM     26  C   UNL     1      -3.967  10.929  17.448  0.00  0.00    +0.000 A 
ATOM     27  C   UNL     1      -3.149   9.817  17.246  0.00  0.00    +0.000 A 
ATOM     28  C   UNL     1      -1.950   9.655  17.954  0.00  0.00    +0.000 A 
ATOM     29  C   UNL     1      -1.612  10.655  18.877  0.00  0.00    +0.000 A 
ENDBRANCH  20  21
ENDBRANCH   4  20
TORSDOF 7
ENDMDL
MODEL 9
REMARK VINA RESULT:      -8.1      5.113      7.284
REMARK  Name = 
REMARK  7 active torsions:
REMARK  status: ('A' for Active; 'I' for Inactive)
REMARK    1  A    between atoms: C_2  and  C_3
REMARK    2  A    between atoms: C_3  and  C_4
REMARK    3  A    between atoms: C_4  and  C_5
REMARK    4  A    between atoms: N_11  and  C_12
REMARK    5  A    between atoms: C_12  and  C_13
REMARK    6  A    between atoms: C_16  and  C_17
REMARK    7  A    between atoms: C_17  and  N_18
REMARK                            x       y       z     vdW  Elec       q    Type
REMARK                         _______ _______ _______ _____ _____    ______ ____
ROOT
ATOM      1  C   UNL     1       1.397   8.190  20.506  0.00  0.00    +0.000 A 
ATOM      2  C   UNL     1       1.610   6.842  20.826  0.00  0.00    +0.000 A 
ATOM      3  C   UNL     1       2.163   5.961  19.888  0.00  0.00    +0.000 A 
ATOM      4  C   UNL     1       2.514   6.405  18.602  0.00  0.00    +0.000 A 
ATOM      5  C   UNL     1       2.310   7.753  18.286  0.00  0.00    +0.000 A 
ATOM      6  C   UNL     1       1.766   8.636  19.228  0.00  0.00    +0.000 A 
ENDROOT
BRANCH   1   7
ATOM      7  C   UNL     1       0.802   9.143  21.512  0.00  0.00    +0.000 C 
BRANCH   7  10
ATOM      8  O   UNL     1      -0.214  11.422  22.787  0.00  0.00    +0.000 OA
ATOM      9  C   UNL     1      -0.436  11.271  21.590  0.00  0.00    +0.000 C 
ATOM     10  N   UNL     1       0.009  10.174  20.880  0.00  0.00    +0.000 N 
ATOM     11  H   UNL     1      -0.193  10.092  19.893  0.00  0.00    +0.000 HD
BRANCH   9  12
ATOM     12  C   UNL     1      -1.265  12.238  20.766  0.00  0.00    +0.000 C 
BRANCH  12  13
ATOM     13  C   UNL     1      -0.877  12.197  19.289  0.00  0.00    +0.000 C 
BRANCH  13  14
ATOM     14  C   UNL     1       0.336  13.048  18.986  0.00  0.00    +0.000 A 
ATOM     15  C   UNL     1       1.549  12.452  18.613  0.00  0.00    +0.000 A 
ATOM     16  C   UNL     1       2.664  13.236  18.313  0.00  0.00    +0.000 A 
ATOM     17  C   UNL     1       2.582  14.625  18.391  0.00  0.00    +0.000 A 
ATOM     18  C   UNL     1       1.385  15.228  18.772  0.00  0.00    +0.000 A 
ATOM     19  C   UNL     1       0.269  14.445  19.072  0.00  0.00    +0.000 A 
ENDBRANCH  13  14
ENDBRANCH  12  13
ENDBRANCH   9  12
ENDBRANCH   7  10
ENDBRANCH   1   7
BRANCH   4  20
ATOM     20  C   UNL     1       3.166   5.470  17.610  0.00  0.00    +0.000 C 
BRANCH  20  21
ATOM     21  N   UNL     1       4.517   5.029  17.944  0.00  0.00    +0.000 N 
ATOM     22  C   UNL     1       4.825   3.981  18.772  0.00  0.00    +0.000 A 
ATOM     23  N   UNL     1       6.025   4.096  19.291  0.00  0.00    +0.000 NA
ATOM     24  C   UNL     1       6.534   5.255  18.763  0.00  0.00    +0.000 A 
ATOM     25  C   UNL     1       7.740   5.911  19.053  0.00  0.00    +0.000 A 
ATOM     26  C   UNL     1       8.038   7.104  18.387  0.00  0.00    +0.000 A 
ATOM     27  C   UNL     1       7.175   7.609  17.415  0.00  0.00    +0.000 A 
ATOM     28  C   UNL     1       5.961   6.975  17.117  0.00  0.00    +0.000 A 
ATOM     29  C   UNL     1       5.650   5.816  17.841  0.00  0.00    +0.000 A 
ENDBRANCH  20  21
ENDBRANCH   4  20
TORSDOF 7
ENDMDL
