MODEL 1
REMARK VINA RESULT:     -10.0      0.000      0.000
REMARK  Name = 
REMARK  5 active torsions:
REMARK  status: ('A' for Active; 'I' for Inactive)
REMARK    1  A    between atoms: C_2  and  C_3
REMARK    2  A    between atoms: C_3  and  C_4
REMARK    3  A    between atoms: N_14  and  C_15
REMARK    4  A    between atoms: N_19  and  C_20
REMARK    5  A    between atoms: C_20  and  C_21
REMARK                            x       y       z     vdW  Elec       q    Type
REMARK                         _______ _______ _______ _____ _____    ______ ____
ROOT
ATOM      1  O   UNL     1       8.642   7.827  18.852  0.00  0.00    +0.000 OA
ATOM      2  C   UNL     1       8.094   8.492  17.982  0.00  0.00    +0.000 C 
ATOM      3  N   UNL     1       7.149   7.989  17.111  0.00  0.00    +0.000 N 
ATOM      4  H   UNL     1       6.507   8.683  16.744  0.00  0.00    +0.000 HD
ENDROOT
BRANCH   3   5
ATOM      5  C   UNL     1       6.609   6.624  17.149  0.00  0.00    +0.000 C 
ATOM      6  C   UNL     1       7.447   5.576  17.871  0.00  0.00    +0.000 C 
ATOM      7  C   UNL     1       7.017   5.324  19.302  0.00  0.00    +0.000 C 
ATOM      8  C   UNL     1       5.523   5.079  19.415  0.00  0.00    +0.000 C 
ATOM      9  N   UNL     1       4.676   5.928  18.584  0.00  0.00    +0.000 N 
ATOM     10  C   UNL     1       5.116   6.659  17.496  0.00  0.00    +0.000 C 
ATOM     11  O   UNL     1       4.358   7.374  16.830  0.00  0.00    +0.000 OA
BRANCH   9  12
ATOM     12  C   UNL     1       3.266   6.029  18.961  0.00  0.00    +0.000 C 
BRANCH  12  13
ATOM     13  C   UNL     1       2.519   4.718  18.866  0.00  0.00    +0.000 A 
ATOM     14  C   UNL     1       2.697   3.811  17.810  0.00  0.00    +0.000 A 
ATOM     15  C   UNL     1       1.946   2.640  17.735  0.00  0.00    +0.000 A 
ATOM     16  C   UNL     1       1.021   2.360  18.731  0.00  0.00    +0.000 A 
ATOM     17  F   UNL     1       0.279   1.250  18.644  0.00  0.00    +0.000 F 
ATOM     18  C   UNL     1       0.853   3.217  19.810  0.00  0.00    +0.000 A 
ATOM     19  C   UNL     1       1.606   4.384  19.871  0.00  0.00    +0.000 A 
ATOM     20  F   UNL     1       1.435   5.210  20.913  0.00  0.00    +0.000 F 
ENDBRANCH  12  13
ENDBRANCH   9  12
ENDBRANCH   3   5
BRANCH   2  21
ATOM     21  C   UNL     1       8.446   9.950  17.737  0.00  0.00    +0.000 C 
BRANCH  21  22
ATOM     22  C   UNL     1       9.252  10.628  18.806  0.00  0.00    +0.000 A 
ATOM     23  C   UNL     1       9.191  10.494  20.179  0.00  0.00    +0.000 A 
ATOM     24  N   UNL     1      10.123  11.330  20.744  0.00  0.00    +0.000 N 
ATOM     25  C   UNL     1      10.800  12.021  19.765  0.00  0.00    +0.000 A 
ATOM     26  C   UNL     1      11.827  12.972  19.868  0.00  0.00    +0.000 A 
ATOM     27  C   UNL     1      12.333  13.507  18.680  0.00  0.00    +0.000 A 
ATOM     28  C   UNL     1      11.821  13.108  17.453  0.00  0.00    +0.000 A 
ATOM     29  F   UNL     1      12.327  13.635  16.329  0.00  0.00    +0.000 F 
ATOM     30  C   UNL     1      10.796  12.168  17.359  0.00  0.00    +0.000 A 
ATOM     31  C   UNL     1      10.274  11.605  18.541  0.00  0.00    +0.000 A 
ATOM     32  H   UNL     1      10.293  11.425  21.734  0.00  0.00    +0.000 HD
ENDBRANCH  21  22
ENDBRANCH   2  21
TORSDOF 5
ENDMDL
MODEL 2
REMARK VINA RESULT:      -9.9      0.990      1.394
REMARK  Name = 
REMARK  5 active torsions:
REMARK  status: ('A' for Active; 'I' for Inactive)
REMARK    1  A    between atoms: C_2  and  C_3
REMARK    2  A    between atoms: C_3  and  C_4
REMARK    3  A    between atoms: N_14  and  C_15
REMARK    4  A    between atoms: N_19  and  C_20
REMARK    5  A    between atoms: C_20  and  C_21
REMARK                            x       y       z     vdW  Elec       q    Type
REMARK                         _______ _______ _______ _____ _____    ______ ____
ROOT
ATOM      1  O   UNL     1       8.794   7.955  19.076  0.00  0.00    +0.000 OA
ATOM      2  C   UNL     1       8.347   8.550  18.103  0.00  0.00    +0.000 C 
ATOM      3  N   UNL     1       7.555   7.961  17.139  0.00  0.00    +0.000 N 
ATOM      4  H   UNL     1       6.945   8.604  16.648  0.00  0.00    +0.000 HD
ENDROOT
BRANCH   3   5
ATOM      5  C   UNL     1       7.071   6.575  17.177  0.00  0.00    +0.000 C 
ATOM      6  C   UNL     1       7.647   5.678  18.266  0.00  0.00    +0.000 C 
ATOM      7  C   UNL     1       6.770   5.564  19.496  0.00  0.00    +0.000 C 
ATOM      8  C   UNL     1       5.331   5.231  19.144  0.00  0.00    +0.000 C 
ATOM      9  N   UNL     1       4.789   5.917  17.976  0.00  0.00    +0.000 N 
ATOM     10  C   UNL     1       5.548   6.546  17.006  0.00  0.00    +0.000 C 
ATOM     11  O   UNL     1       5.037   7.125  16.041  0.00  0.00    +0.000 OA
BRANCH   9  12
ATOM     12  C   UNL     1       3.332   5.963  17.852  0.00  0.00    +0.000 C 
BRANCH  12  13
ATOM     13  C   UNL     1       2.648   4.680  18.266  0.00  0.00    +0.000 A 
ATOM     14  C   UNL     1       1.819   4.584  19.394  0.00  0.00    +0.000 A 
ATOM     15  C   UNL     1       1.255   3.367  19.769  0.00  0.00    +0.000 A 
ATOM     16  C   UNL     1       1.504   2.237  19.004  0.00  0.00    +0.000 A 
ATOM     17  F   UNL     1       0.986   1.062  19.380  0.00  0.00    +0.000 F 
ATOM     18  C   UNL     1       2.285   2.308  17.858  0.00  0.00    +0.000 A 
ATOM     19  C   UNL     1       2.845   3.528  17.497  0.00  0.00    +0.000 A 
ATOM     20  F   UNL     1       3.603   3.590  16.393  0.00  0.00    +0.000 F 
ENDBRANCH  12  13
ENDBRANCH   9  12
ENDBRANCH   3   5
BRANCH   2  21
ATOM     21  C   UNL     1       8.672  10.010  17.829  0.00  0.00    +0.000 C 
BRANCH  21  22
ATOM     22  C   UNL     1       9.405  10.742  18.914  0.00  0.00    +0.000 A 
ATOM     23  C   UNL     1       9.321  10.608  20.285  0.00  0.00    +0.000 A 
ATOM     24  N   UNL     1      10.181  11.507  20.868  0.00  0.00    +0.000 N 
ATOM     25  C   UNL     1      10.833  12.239  19.902  0.00  0.00    +0.000 A 
ATOM     26  C   UNL     1      11.791  13.257  20.025  0.00  0.00    +0.000 A 
ATOM     27  C   UNL     1      12.288  13.822  18.847  0.00  0.00    +0.000 A 
ATOM     28  C   UNL     1      11.833  13.386  17.610  0.00  0.00    +0.000 A 
ATOM     29  F   UNL     1      12.328  13.943  16.496  0.00  0.00    +0.000 F 
ATOM     30  C   UNL     1      10.876  12.380  17.496  0.00  0.00    +0.000 A 
ATOM     31  C   UNL     1      10.365  11.785  18.668  0.00  0.00    +0.000 A 
ATOM     32  H   UNL     1      10.321  11.616  21.862  0.00  0.00    +0.000 HD
ENDBRANCH  21  22
ENDBRANCH   2  21
TORSDOF 5
ENDMDL
MODEL 3
REMARK VINA RESULT:      -9.8      2.134      2.868
REMARK  Name = 
REMARK  5 active torsions:
REMARK  status: ('A' for Active; 'I' for Inactive)
REMARK    1  A    between atoms: C_2  and  C_3
REMARK    2  A    between atoms: C_3  and  C_4
REMARK    3  A    between atoms: N_14  and  C_15
REMARK    4  A    between atoms: N_19  and  C_20
REMARK    5  A    between atoms: C_20  and  C_21
REMARK                            x       y       z     vdW  Elec       q    Type
REMARK                         _______ _______ _______ _____ _____    ______ ____
ROOT
ATOM      1  O   UNL     1       8.724   7.876  18.969  0.00  0.00    +0.000 OA
ATOM      2  C   UNL     1       8.227   8.491  18.033  0.00  0.00    +0.000 C 
ATOM      3  N   UNL     1       7.404   7.915  17.086  0.00  0.00    +0.000 N 
ATOM      4  H   UNL     1       6.763   8.562  16.641  0.00  0.00    +0.000 HD
ENDROOT
BRANCH   3   5
ATOM      5  C   UNL     1       6.945   6.521  17.104  0.00  0.00    +0.000 C 
ATOM      6  C   UNL     1       7.537   5.618  18.180  0.00  0.00    +0.000 C 
ATOM      7  C   UNL     1       6.661   5.471  19.408  0.00  0.00    +0.000 C 
ATOM      8  C   UNL     1       5.229   5.117  19.049  0.00  0.00    +0.000 C 
ATOM      9  N   UNL     1       4.675   5.810  17.891  0.00  0.00    +0.000 N 
ATOM     10  C   UNL     1       5.423   6.467  16.932  0.00  0.00    +0.000 C 
ATOM     11  O   UNL     1       4.902   7.051  15.974  0.00  0.00    +0.000 OA
BRANCH   9  12
ATOM     12  C   UNL     1       3.217   5.832  17.767  0.00  0.00    +0.000 C 
BRANCH  12  13
ATOM     13  C   UNL     1       2.543   6.795  18.717  0.00  0.00    +0.000 A 
ATOM     14  C   UNL     1       2.222   6.463  20.043  0.00  0.00    +0.000 A 
ATOM     15  C   UNL     1       1.550   7.364  20.865  0.00  0.00    +0.000 A 
ATOM     16  C   UNL     1       1.210   8.615  20.371  0.00  0.00    +0.000 A 
ATOM     17  F   UNL     1       0.540   9.470  21.152  0.00  0.00    +0.000 F 
ATOM     18  C   UNL     1       1.552   8.988  19.078  0.00  0.00    +0.000 A 
ATOM     19  C   UNL     1       2.220   8.078  18.266  0.00  0.00    +0.000 A 
ATOM     20  F   UNL     1       2.542   8.442  17.016  0.00  0.00    +0.000 F 
ENDBRANCH  12  13
ENDBRANCH   9  12
ENDBRANCH   3   5
BRANCH   2  21
ATOM     21  C   UNL     1       8.515   9.963  17.789  0.00  0.00    +0.000 C 
BRANCH  21  22
ATOM     22  C   UNL     1       9.304  10.671  18.851  0.00  0.00    +0.000 A 
ATOM     23  C   UNL     1       9.240  10.556  20.225  0.00  0.00    +0.000 A 
ATOM     24  N   UNL     1      10.154  11.418  20.781  0.00  0.00    +0.000 N 
ATOM     25  C   UNL     1      10.823  12.107  19.794  0.00  0.00    +0.000 A 
ATOM     26  C   UNL     1      11.831  13.078  19.887  0.00  0.00    +0.000 A 
ATOM     27  C   UNL     1      12.333  13.604  18.693  0.00  0.00    +0.000 A 
ATOM     28  C   UNL     1      11.833  13.177  17.470  0.00  0.00    +0.000 A 
ATOM     29  F   UNL     1      12.333  13.697  16.341  0.00  0.00    +0.000 F 
ATOM     30  C   UNL     1      10.826  12.218  17.387  0.00  0.00    +0.000 A 
ATOM     31  C   UNL     1      10.309  11.663  18.575  0.00  0.00    +0.000 A 
ATOM     32  H   UNL     1      10.318  11.531  21.771  0.00  0.00    +0.000 HD
ENDBRANCH  21  22
ENDBRANCH   2  21
TORSDOF 5
ENDMDL
MODEL 4
REMARK VINA RESULT:      -9.7      5.911      8.812
REMARK  Name = 
REMARK  5 active torsions:
REMARK  status: ('A' for Active; 'I' for Inactive)
REMARK    1  A    between atoms: C_2  and  C_3
REMARK    2  A    between atoms: C_3  and  C_4
REMARK    3  A    between atoms: N_14  and  C_15
REMARK    4  A    between atoms: N_19  and  C_20
REMARK    5  A    between atoms: C_20  and  C_21
REMARK                            x       y       z     vdW  Elec       q    Type
REMARK                         _______ _______ _______ _____ _____    ______ ____
ROOT
ATOM      1  O   UNL     1       1.741   8.281  20.808  0.00  0.00    +0.000 OA
ATOM      2  C   UNL     1       1.790   8.130  19.594  0.00  0.00    +0.000 C 
ATOM      3  N   UNL     1       2.144   6.947  18.979  0.00  0.00    +0.000 N 
ATOM      4  H   UNL     1       1.766   6.831  18.046  0.00  0.00    +0.000 HD
ENDROOT
BRANCH   3   5
ATOM      5  C   UNL     1       2.434   5.688  19.677  0.00  0.00    +0.000 C 
ATOM      6  C   UNL     1       1.351   4.616  19.633  0.00  0.00    +0.000 C 
ATOM      7  C   UNL     1       1.566   3.570  18.558  0.00  0.00    +0.000 C 
ATOM      8  C   UNL     1       2.973   3.000  18.588  0.00  0.00    +0.000 C 
ATOM      9  N   UNL     1       4.042   3.963  18.831  0.00  0.00    +0.000 N 
ATOM     10  C   UNL     1       3.861   5.228  19.359  0.00  0.00    +0.000 C 
ATOM     11  O   UNL     1       4.802   6.011  19.534  0.00  0.00    +0.000 OA
BRANCH   9  12
ATOM     12  C   UNL     1       5.397   3.558  18.452  0.00  0.00    +0.000 C 
BRANCH  12  13
ATOM     13  C   UNL     1       5.812   4.043  17.082  0.00  0.00    +0.000 A 
ATOM     14  C   UNL     1       4.950   4.035  15.974  0.00  0.00    +0.000 A 
ATOM     15  C   UNL     1       5.394   4.439  14.717  0.00  0.00    +0.000 A 
ATOM     16  C   UNL     1       6.703   4.873  14.564  0.00  0.00    +0.000 A 
ATOM     17  F   UNL     1       7.137   5.233  13.351  0.00  0.00    +0.000 F 
ATOM     18  C   UNL     1       7.566   4.933  15.649  0.00  0.00    +0.000 A 
ATOM     19  C   UNL     1       7.112   4.523  16.898  0.00  0.00    +0.000 A 
ATOM     20  F   UNL     1       7.953   4.578  17.941  0.00  0.00    +0.000 F 
ENDBRANCH  12  13
ENDBRANCH   9  12
ENDBRANCH   3   5
BRANCH   2  21
ATOM     21  C   UNL     1       1.510   9.270  18.627  0.00  0.00    +0.000 C 
BRANCH  21  22
ATOM     22  C   UNL     1       0.436  10.236  19.031  0.00  0.00    +0.000 A 
ATOM     23  C   UNL     1       0.411  11.149  20.067  0.00  0.00    +0.000 A 
ATOM     24  N   UNL     1      -0.795  11.805  20.045  0.00  0.00    +0.000 N 
ATOM     25  C   UNL     1      -1.575  11.338  19.011  0.00  0.00    +0.000 A 
ATOM     26  C   UNL     1      -2.866  11.709  18.606  0.00  0.00    +0.000 A 
ATOM     27  C   UNL     1      -3.409  11.054  17.498  0.00  0.00    +0.000 A 
ATOM     28  C   UNL     1      -2.686  10.068  16.838  0.00  0.00    +0.000 A 
ATOM     29  F   UNL     1      -3.229   9.457  15.776  0.00  0.00    +0.000 F 
ATOM     30  C   UNL     1      -1.407   9.700  17.251  0.00  0.00    +0.000 A 
ATOM     31  C   UNL     1      -0.831  10.352  18.361  0.00  0.00    +0.000 A 
ATOM     32  H   UNL     1      -1.074  12.529  20.691  0.00  0.00    +0.000 HD
ENDBRANCH  21  22
ENDBRANCH   2  21
TORSDOF 5
ENDMDL
MODEL 5
REMARK VINA RESULT:      -9.3      0.954      1.240
REMARK  Name = 
REMARK  5 active torsions:
REMARK  status: ('A' for Active; 'I' for Inactive)
REMARK    1  A    between atoms: C_2  and  C_3
REMARK    2  A    between atoms: C_3  and  C_4
REMARK    3  A    between atoms: N_14  and  C_15
REMARK    4  A    between atoms: N_19  and  C_20
REMARK    5  A    between atoms: C_20  and  C_21
REMARK                            x       y       z     vdW  Elec       q    Type
REMARK                         _______ _______ _______ _____ _____    ______ ____
ROOT
ATOM      1  O   UNL     1       8.218   7.526  18.678  0.00  0.00    +0.000 OA
ATOM      2  C   UNL     1       7.851   8.238  17.751  0.00  0.00    +0.000 C 
ATOM      3  N   UNL     1       6.950   7.838  16.786  0.00  0.00    +0.000 N 
ATOM      4  H   UNL     1       6.441   8.598  16.349  0.00  0.00    +0.000 HD
ENDROOT
BRANCH   3   5
ATOM      5  C   UNL     1       6.247   6.549  16.769  0.00  0.00    +0.000 C 
ATOM      6  C   UNL     1       7.107   5.299  16.911  0.00  0.00    +0.000 C 
ATOM      7  C   UNL     1       7.175   4.756  18.324  0.00  0.00    +0.000 C 
ATOM      8  C   UNL     1       5.798   4.610  18.947  0.00  0.00    +0.000 C 
ATOM      9  N   UNL     1       4.860   5.694  18.673  0.00  0.00    +0.000 N 
ATOM     10  C   UNL     1       4.999   6.620  17.656  0.00  0.00    +0.000 C 
ATOM     11  O   UNL     1       4.180   7.528  17.474  0.00  0.00    +0.000 OA
BRANCH   9  12
ATOM     12  C   UNL     1       3.709   5.815  19.568  0.00  0.00    +0.000 C 
BRANCH  12  13
ATOM     13  C   UNL     1       2.752   4.648  19.485  0.00  0.00    +0.000 A 
ATOM     14  C   UNL     1       2.327   3.925  20.611  0.00  0.00    +0.000 A 
ATOM     15  C   UNL     1       1.488   2.821  20.480  0.00  0.00    +0.000 A 
ATOM     16  C   UNL     1       1.051   2.443  19.219  0.00  0.00    +0.000 A 
ATOM     17  F   UNL     1       0.269   1.366  19.090  0.00  0.00    +0.000 F 
ATOM     18  C   UNL     1       1.420   3.164  18.090  0.00  0.00    +0.000 A 
ATOM     19  C   UNL     1       2.261   4.261  18.234  0.00  0.00    +0.000 A 
ATOM     20  F   UNL     1       2.618   4.950  17.140  0.00  0.00    +0.000 F 
ENDBRANCH  12  13
ENDBRANCH   9  12
ENDBRANCH   3   5
BRANCH   2  21
ATOM     21  C   UNL     1       8.402   9.639  17.541  0.00  0.00    +0.000 C 
BRANCH  21  22
ATOM     22  C   UNL     1       9.107  10.259  18.711  0.00  0.00    +0.000 A 
ATOM     23  C   UNL     1       8.933  10.043  20.064  0.00  0.00    +0.000 A 
ATOM     24  N   UNL     1       9.803  10.852  20.753  0.00  0.00    +0.000 N 
ATOM     25  C   UNL     1      10.549  11.607  19.877  0.00  0.00    +0.000 A 
ATOM     26  C   UNL     1      11.550  12.560  20.121  0.00  0.00    +0.000 A 
ATOM     27  C   UNL     1      12.146  13.169  19.014  0.00  0.00    +0.000 A 
ATOM     28  C   UNL     1      11.744  12.839  17.726  0.00  0.00    +0.000 A 
ATOM     29  F   UNL     1      12.333  13.437  16.682  0.00  0.00    +0.000 F 
ATOM     30  C   UNL     1      10.743  11.898  17.492  0.00  0.00    +0.000 A 
ATOM     31  C   UNL     1      10.132  11.260  18.591  0.00  0.00    +0.000 A 
ATOM     32  H   UNL     1       9.888  10.890  21.758  0.00  0.00    +0.000 HD
ENDBRANCH  21  22
ENDBRANCH   2  21
TORSDOF 5
ENDMDL
MODEL 6
REMARK VINA RESULT:      -9.2      6.264     10.318
REMARK  Name = 
REMARK  5 active torsions:
REMARK  status: ('A' for Active; 'I' for Inactive)
REMARK    1  A    between atoms: C_2  and  C_3
REMARK    2  A    between atoms: C_3  and  C_4
REMARK    3  A    between atoms: N_14  and  C_15
REMARK    4  A    between atoms: N_19  and  C_20
REMARK    5  A    between atoms: C_20  and  C_21
REMARK                            x       y       z     vdW  Elec       q    Type
REMARK                         _______ _______ _______ _____ _____    ______ ____
ROOT
ATOM      1  O   UNL     1       2.653   8.311  17.527  0.00  0.00    +0.000 OA
ATOM      2  C   UNL     1       2.085   8.182  18.605  0.00  0.00    +0.000 C 
ATOM      3  N   UNL     1       1.084   9.019  19.051  0.00  0.00    +0.000 N 
ATOM      4  H   UNL     1       0.448   8.594  19.716  0.00  0.00    +0.000 HD
ENDROOT
BRANCH   3   5
ATOM      5  C   UNL     1       0.502  10.125  18.279  0.00  0.00    +0.000 C 
ATOM      6  C   UNL     1      -0.732   9.803  17.444  0.00  0.00    +0.000 C 
ATOM      7  C   UNL     1      -2.041  10.156  18.121  0.00  0.00    +0.000 C 
ATOM      8  C   UNL     1      -2.039  11.573  18.665  0.00  0.00    +0.000 C 
ATOM      9  N   UNL     1      -0.799  12.006  19.302  0.00  0.00    +0.000 N 
ATOM     10  C   UNL     1       0.427  11.387  19.145  0.00  0.00    +0.000 C 
ATOM     11  O   UNL     1       1.447  11.788  19.718  0.00  0.00    +0.000 OA
BRANCH   9  12
ATOM     12  C   UNL     1      -0.882  13.162  20.195  0.00  0.00    +0.000 C 
BRANCH  12  13
ATOM     13  C   UNL     1      -1.701  12.908  21.439  0.00  0.00    +0.000 A 
ATOM     14  C   UNL     1      -1.437  11.852  22.326  0.00  0.00    +0.000 A 
ATOM     15  C   UNL     1      -2.254  11.623  23.431  0.00  0.00    +0.000 A 
ATOM     16  C   UNL     1      -3.332  12.463  23.668  0.00  0.00    +0.000 A 
ATOM     17  F   UNL     1      -4.133  12.226  24.713  0.00  0.00    +0.000 F 
ATOM     18  C   UNL     1      -3.592  13.542  22.833  0.00  0.00    +0.000 A 
ATOM     19  C   UNL     1      -2.772  13.758  21.731  0.00  0.00    +0.000 A 
ATOM     20  F   UNL     1      -3.033  14.798  20.926  0.00  0.00    +0.000 F 
ENDBRANCH  12  13
ENDBRANCH   9  12
ENDBRANCH   3   5
BRANCH   2  21
ATOM     21  C   UNL     1       2.472   7.097  19.597  0.00  0.00    +0.000 C 
BRANCH  21  22
ATOM     22  C   UNL     1       3.312   5.975  19.061  0.00  0.00    +0.000 A 
ATOM     23  C   UNL     1       4.656   5.948  18.746  0.00  0.00    +0.000 A 
ATOM     24  N   UNL     1       4.972   4.696  18.278  0.00  0.00    +0.000 N 
ATOM     25  C   UNL     1       3.855   3.892  18.272  0.00  0.00    +0.000 A 
ATOM     26  C   UNL     1       3.700   2.553  17.883  0.00  0.00    +0.000 A 
ATOM     27  C   UNL     1       2.426   1.990  17.996  0.00  0.00    +0.000 A 
ATOM     28  C   UNL     1       1.362   2.745  18.471  0.00  0.00    +0.000 A 
ATOM     29  F   UNL     1       0.151   2.180  18.572  0.00  0.00    +0.000 F 
ATOM     30  C   UNL     1       1.522   4.077  18.849  0.00  0.00    +0.000 A 
ATOM     31  C   UNL     1       2.799   4.667  18.754  0.00  0.00    +0.000 A 
ATOM     32  H   UNL     1       5.892   4.402  17.982  0.00  0.00    +0.000 HD
ENDBRANCH  21  22
ENDBRANCH   2  21
TORSDOF 5
ENDMDL
MODEL 7
REMARK VINA RESULT:      -9.2      6.623     10.618
REMARK  Name = 
REMARK  5 active torsions:
REMARK  status: ('A' for Active; 'I' for Inactive)
REMARK    1  A    between atoms: C_2  and  C_3
REMARK    2  A    between atoms: C_3  and  C_4
REMARK    3  A    between atoms: N_14  and  C_15
REMARK    4  A    between atoms: N_19  and  C_20
REMARK    5  A    between atoms: C_20  and  C_21
REMARK                            x       y       z     vdW  Elec       q    Type
REMARK                         _______ _______ _______ _____ _____    ______ ____
ROOT
ATOM      1  O   UNL     1       2.510   9.056  17.865  0.00  0.00    +0.000 OA
ATOM      2  C   UNL     1       1.774   8.672  18.766  0.00  0.00    +0.000 C 
ATOM      3  N   UNL     1       0.564   9.258  19.073  0.00  0.00    +0.000 N 
ATOM      4  H   UNL     1      -0.099   8.639  19.525  0.00  0.00    +0.000 HD
ENDROOT
BRANCH   3   5
ATOM      5  C   UNL     1      -0.051  10.364  18.327  0.00  0.00    +0.000 C 
ATOM      6  C   UNL     1      -1.263  10.020  17.469  0.00  0.00    +0.000 C 
ATOM      7  C   UNL     1      -2.591  10.303  18.140  0.00  0.00    +0.000 C 
ATOM      8  C   UNL     1      -2.649  11.702  18.726  0.00  0.00    +0.000 C 
ATOM      9  N   UNL     1      -1.434  12.163  19.389  0.00  0.00    +0.000 N 
ATOM     10  C   UNL     1      -0.183  11.596  19.229  0.00  0.00    +0.000 C 
ATOM     11  O   UNL     1       0.814  12.018  19.826  0.00  0.00    +0.000 OA
BRANCH   9  12
ATOM     12  C   UNL     1      -1.571  13.288  20.315  0.00  0.00    +0.000 C 
BRANCH  12  13
ATOM     13  C   UNL     1      -2.490  13.004  21.481  0.00  0.00    +0.000 A 
ATOM     14  C   UNL     1      -3.811  13.475  21.547  0.00  0.00    +0.000 A 
ATOM     15  C   UNL     1      -4.603  13.236  22.667  0.00  0.00    +0.000 A 
ATOM     16  C   UNL     1      -4.083  12.504  23.725  0.00  0.00    +0.000 A 
ATOM     17  F   UNL     1      -4.833  12.299  24.814  0.00  0.00    +0.000 F 
ATOM     18  C   UNL     1      -2.795  11.988  23.671  0.00  0.00    +0.000 A 
ATOM     19  C   UNL     1      -2.013  12.238  22.549  0.00  0.00    +0.000 A 
ATOM     20  F   UNL     1      -0.768  11.742  22.505  0.00  0.00    +0.000 F 
ENDBRANCH  12  13
ENDBRANCH   9  12
ENDBRANCH   3   5
BRANCH   2  21
ATOM     21  C   UNL     1       2.154   7.521  19.684  0.00  0.00    +0.000 C 
BRANCH  21  22
ATOM     22  C   UNL     1       2.547   6.238  19.014  0.00  0.00    +0.000 A 
ATOM     23  C   UNL     1       3.229   6.029  17.831  0.00  0.00    +0.000 A 
ATOM     24  N   UNL     1       3.343   4.677  17.623  0.00  0.00    +0.000 N 
ATOM     25  C   UNL     1       2.742   3.982  18.649  0.00  0.00    +0.000 A 
ATOM     26  C   UNL     1       2.613   2.601  18.860  0.00  0.00    +0.000 A 
ATOM     27  C   UNL     1       1.947   2.183  20.014  0.00  0.00    +0.000 A 
ATOM     28  C   UNL     1       1.429   3.114  20.905  0.00  0.00    +0.000 A 
ATOM     29  F   UNL     1       0.797   2.686  22.006  0.00  0.00    +0.000 F 
ATOM     30  C   UNL     1       1.555   4.484  20.685  0.00  0.00    +0.000 A 
ATOM     31  C   UNL     1       2.231   4.934  19.533  0.00  0.00    +0.000 A 
ATOM     32  H   UNL     1       3.804   4.247  16.834  0.00  0.00    +0.000 HD
ENDBRANCH  21  22
ENDBRANCH   2  21
TORSDOF 5
ENDMDL
MODEL 8
REMARK VINA RESULT:      -9.2      5.869      7.719
REMARK  Name = 
REMARK  5 active torsions:
REMARK  status: ('A' for Active; 'I' for Inactive)
REMARK    1  A    between atoms: C_2  and  C_3
REMARK    2  A    between atoms: C_3  and  C_4
REMARK    3  A    between atoms: N_14  and  C_15
REMARK    4  A    between atoms: N_19  and  C_20
REMARK    5  A    between atoms: C_20  and  C_21
REMARK                            x       y       z     vdW  Elec       q    Type
REMARK                         _______ _______ _______ _____ _____    ______ ____
ROOT
ATOM      1  O   UNL     1       4.592   4.182  18.865  0.00  0.00    +0.000 OA
ATOM      2  C   UNL     1       4.278   3.827  17.736  0.00  0.00    +0.000 C 
ATOM      3  N   UNL     1       3.002   3.933  17.223  0.00  0.00    +0.000 N 
ATOM      4  H   UNL     1       2.960   3.995  16.212  0.00  0.00    +0.000 HD
ENDROOT
BRANCH   3   5
ATOM      5  C   UNL     1       1.864   4.550  17.916  0.00  0.00    +0.000 C 
ATOM      6  C   UNL     1       1.179   3.712  18.990  0.00  0.00    +0.000 C 
ATOM      7  C   UNL     1       1.648   4.016  20.398  0.00  0.00    +0.000 C 
ATOM      8  C   UNL     1       1.631   5.504  20.697  0.00  0.00    +0.000 C 
ATOM      9  N   UNL     1       2.090   6.374  19.619  0.00  0.00    +0.000 N 
ATOM     10  C   UNL     1       2.201   5.997  18.294  0.00  0.00    +0.000 C 
ATOM     11  O   UNL     1       2.608   6.770  17.419  0.00  0.00    +0.000 OA
BRANCH   9  12
ATOM     12  C   UNL     1       2.491   7.732  19.989  0.00  0.00    +0.000 C 
BRANCH  12  13
ATOM     13  C   UNL     1       1.359   8.732  19.937  0.00  0.00    +0.000 A 
ATOM     14  C   UNL     1       0.954   9.367  18.752  0.00  0.00    +0.000 A 
ATOM     15  C   UNL     1      -0.058  10.325  18.762  0.00  0.00    +0.000 A 
ATOM     16  C   UNL     1      -0.686  10.640  19.959  0.00  0.00    +0.000 A 
ATOM     17  F   UNL     1      -1.637  11.580  19.973  0.00  0.00    +0.000 F 
ATOM     18  C   UNL     1      -0.336   9.998  21.139  0.00  0.00    +0.000 A 
ATOM     19  C   UNL     1       0.678   9.047  21.116  0.00  0.00    +0.000 A 
ATOM     20  F   UNL     1       1.015   8.434  22.261  0.00  0.00    +0.000 F 
ENDBRANCH  12  13
ENDBRANCH   9  12
ENDBRANCH   3   5
BRANCH   2  21
ATOM     21  C   UNL     1       5.273   3.175  16.789  0.00  0.00    +0.000 C 
BRANCH  21  22
ATOM     22  C   UNL     1       6.166   4.103  16.019  0.00  0.00    +0.000 A 
ATOM     23  C   UNL     1       6.928   5.166  16.462  0.00  0.00    +0.000 A 
ATOM     24  N   UNL     1       7.571   5.724  15.384  0.00  0.00    +0.000 N 
ATOM     25  C   UNL     1       7.243   5.049  14.230  0.00  0.00    +0.000 A 
ATOM     26  C   UNL     1       7.655   5.259  12.905  0.00  0.00    +0.000 A 
ATOM     27  C   UNL     1       7.153   4.395  11.928  0.00  0.00    +0.000 A 
ATOM     28  C   UNL     1       6.272   3.378  12.272  0.00  0.00    +0.000 A 
ATOM     29  F   UNL     1       5.808   2.563  11.315  0.00  0.00    +0.000 F 
ATOM     30  C   UNL     1       5.862   3.181  13.589  0.00  0.00    +0.000 A 
ATOM     31  C   UNL     1       6.361   4.031  14.596  0.00  0.00    +0.000 A 
ATOM     32  H   UNL     1       8.198   6.514  15.427  0.00  0.00    +0.000 HD
ENDBRANCH  21  22
ENDBRANCH   2  21
TORSDOF 5
ENDMDL
MODEL 9
REMARK VINA RESULT:      -9.2      6.653     10.588
REMARK  Name = 
REMARK  5 active torsions:
REMARK  status: ('A' for Active; 'I' for Inactive)
REMARK    1  A    between atoms: C_2  and  C_3
REMARK    2  A    between atoms: C_3  and  C_4
REMARK    3  A    between atoms: N_14  and  C_15
REMARK    4  A    between atoms: N_19  and  C_20
REMARK    5  A    between atoms: C_20  and  C_21
REMARK                            x       y       z     vdW  Elec       q    Type
REMARK                         _______ _______ _______ _____ _____    ______ ____
ROOT
ATOM      1  O   UNL     1       2.059   8.811  17.309  0.00  0.00    +0.000 OA
ATOM      2  C   UNL     1       1.610   8.710  18.444  0.00  0.00    +0.000 C 
ATOM      3  N   UNL     1       0.605   9.510  18.948  0.00  0.00    +0.000 N 
ATOM      4  H   UNL     1       0.067   9.086  19.695  0.00  0.00    +0.000 HD
ENDROOT
BRANCH   3   5
ATOM      5  C   UNL     1      -0.120  10.534  18.185  0.00  0.00    +0.000 C 
ATOM      6  C   UNL     1      -1.329  10.063  17.384  0.00  0.00    +0.000 C 
ATOM      7  C   UNL     1      -2.652  10.268  18.092  0.00  0.00    +0.000 C 
ATOM      8  C   UNL     1      -2.801  11.681  18.628  0.00  0.00    +0.000 C 
ATOM      9  N   UNL     1      -1.605  12.260  19.230  0.00  0.00    +0.000 N 
ATOM     10  C   UNL     1      -0.319  11.787  19.045  0.00  0.00    +0.000 C 
ATOM     11  O   UNL     1       0.661  12.308  19.589  0.00  0.00    +0.000 OA
BRANCH   9  12
ATOM     12  C   UNL     1      -1.799  13.407  20.118  0.00  0.00    +0.000 C 
BRANCH  12  13
ATOM     13  C   UNL     1      -2.454  13.050  21.433  0.00  0.00    +0.000 A 
ATOM     14  C   UNL     1      -1.852  12.212  22.384  0.00  0.00    +0.000 A 
ATOM     15  C   UNL     1      -2.517  11.865  23.558  0.00  0.00    +0.000 A 
ATOM     16  C   UNL     1      -3.786  12.372  23.797  0.00  0.00    +0.000 A 
ATOM     17  F   UNL     1      -4.436  12.016  24.911  0.00  0.00    +0.000 F 
ATOM     18  C   UNL     1      -4.390  13.238  22.895  0.00  0.00    +0.000 A 
ATOM     19  C   UNL     1      -3.717  13.573  21.726  0.00  0.00    +0.000 A 
ATOM     20  F   UNL     1      -4.308  14.405  20.856  0.00  0.00    +0.000 F 
ENDBRANCH  12  13
ENDBRANCH   9  12
ENDBRANCH   3   5
BRANCH   2  21
ATOM     21  C   UNL     1       2.162   7.708  19.445  0.00  0.00    +0.000 C 
BRANCH  21  22
ATOM     22  C   UNL     1       2.772   6.463  18.871  0.00  0.00    +0.000 A 
ATOM     23  C   UNL     1       3.687   6.316  17.847  0.00  0.00    +0.000 A 
ATOM     24  N   UNL     1       3.939   4.977  17.672  0.00  0.00    +0.000 N 
ATOM     25  C   UNL     1       3.201   4.231  18.563  0.00  0.00    +0.000 A 
ATOM     26  C   UNL     1       3.135   2.842  18.751  0.00  0.00    +0.000 A 
ATOM     27  C   UNL     1       2.287   2.365  19.754  0.00  0.00    +0.000 A 
ATOM     28  C   UNL     1       1.538   3.248  20.521  0.00  0.00    +0.000 A 
ATOM     29  F   UNL     1       0.734   2.764  21.478  0.00  0.00    +0.000 F 
ATOM     30  C   UNL     1       1.603   4.625  20.323  0.00  0.00    +0.000 A 
ATOM     31  C   UNL     1       2.457   5.134  19.325  0.00  0.00    +0.000 A 
ATOM     32  H   UNL     1       4.576   4.591  16.990  0.00  0.00    +0.000 HD
ENDBRANCH  21  22
ENDBRANCH   2  21
TORSDOF 5
ENDMDL
