MODEL 1
REMARK VINA RESULT:      -8.4      0.000      0.000
REMARK  Name = 
REMARK  5 active torsions:
REMARK  status: ('A' for Active; 'I' for Inactive)
REMARK    1  A    between atoms: C_1  and  N_2
REMARK    2  A    between atoms: N_2  and  C_3
REMARK    3  A    between atoms: C_9  and  N_10
REMARK    4  A    between atoms: C_11  and  C_13
REMARK    5  A    between atoms: C_15  and  C_16
REMARK                            x       y       z     vdW  Elec       q    Type
REMARK                         _______ _______ _______ _____ _____    ______ ____
ROOT
ATOM      1  N   UNL     1      -0.340  10.453  19.798  0.00  0.00    +0.000 N 
ATOM      2  C   UNL     1       0.871  10.741  19.136  0.00  0.00    +0.000 C 
ATOM      3  O   UNL     1       1.344  11.857  19.015  0.00  0.00    +0.000 OA
ATOM      4  H   UNL     1      -0.576   9.477  19.931  0.00  0.00    +0.000 HD
ENDROOT
BRANCH   1  13
ATOM      5  C   UNL     1      -5.749  15.876  23.068  0.00  0.00    +0.000 C 
ATOM      6  N   UNL     1      -4.593  15.565  23.895  0.00  0.00    +0.000 N 
ATOM      7  C   UNL     1      -4.181  16.522  24.908  0.00  0.00    +0.000 C 
ATOM      8  C   UNL     1      -3.626  14.739  23.325  0.00  0.00    +0.000 A 
ATOM      9  C   UNL     1      -2.492  14.372  24.047  0.00  0.00    +0.000 A 
ATOM     10  C   UNL     1      -1.592  13.449  23.522  0.00  0.00    +0.000 A 
ATOM     11  C   UNL     1      -1.802  12.907  22.250  0.00  0.00    +0.000 A 
ATOM     12  C   UNL     1      -0.955  11.943  21.666  0.00  0.00    +0.000 A 
ATOM     13  C   UNL     1      -1.191  11.438  20.383  0.00  0.00    +0.000 A 
ATOM     14  C   UNL     1      -2.290  11.946  19.679  0.00  0.00    +0.000 A 
ATOM     15  C   UNL     1      -3.143  12.889  20.279  0.00  0.00    +0.000 A 
ATOM     16  C   UNL     1      -2.937  13.368  21.558  0.00  0.00    +0.000 A 
ATOM     17  N   UNL     1      -3.819  14.241  22.082  0.00  0.00    +0.000 NA
ENDBRANCH   1  13
BRANCH   2  18
ATOM     18  C   UNL     1       1.608   9.576  18.647  0.00  0.00    +0.000 A 
ATOM     19  C   UNL     1       1.804   8.300  19.139  0.00  0.00    +0.000 A 
ATOM     20  C   UNL     1       2.508   7.637  18.095  0.00  0.00    +0.000 A 
ATOM     21  N   UNL     1       2.795   8.496  17.105  0.00  0.00    +0.000 NA
ATOM     22  O   UNL     1       2.217   9.689  17.447  0.00  0.00    +0.000 OA
BRANCH  20  23
ATOM     23  C   UNL     1       2.864   6.223  17.980  0.00  0.00    +0.000 A 
ATOM     24  C   UNL     1       4.148   5.859  17.523  0.00  0.00    +0.000 A 
ATOM     25  C   UNL     1       4.522   4.516  17.432  0.00  0.00    +0.000 A 
ATOM     26  C   UNL     1       3.601   3.565  17.816  0.00  0.00    +0.000 A 
ATOM     27  C   UNL     1       2.340   3.903  18.277  0.00  0.00    +0.000 A 
ATOM     28  C   UNL     1       1.949   5.228  18.367  0.00  0.00    +0.000 A 
ATOM     29  C   UNL     1       1.575   2.666  18.551  0.00  0.00    +0.000 C 
ATOM     30  C   UNL     1       2.732   1.666  18.550  0.00  0.00    +0.000 C 
ATOM     31  O   UNL     1       3.829   2.213  17.780  0.00  0.00    +0.000 OA
ENDBRANCH  20  23
ENDBRANCH   2  18
TORSDOF 3
ENDMDL
MODEL 2
REMARK VINA RESULT:      -8.3      1.500      2.626
REMARK  Name = 
REMARK  5 active torsions:
REMARK  status: ('A' for Active; 'I' for Inactive)
REMARK    1  A    between atoms: C_1  and  N_2
REMARK    2  A    between atoms: N_2  and  C_3
REMARK    3  A    between atoms: C_9  and  N_10
REMARK    4  A    between atoms: C_11  and  C_13
REMARK    5  A    between atoms: C_15  and  C_16
REMARK                            x       y       z     vdW  Elec       q    Type
REMARK                         _______ _______ _______ _____ _____    ______ ____
ROOT
ATOM      1  N   UNL     1       0.044  11.036  20.156  0.00  0.00    +0.000 N 
ATOM      2  C   UNL     1       0.320   9.690  20.472  0.00  0.00    +0.000 C 
ATOM      3  O   UNL     1      -0.197   9.075  21.389  0.00  0.00    +0.000 OA
ATOM      4  H   UNL     1       0.450  11.406  19.306  0.00  0.00    +0.000 HD
ENDROOT
BRANCH   1  13
ATOM      5  C   UNL     1      -4.757  16.261  24.515  0.00  0.00    +0.000 C 
ATOM      6  N   UNL     1      -5.356  15.719  23.306  0.00  0.00    +0.000 N 
ATOM      7  C   UNL     1      -6.805  15.673  23.203  0.00  0.00    +0.000 C 
ATOM      8  C   UNL     1      -4.608  14.765  22.617  0.00  0.00    +0.000 A 
ATOM      9  C   UNL     1      -5.092  14.202  21.438  0.00  0.00    +0.000 A 
ATOM     10  C   UNL     1      -4.292  13.345  20.687  0.00  0.00    +0.000 A 
ATOM     11  C   UNL     1      -3.006  13.017  21.129  0.00  0.00    +0.000 A 
ATOM     12  C   UNL     1      -2.125  12.185  20.408  0.00  0.00    +0.000 A 
ATOM     13  C   UNL     1      -0.852  11.868  20.893  0.00  0.00    +0.000 A 
ATOM     14  C   UNL     1      -0.488  12.384  22.143  0.00  0.00    +0.000 A 
ATOM     15  C   UNL     1      -1.363  13.233  22.843  0.00  0.00    +0.000 A 
ATOM     16  C   UNL     1      -2.608  13.578  22.356  0.00  0.00    +0.000 A 
ATOM     17  N   UNL     1      -3.378  14.429  23.065  0.00  0.00    +0.000 NA
ENDBRANCH   1  13
BRANCH   2  18
ATOM     18  C   UNL     1       1.238   9.009  19.559  0.00  0.00    +0.000 A 
ATOM     19  C   UNL     1       1.995   7.857  19.655  0.00  0.00    +0.000 A 
ATOM     20  C   UNL     1       2.551   7.707  18.354  0.00  0.00    +0.000 A 
ATOM     21  N   UNL     1       2.226   8.753  17.582  0.00  0.00    +0.000 NA
ATOM     22  O   UNL     1       1.398   9.546  18.331  0.00  0.00    +0.000 OA
BRANCH  20  23
ATOM     23  C   UNL     1       3.322   6.590  17.810  0.00  0.00    +0.000 A 
ATOM     24  C   UNL     1       2.805   5.279  17.885  0.00  0.00    +0.000 A 
ATOM     25  C   UNL     1       3.510   4.199  17.347  0.00  0.00    +0.000 A 
ATOM     26  C   UNL     1       4.714   4.460  16.730  0.00  0.00    +0.000 A 
ATOM     27  C   UNL     1       5.234   5.741  16.638  0.00  0.00    +0.000 A 
ATOM     28  C   UNL     1       4.554   6.822  17.172  0.00  0.00    +0.000 A 
ATOM     29  C   UNL     1       6.557   5.682  15.978  0.00  0.00    +0.000 C 
ATOM     30  C   UNL     1       6.468   4.272  15.393  0.00  0.00    +0.000 C 
ATOM     31  O   UNL     1       5.512   3.502  16.160  0.00  0.00    +0.000 OA
ENDBRANCH  20  23
ENDBRANCH   2  18
TORSDOF 3
ENDMDL
MODEL 3
REMARK VINA RESULT:      -8.3      2.934      4.329
REMARK  Name = 
REMARK  5 active torsions:
REMARK  status: ('A' for Active; 'I' for Inactive)
REMARK    1  A    between atoms: C_1  and  N_2
REMARK    2  A    between atoms: N_2  and  C_3
REMARK    3  A    between atoms: C_9  and  N_10
REMARK    4  A    between atoms: C_11  and  C_13
REMARK    5  A    between atoms: C_15  and  C_16
REMARK                            x       y       z     vdW  Elec       q    Type
REMARK                         _______ _______ _______ _____ _____    ______ ____
ROOT
ATOM      1  N   UNL     1       1.942   8.206  19.797  0.00  0.00    +0.000 N 
ATOM      2  C   UNL     1       2.115   6.829  20.051  0.00  0.00    +0.000 C 
ATOM      3  O   UNL     1       1.482   6.194  20.875  0.00  0.00    +0.000 OA
ATOM      4  H   UNL     1       2.446   8.600  19.012  0.00  0.00    +0.000 HD
ENDROOT
BRANCH   1  13
ATOM      5  C   UNL     1      -2.971  13.255  24.238  0.00  0.00    +0.000 C 
ATOM      6  N   UNL     1      -3.109  13.355  22.794  0.00  0.00    +0.000 N 
ATOM      7  C   UNL     1      -4.351  13.872  22.244  0.00  0.00    +0.000 C 
ATOM      8  C   UNL     1      -2.370  12.449  22.035  0.00  0.00    +0.000 A 
ATOM      9  C   UNL     1      -2.424  12.480  20.643  0.00  0.00    +0.000 A 
ATOM     10  C   UNL     1      -1.591  11.659  19.888  0.00  0.00    +0.000 A 
ATOM     11  C   UNL     1      -0.717  10.770  20.523  0.00  0.00    +0.000 A 
ATOM     12  C   UNL     1       0.179   9.932  19.828  0.00  0.00    +0.000 A 
ATOM     13  C   UNL     1       1.026   9.045  20.500  0.00  0.00    +0.000 A 
ATOM     14  C   UNL     1       0.934   8.993  21.896  0.00  0.00    +0.000 A 
ATOM     15  C   UNL     1       0.056   9.850  22.582  0.00  0.00    +0.000 A 
ATOM     16  C   UNL     1      -0.760  10.753  21.929  0.00  0.00    +0.000 A 
ATOM     17  N   UNL     1      -1.549  11.571  22.654  0.00  0.00    +0.000 NA
ENDBRANCH   1  13
BRANCH   2  18
ATOM     18  C   UNL     1       3.078   6.150  19.184  0.00  0.00    +0.000 A 
ATOM     19  C   UNL     1       3.281   6.135  17.817  0.00  0.00    +0.000 A 
ATOM     20  C   UNL     1       4.473   5.374  17.659  0.00  0.00    +0.000 A 
ATOM     21  N   UNL     1       4.880   4.891  18.841  0.00  0.00    +0.000 NA
ATOM     22  O   UNL     1       4.021   5.392  19.782  0.00  0.00    +0.000 OA
BRANCH  20  23
ATOM     23  C   UNL     1       5.259   5.141  16.448  0.00  0.00    +0.000 A 
ATOM     24  C   UNL     1       6.620   5.513  16.415  0.00  0.00    +0.000 A 
ATOM     25  C   UNL     1       7.400   5.275  15.281  0.00  0.00    +0.000 A 
ATOM     26  C   UNL     1       6.800   4.654  14.206  0.00  0.00    +0.000 A 
ATOM     27  C   UNL     1       5.468   4.273  14.223  0.00  0.00    +0.000 A 
ATOM     28  C   UNL     1       4.678   4.508  15.335  0.00  0.00    +0.000 A 
ATOM     29  C   UNL     1       5.112   3.692  12.910  0.00  0.00    +0.000 C 
ATOM     30  C   UNL     1       6.521   3.462  12.362  0.00  0.00    +0.000 C 
ATOM     31  O   UNL     1       7.440   4.358  13.030  0.00  0.00    +0.000 OA
ENDBRANCH  20  23
ENDBRANCH   2  18
TORSDOF 3
ENDMDL
MODEL 4
REMARK VINA RESULT:      -8.3      1.338      2.103
REMARK  Name = 
REMARK  5 active torsions:
REMARK  status: ('A' for Active; 'I' for Inactive)
REMARK    1  A    between atoms: C_1  and  N_2
REMARK    2  A    between atoms: N_2  and  C_3
REMARK    3  A    between atoms: C_9  and  N_10
REMARK    4  A    between atoms: C_11  and  C_13
REMARK    5  A    between atoms: C_15  and  C_16
REMARK                            x       y       z     vdW  Elec       q    Type
REMARK                         _______ _______ _______ _____ _____    ______ ____
ROOT
ATOM      1  N   UNL     1       0.056  11.057  19.842  0.00  0.00    +0.000 N 
ATOM      2  C   UNL     1       0.329   9.725  20.216  0.00  0.00    +0.000 C 
ATOM      3  O   UNL     1      -0.216   9.140  21.135  0.00  0.00    +0.000 OA
ATOM      4  H   UNL     1       0.490  11.399  18.993  0.00  0.00    +0.000 HD
ENDROOT
BRANCH   1  13
ATOM      5  C   UNL     1      -5.728  15.597  23.752  0.00  0.00    +0.000 C 
ATOM      6  N   UNL     1      -4.397  15.636  24.337  0.00  0.00    +0.000 N 
ATOM      7  C   UNL     1      -4.029  16.775  25.163  0.00  0.00    +0.000 C 
ATOM      8  C   UNL     1      -3.392  14.966  23.641  0.00  0.00    +0.000 A 
ATOM      9  C   UNL     1      -2.089  14.933  24.134  0.00  0.00    +0.000 A 
ATOM     10  C   UNL     1      -1.118  14.160  23.503  0.00  0.00    +0.000 A 
ATOM     11  C   UNL     1      -1.436  13.435  22.350  0.00  0.00    +0.000 A 
ATOM     12  C   UNL     1      -0.518  12.604  21.676  0.00  0.00    +0.000 A 
ATOM     13  C   UNL     1      -0.870  11.909  20.516  0.00  0.00    +0.000 A 
ATOM     14  C   UNL     1      -2.169  12.088  20.023  0.00  0.00    +0.000 A 
ATOM     15  C   UNL     1      -3.086  12.898  20.714  0.00  0.00    +0.000 A 
ATOM     16  C   UNL     1      -2.756  13.563  21.880  0.00  0.00    +0.000 A 
ATOM     17  N   UNL     1      -3.698  14.291  22.510  0.00  0.00    +0.000 NA
ENDBRANCH   1  13
BRANCH   2  18
ATOM     18  C   UNL     1       1.283   9.019  19.361  0.00  0.00    +0.000 A 
ATOM     19  C   UNL     1       1.953   7.816  19.475  0.00  0.00    +0.000 A 
ATOM     20  C   UNL     1       2.616   7.676  18.224  0.00  0.00    +0.000 A 
ATOM     21  N   UNL     1       2.431   8.770  17.471  0.00  0.00    +0.000 NA
ATOM     22  O   UNL     1       1.588   9.588  18.175  0.00  0.00    +0.000 OA
BRANCH  20  23
ATOM     23  C   UNL     1       3.363   6.531  17.704  0.00  0.00    +0.000 A 
ATOM     24  C   UNL     1       2.953   5.221  18.031  0.00  0.00    +0.000 A 
ATOM     25  C   UNL     1       3.632   4.111  17.524  0.00  0.00    +0.000 A 
ATOM     26  C   UNL     1       4.702   4.339  16.685  0.00  0.00    +0.000 A 
ATOM     27  C   UNL     1       5.114   5.617  16.345  0.00  0.00    +0.000 A 
ATOM     28  C   UNL     1       4.458   6.729  16.844  0.00  0.00    +0.000 A 
ATOM     29  C   UNL     1       6.314   5.528  15.486  0.00  0.00    +0.000 C 
ATOM     30  C   UNL     1       6.227   4.049  15.108  0.00  0.00    +0.000 C 
ATOM     31  O   UNL     1       5.460   3.348  16.115  0.00  0.00    +0.000 OA
ENDBRANCH  20  23
ENDBRANCH   2  18
TORSDOF 3
ENDMDL
MODEL 5
REMARK VINA RESULT:      -8.3      1.891      2.772
REMARK  Name = 
REMARK  5 active torsions:
REMARK  status: ('A' for Active; 'I' for Inactive)
REMARK    1  A    between atoms: C_1  and  N_2
REMARK    2  A    between atoms: N_2  and  C_3
REMARK    3  A    between atoms: C_9  and  N_10
REMARK    4  A    between atoms: C_11  and  C_13
REMARK    5  A    between atoms: C_15  and  C_16
REMARK                            x       y       z     vdW  Elec       q    Type
REMARK                         _______ _______ _______ _____ _____    ______ ____
ROOT
ATOM      1  N   UNL     1       0.902  10.221  20.882  0.00  0.00    +0.000 N 
ATOM      2  C   UNL     1       0.836   9.815  19.533  0.00  0.00    +0.000 C 
ATOM      3  O   UNL     1       0.313  10.461  18.642  0.00  0.00    +0.000 OA
ATOM      4  H   UNL     1       1.458   9.654  21.510  0.00  0.00    +0.000 HD
ENDROOT
BRANCH   1  13
ATOM      5  C   UNL     1      -2.369  17.483  23.314  0.00  0.00    +0.000 C 
ATOM      6  N   UNL     1      -3.088  16.295  23.744  0.00  0.00    +0.000 N 
ATOM      7  C   UNL     1      -3.942  16.381  24.917  0.00  0.00    +0.000 C 
ATOM      8  C   UNL     1      -2.503  15.068  23.434  0.00  0.00    +0.000 A 
ATOM      9  C   UNL     1      -3.128  13.875  23.791  0.00  0.00    +0.000 A 
ATOM     10  C   UNL     1      -2.605  12.655  23.371  0.00  0.00    +0.000 A 
ATOM     11  C   UNL     1      -1.428  12.616  22.616  0.00  0.00    +0.000 A 
ATOM     12  C   UNL     1      -0.857  11.424  22.126  0.00  0.00    +0.000 A 
ATOM     13  C   UNL     1       0.331  11.427  21.388  0.00  0.00    +0.000 A 
ATOM     14  C   UNL     1       0.956  12.661  21.173  0.00  0.00    +0.000 A 
ATOM     15  C   UNL     1       0.367  13.848  21.643  0.00  0.00    +0.000 A 
ATOM     16  C   UNL     1      -0.823  13.857  22.344  0.00  0.00    +0.000 A 
ATOM     17  N   UNL     1      -1.349  15.037  22.730  0.00  0.00    +0.000 NA
ENDBRANCH   1  13
BRANCH   2  18
ATOM     18  C   UNL     1       1.525   8.563  19.223  0.00  0.00    +0.000 A 
ATOM     19  C   UNL     1       2.081   8.044  18.069  0.00  0.00    +0.000 A 
ATOM     20  C   UNL     1       2.708   6.843  18.504  0.00  0.00    +0.000 A 
ATOM     21  N   UNL     1       2.447   6.622  19.801  0.00  0.00    +0.000 NA
ATOM     22  O   UNL     1       1.730   7.702  20.242  0.00  0.00    +0.000 OA
BRANCH  20  23
ATOM     23  C   UNL     1       3.580   5.939  17.755  0.00  0.00    +0.000 A 
ATOM     24  C   UNL     1       3.269   4.565  17.683  0.00  0.00    +0.000 A 
ATOM     25  C   UNL     1       4.071   3.686  16.951  0.00  0.00    +0.000 A 
ATOM     26  C   UNL     1       5.163   4.209  16.292  0.00  0.00    +0.000 A 
ATOM     27  C   UNL     1       5.479   5.557  16.343  0.00  0.00    +0.000 A 
ATOM     28  C   UNL     1       4.701   6.441  17.070  0.00  0.00    +0.000 A 
ATOM     29  C   UNL     1       6.730   5.791  15.589  0.00  0.00    +0.000 C 
ATOM     30  C   UNL     1       6.795   4.469  14.821  0.00  0.00    +0.000 C 
ATOM     31  O   UNL     1       6.036   3.468  15.538  0.00  0.00    +0.000 OA
ENDBRANCH  20  23
ENDBRANCH   2  18
TORSDOF 3
ENDMDL
MODEL 6
REMARK VINA RESULT:      -8.3      1.513      2.277
REMARK  Name = 
REMARK  5 active torsions:
REMARK  status: ('A' for Active; 'I' for Inactive)
REMARK    1  A    between atoms: C_1  and  N_2
REMARK    2  A    between atoms: N_2  and  C_3
REMARK    3  A    between atoms: C_9  and  N_10
REMARK    4  A    between atoms: C_11  and  C_13
REMARK    5  A    between atoms: C_15  and  C_16
REMARK                            x       y       z     vdW  Elec       q    Type
REMARK                         _______ _______ _______ _____ _____    ______ ____
ROOT
ATOM      1  N   UNL     1      -0.176  10.135  20.181  0.00  0.00    +0.000 N 
ATOM      2  C   UNL     1       0.956  10.163  19.340  0.00  0.00    +0.000 C 
ATOM      3  O   UNL     1       1.459  11.178  18.892  0.00  0.00    +0.000 OA
ATOM      4  H   UNL     1      -0.436   9.241  20.579  0.00  0.00    +0.000 HD
ENDROOT
BRANCH   1  13
ATOM      5  C   UNL     1      -4.901  16.620  22.412  0.00  0.00    +0.000 C 
ATOM      6  N   UNL     1      -3.870  16.236  23.364  0.00  0.00    +0.000 N 
ATOM      7  C   UNL     1      -3.389  17.229  24.310  0.00  0.00    +0.000 C 
ATOM      8  C   UNL     1      -3.004  15.219  22.965  0.00  0.00    +0.000 A 
ATOM      9  C   UNL     1      -1.996  14.772  23.818  0.00  0.00    +0.000 A 
ATOM     10  C   UNL     1      -1.215  13.675  23.468  0.00  0.00    +0.000 A 
ATOM     11  C   UNL     1      -1.413  13.033  22.241  0.00  0.00    +0.000 A 
ATOM     12  C   UNL     1      -0.686  11.896  21.831  0.00  0.00    +0.000 A 
ATOM     13  C   UNL     1      -0.904  11.293  20.589  0.00  0.00    +0.000 A 
ATOM     14  C   UNL     1      -1.856  11.876  19.744  0.00  0.00    +0.000 A 
ATOM     15  C   UNL     1      -2.595  12.994  20.170  0.00  0.00    +0.000 A 
ATOM     16  C   UNL     1      -2.410  13.576  21.409  0.00  0.00    +0.000 A 
ATOM     17  N   UNL     1      -3.182  14.622  21.766  0.00  0.00    +0.000 NA
ENDBRANCH   1  13
BRANCH   2  18
ATOM     18  C   UNL     1       1.574   8.863  19.081  0.00  0.00    +0.000 A 
ATOM     19  C   UNL     1       2.119   8.276  17.955  0.00  0.00    +0.000 A 
ATOM     20  C   UNL     1       2.664   7.054  18.439  0.00  0.00    +0.000 A 
ATOM     21  N   UNL     1       2.368   6.890  19.736  0.00  0.00    +0.000 NA
ATOM     22  O   UNL     1       1.709   8.023  20.130  0.00  0.00    +0.000 OA
BRANCH  20  23
ATOM     23  C   UNL     1       3.495   6.077  17.735  0.00  0.00    +0.000 A 
ATOM     24  C   UNL     1       3.132   4.714  17.745  0.00  0.00    +0.000 A 
ATOM     25  C   UNL     1       3.893   3.766  17.057  0.00  0.00    +0.000 A 
ATOM     26  C   UNL     1       4.997   4.209  16.360  0.00  0.00    +0.000 A 
ATOM     27  C   UNL     1       5.363   5.544  16.331  0.00  0.00    +0.000 A 
ATOM     28  C   UNL     1       4.626   6.497  17.013  0.00  0.00    +0.000 A 
ATOM     29  C   UNL     1       6.614   5.688  15.554  0.00  0.00    +0.000 C 
ATOM     30  C   UNL     1       6.622   4.323  14.862  0.00  0.00    +0.000 C 
ATOM     31  O   UNL     1       5.834   3.394  15.642  0.00  0.00    +0.000 OA
ENDBRANCH  20  23
ENDBRANCH   2  18
TORSDOF 3
ENDMDL
MODEL 7
REMARK VINA RESULT:      -8.3      0.689      1.527
REMARK  Name = 
REMARK  5 active torsions:
REMARK  status: ('A' for Active; 'I' for Inactive)
REMARK    1  A    between atoms: C_1  and  N_2
REMARK    2  A    between atoms: N_2  and  C_3
REMARK    3  A    between atoms: C_9  and  N_10
REMARK    4  A    between atoms: C_11  and  C_13
REMARK    5  A    between atoms: C_15  and  C_16
REMARK                            x       y       z     vdW  Elec       q    Type
REMARK                         _______ _______ _______ _____ _____    ______ ____
ROOT
ATOM      1  N   UNL     1      -0.152  10.444  20.388  0.00  0.00    +0.000 N 
ATOM      2  C   UNL     1       0.784  10.782  19.388  0.00  0.00    +0.000 C 
ATOM      3  O   UNL     1       1.039  11.921  19.038  0.00  0.00    +0.000 OA
ATOM      4  H   UNL     1      -0.198   9.473  20.671  0.00  0.00    +0.000 HD
ENDROOT
BRANCH   1  13
ATOM      5  C   UNL     1      -4.322  16.233  24.683  0.00  0.00    +0.000 C 
ATOM      6  N   UNL     1      -4.841  15.940  23.357  0.00  0.00    +0.000 N 
ATOM      7  C   UNL     1      -6.237  16.229  23.072  0.00  0.00    +0.000 C 
ATOM      8  C   UNL     1      -4.219  14.903  22.661  0.00  0.00    +0.000 A 
ATOM      9  C   UNL     1      -4.636  14.562  21.377  0.00  0.00    +0.000 A 
ATOM     10  C   UNL     1      -3.934  13.613  20.639  0.00  0.00    +0.000 A 
ATOM     11  C   UNL     1      -2.824  12.970  21.195  0.00  0.00    +0.000 A 
ATOM     12  C   UNL     1      -2.043  12.024  20.499  0.00  0.00    +0.000 A 
ATOM     13  C   UNL     1      -0.949  11.391  21.098  0.00  0.00    +0.000 A 
ATOM     14  C   UNL     1      -0.669  11.708  22.433  0.00  0.00    +0.000 A 
ATOM     15  C   UNL     1      -1.437  12.670  23.111  0.00  0.00    +0.000 A 
ATOM     16  C   UNL     1      -2.498  13.325  22.517  0.00  0.00    +0.000 A 
ATOM     17  N   UNL     1      -3.165  14.264  23.216  0.00  0.00    +0.000 NA
ENDBRANCH   1  13
BRANCH   2  18
ATOM     18  C   UNL     1       1.524   9.656  18.819  0.00  0.00    +0.000 A 
ATOM     19  C   UNL     1       1.814   8.383  19.271  0.00  0.00    +0.000 A 
ATOM     20  C   UNL     1       2.455   7.767  18.161  0.00  0.00    +0.000 A 
ATOM     21  N   UNL     1       2.622   8.650  17.166  0.00  0.00    +0.000 NA
ATOM     22  O   UNL     1       2.026   9.812  17.576  0.00  0.00    +0.000 OA
BRANCH  20  23
ATOM     23  C   UNL     1       2.858   6.371  17.993  0.00  0.00    +0.000 A 
ATOM     24  C   UNL     1       4.169   6.067  17.568  0.00  0.00    +0.000 A 
ATOM     25  C   UNL     1       4.587   4.742  17.427  0.00  0.00    +0.000 A 
ATOM     26  C   UNL     1       3.683   3.746  17.730  0.00  0.00    +0.000 A 
ATOM     27  C   UNL     1       2.396   4.024  18.157  0.00  0.00    +0.000 A 
ATOM     28  C   UNL     1       1.961   5.331  18.295  0.00  0.00    +0.000 A 
ATOM     29  C   UNL     1       1.660   2.754  18.342  0.00  0.00    +0.000 C 
ATOM     30  C   UNL     1       2.847   1.789  18.338  0.00  0.00    +0.000 C 
ATOM     31  O   UNL     1       3.954   2.405  17.638  0.00  0.00    +0.000 OA
ENDBRANCH  20  23
ENDBRANCH   2  18
TORSDOF 3
ENDMDL
MODEL 8
REMARK VINA RESULT:      -8.2      2.782     11.572
REMARK  Name = 
REMARK  5 active torsions:
REMARK  status: ('A' for Active; 'I' for Inactive)
REMARK    1  A    between atoms: C_1  and  N_2
REMARK    2  A    between atoms: N_2  and  C_3
REMARK    3  A    between atoms: C_9  and  N_10
REMARK    4  A    between atoms: C_11  and  C_13
REMARK    5  A    between atoms: C_15  and  C_16
REMARK                            x       y       z     vdW  Elec       q    Type
REMARK                         _______ _______ _______ _____ _____    ______ ____
ROOT
ATOM      1  N   UNL     1       0.852  10.015  20.475  0.00  0.00    +0.000 N 
ATOM      2  C   UNL     1      -0.053  10.032  21.557  0.00  0.00    +0.000 C 
ATOM      3  O   UNL     1      -0.448   9.039  22.142  0.00  0.00    +0.000 OA
ATOM      4  H   UNL     1       1.193  10.908  20.142  0.00  0.00    +0.000 HD
ENDROOT
BRANCH   1  13
ATOM      5  C   UNL     1       4.485   3.400  16.956  0.00  0.00    +0.000 C 
ATOM      6  N   UNL     1       3.942   3.184  18.287  0.00  0.00    +0.000 N 
ATOM      7  C   UNL     1       3.595   1.831  18.690  0.00  0.00    +0.000 C 
ATOM      8  C   UNL     1       3.241   4.248  18.853  0.00  0.00    +0.000 A 
ATOM      9  C   UNL     1       2.700   4.141  20.132  0.00  0.00    +0.000 A 
ATOM     10  C   UNL     1       2.111   5.245  20.741  0.00  0.00    +0.000 A 
ATOM     11  C   UNL     1       2.028   6.463  20.060  0.00  0.00    +0.000 A 
ATOM     12  C   UNL     1       1.477   7.633  20.622  0.00  0.00    +0.000 A 
ATOM     13  C   UNL     1       1.398   8.828  19.901  0.00  0.00    +0.000 A 
ATOM     14  C   UNL     1       1.860   8.819  18.579  0.00  0.00    +0.000 A 
ATOM     15  C   UNL     1       2.431   7.655  18.034  0.00  0.00    +0.000 A 
ATOM     16  C   UNL     1       2.544   6.480  18.751  0.00  0.00    +0.000 A 
ATOM     17  N   UNL     1       3.138   5.415  18.177  0.00  0.00    +0.000 NA
ENDBRANCH   1  13
BRANCH   2  18
ATOM     18  C   UNL     1      -0.455  11.361  22.016  0.00  0.00    +0.000 A 
ATOM     19  C   UNL     1      -1.621  11.869  22.554  0.00  0.00    +0.000 A 
ATOM     20  C   UNL     1      -1.281  13.207  22.900  0.00  0.00    +0.000 A 
ATOM     21  N   UNL     1      -0.035  13.493  22.497  0.00  0.00    +0.000 NA
ATOM     22  O   UNL     1       0.476  12.338  21.967  0.00  0.00    +0.000 OA
BRANCH  20  23
ATOM     23  C   UNL     1      -2.069  14.191  23.642  0.00  0.00    +0.000 A 
ATOM     24  C   UNL     1      -1.462  14.940  24.673  0.00  0.00    +0.000 A 
ATOM     25  C   UNL     1      -2.185  15.906  25.377  0.00  0.00    +0.000 A 
ATOM     26  C   UNL     1      -3.501  16.112  25.020  0.00  0.00    +0.000 A 
ATOM     27  C   UNL     1      -4.110  15.394  24.004  0.00  0.00    +0.000 A 
ATOM     28  C   UNL     1      -3.412  14.428  23.301  0.00  0.00    +0.000 A 
ATOM     29  C   UNL     1      -5.529  15.803  23.905  0.00  0.00    +0.000 C 
ATOM     30  C   UNL     1      -5.463  17.092  24.725  0.00  0.00    +0.000 C 
ATOM     31  O   UNL     1      -4.329  17.024  25.622  0.00  0.00    +0.000 OA
ENDBRANCH  20  23
ENDBRANCH   2  18
TORSDOF 3
ENDMDL
MODEL 9
REMARK VINA RESULT:      -8.1      2.346      2.894
REMARK  Name = 
REMARK  5 active torsions:
REMARK  status: ('A' for Active; 'I' for Inactive)
REMARK    1  A    between atoms: C_1  and  N_2
REMARK    2  A    between atoms: N_2  and  C_3
REMARK    3  A    between atoms: C_9  and  N_10
REMARK    4  A    between atoms: C_11  and  C_13
REMARK    5  A    between atoms: C_15  and  C_16
REMARK                            x       y       z     vdW  Elec       q    Type
REMARK                         _______ _______ _______ _____ _____    ______ ____
ROOT
ATOM      1  N   UNL     1       0.576   9.601  19.871  0.00  0.00    +0.000 N 
ATOM      2  C   UNL     1       0.794   8.446  20.650  0.00  0.00    +0.000 C 
ATOM      3  O   UNL     1       0.212   8.195  21.691  0.00  0.00    +0.000 OA
ATOM      4  H   UNL     1       1.037   9.647  18.971  0.00  0.00    +0.000 HD
ENDROOT
BRANCH   1  13
ATOM      5  C   UNL     1      -5.139  15.368  21.724  0.00  0.00    +0.000 C 
ATOM      6  N   UNL     1      -4.127  15.137  22.743  0.00  0.00    +0.000 N 
ATOM      7  C   UNL     1      -3.849  16.191  23.704  0.00  0.00    +0.000 C 
ATOM      8  C   UNL     1      -3.103  14.250  22.411  0.00  0.00    +0.000 A 
ATOM      9  C   UNL     1      -2.098  13.952  23.330  0.00  0.00    +0.000 A 
ATOM     10  C   UNL     1      -1.151  12.974  23.042  0.00  0.00    +0.000 A 
ATOM     11  C   UNL     1      -1.180  12.305  21.814  0.00  0.00    +0.000 A 
ATOM     12  C   UNL     1      -0.277  11.280  21.465  0.00  0.00    +0.000 A 
ATOM     13  C   UNL     1      -0.330  10.647  20.219  0.00  0.00    +0.000 A 
ATOM     14  C   UNL     1      -1.300  11.087  19.310  0.00  0.00    +0.000 A 
ATOM     15  C   UNL     1      -2.213  12.092  19.675  0.00  0.00    +0.000 A 
ATOM     16  C   UNL     1      -2.189  12.699  20.916  0.00  0.00    +0.000 A 
ATOM     17  N   UNL     1      -3.120  13.628  21.211  0.00  0.00    +0.000 NA
ENDBRANCH   1  13
BRANCH   2  18
ATOM     18  C   UNL     1       1.737   7.480  20.086  0.00  0.00    +0.000 A 
ATOM     19  C   UNL     1       2.601   7.514  19.009  0.00  0.00    +0.000 A 
ATOM     20  C   UNL     1       3.318   6.289  19.111  0.00  0.00    +0.000 A 
ATOM     21  N   UNL     1       2.835   5.545  20.116  0.00  0.00    +0.000 NA
ATOM     22  O   UNL     1       1.868   6.299  20.725  0.00  0.00    +0.000 OA
BRANCH  20  23
ATOM     23  C   UNL     1       4.470   5.832  18.333  0.00  0.00    +0.000 A 
ATOM     24  C   UNL     1       5.625   5.370  18.998  0.00  0.00    +0.000 A 
ATOM     25  C   UNL     1       6.727   4.901  18.278  0.00  0.00    +0.000 A 
ATOM     26  C   UNL     1       6.640   4.893  16.902  0.00  0.00    +0.000 A 
ATOM     27  C   UNL     1       5.511   5.333  16.232  0.00  0.00    +0.000 A 
ATOM     28  C   UNL     1       4.413   5.808  16.928  0.00  0.00    +0.000 A 
ATOM     29  C   UNL     1       5.750   5.254  14.774  0.00  0.00    +0.000 C 
ATOM     30  C   UNL     1       6.984   4.351  14.785  0.00  0.00    +0.000 C 
ATOM     31  O   UNL     1       7.641   4.463  16.069  0.00  0.00    +0.000 OA
ENDBRANCH  20  23
ENDBRANCH   2  18
TORSDOF 3
ENDMDL
