MODEL 1
REMARK VINA RESULT:      -8.7      0.000      0.000
REMARK  Name = 
REMARK  5 active torsions:
REMARK  status: ('A' for Active; 'I' for Inactive)
REMARK    1  A    between atoms: C_2  and  C_7
REMARK    2  A    between atoms: N_3  and  C_4
REMARK    3  A    between atoms: C_11  and  S_12
REMARK    4  A    between atoms: S_12  and  N_15
REMARK    5  A    between atoms: C_20  and  C_21
REMARK                            x       y       z     vdW  Elec       q    Type
REMARK                         _______ _______ _______ _____ _____    ______ ____
ROOT
ATOM      1  S   UNL     1       3.069   4.166  18.367  0.00  0.00    +0.000 S 
ATOM      2  O   UNL     1       2.139   4.309  17.268  0.00  0.00    +0.000 OA
ATOM      3  O   UNL     1       3.058   2.979  19.202  0.00  0.00    +0.000 OA
ENDROOT
BRANCH   1   4
ATOM      4  N   UNL     1       2.955   5.522  19.344  0.00  0.00    +0.000 NA
ATOM      5  C   UNL     1       2.536   5.368  20.767  0.00  0.00    +0.000 C 
ATOM      6  C   UNL     1       1.592   6.437  21.362  0.00  0.00    +0.000 C 
ATOM      7  C   UNL     1       1.434   7.630  20.511  0.00  0.00    +0.000 A 
ATOM      8  C   UNL     1       0.642   8.792  20.645  0.00  0.00    +0.000 A 
ATOM      9  C   UNL     1       0.898   9.577  19.532  0.00  0.00    +0.000 A 
ATOM     10  O   UNL     1       1.799   8.939  18.721  0.00  0.00    +0.000 OA
ATOM     11  C   UNL     1       2.109   7.772  19.330  0.00  0.00    +0.000 A 
ATOM     12  C   UNL     1       3.057   6.846  18.698  0.00  0.00    +0.000 C 
BRANCH   9  13
ATOM     13  C   UNL     1       0.440  10.890  19.085  0.00  0.00    +0.000 A 
ATOM     14  C   UNL     1       1.290  12.002  19.171  0.00  0.00    +0.000 A 
ATOM     15  C   UNL     1       0.877  13.258  18.716  0.00  0.00    +0.000 A 
ATOM     16  C   UNL     1      -0.395  13.419  18.176  0.00  0.00    +0.000 A 
ATOM     17  C   UNL     1      -1.258  12.328  18.094  0.00  0.00    +0.000 A 
ATOM     18  C   UNL     1      -0.844  11.074  18.547  0.00  0.00    +0.000 A 
ENDBRANCH   9  13
ENDBRANCH   1   4
BRANCH   1  23
ATOM     19  C   UNL     1       6.197   4.480  15.807  0.00  0.00    +0.000 A 
ATOM     20  C   UNL     1       7.261   4.727  16.689  0.00  0.00    +0.000 A 
ATOM     21  C   UNL     1       7.052   4.773  18.066  0.00  0.00    +0.000 A 
ATOM     22  C   UNL     1       5.772   4.577  18.573  0.00  0.00    +0.000 A 
ATOM     23  C   UNL     1       4.710   4.321  17.697  0.00  0.00    +0.000 A 
ATOM     24  C   UNL     1       4.910   4.269  16.311  0.00  0.00    +0.000 A 
BRANCH  19  26
ATOM     25  O   UNL     1       7.290   5.237  13.881  0.00  0.00    +0.000 OA
ATOM     26  C   UNL     1       6.518   4.409  14.360  0.00  0.00    +0.000 C 
ATOM     27  N   UNL     1       5.912   3.418  13.609  0.00  0.00    +0.000 N 
ATOM     28  H   UNL     1       5.201   2.825  14.018  0.00  0.00    +0.000 HD
BRANCH  27  29
ATOM     29  C   UNL     1       6.169   3.331  12.203  0.00  0.00    +0.000 C 
ATOM     30  C   UNL     1       5.069   2.902  11.269  0.00  0.00    +0.000 C 
ATOM     31  C   UNL     1       6.275   2.030  11.462  0.00  0.00    +0.000 C 
ENDBRANCH  27  29
ENDBRANCH  19  26
ENDBRANCH   1  23
TORSDOF 5
ENDMDL
MODEL 2
REMARK VINA RESULT:      -8.6      0.978      1.398
REMARK  Name = 
REMARK  5 active torsions:
REMARK  status: ('A' for Active; 'I' for Inactive)
REMARK    1  A    between atoms: C_2  and  C_7
REMARK    2  A    between atoms: N_3  and  C_4
REMARK    3  A    between atoms: C_11  and  S_12
REMARK    4  A    between atoms: S_12  and  N_15
REMARK    5  A    between atoms: C_20  and  C_21
REMARK                            x       y       z     vdW  Elec       q    Type
REMARK                         _______ _______ _______ _____ _____    ______ ____
ROOT
ATOM      1  S   UNL     1       3.388   3.489  17.870  0.00  0.00    +0.000 S 
ATOM      2  O   UNL     1       2.346   3.745  16.901  0.00  0.00    +0.000 OA
ATOM      3  O   UNL     1       3.544   2.176  18.466  0.00  0.00    +0.000 OA
ENDROOT
BRANCH   1   4
ATOM      4  N   UNL     1       3.275   4.632  19.090  0.00  0.00    +0.000 NA
ATOM      5  C   UNL     1       2.886   4.202  20.464  0.00  0.00    +0.000 C 
ATOM      6  C   UNL     1       1.940   5.122  21.268  0.00  0.00    +0.000 C 
ATOM      7  C   UNL     1       1.750   6.453  20.663  0.00  0.00    +0.000 A 
ATOM      8  C   UNL     1       0.945   7.555  21.030  0.00  0.00    +0.000 A 
ATOM      9  C   UNL     1       1.169   8.542  20.083  0.00  0.00    +0.000 A 
ATOM     10  O   UNL     1       2.063   8.085  19.151  0.00  0.00    +0.000 OA
ATOM     11  C   UNL     1       2.399   6.829  19.520  0.00  0.00    +0.000 A 
ATOM     12  C   UNL     1       3.347   6.057  18.707  0.00  0.00    +0.000 C 
BRANCH   9  13
ATOM     13  C   UNL     1       0.685   9.908  19.903  0.00  0.00    +0.000 A 
ATOM     14  C   UNL     1      -0.085  10.243  18.779  0.00  0.00    +0.000 A 
ATOM     15  C   UNL     1      -0.583  11.538  18.610  0.00  0.00    +0.000 A 
ATOM     16  C   UNL     1      -0.311  12.518  19.560  0.00  0.00    +0.000 A 
ATOM     17  C   UNL     1       0.463  12.207  20.676  0.00  0.00    +0.000 A 
ATOM     18  C   UNL     1       0.958  10.913  20.845  0.00  0.00    +0.000 A 
ENDBRANCH   9  13
ENDBRANCH   1   4
BRANCH   1  23
ATOM     19  C   UNL     1       6.305   4.157  15.135  0.00  0.00    +0.000 A 
ATOM     20  C   UNL     1       7.316   4.720  15.931  0.00  0.00    +0.000 A 
ATOM     21  C   UNL     1       7.140   4.877  17.304  0.00  0.00    +0.000 A 
ATOM     22  C   UNL     1       5.946   4.476  17.894  0.00  0.00    +0.000 A 
ATOM     23  C   UNL     1       4.939   3.906  17.105  0.00  0.00    +0.000 A 
ATOM     24  C   UNL     1       5.107   3.741  15.724  0.00  0.00    +0.000 A 
BRANCH  19  26
ATOM     25  O   UNL     1       7.297   4.827  13.124  0.00  0.00    +0.000 OA
ATOM     26  C   UNL     1       6.594   3.991  13.689  0.00  0.00    +0.000 C 
ATOM     27  N   UNL     1       6.036   2.906  13.037  0.00  0.00    +0.000 N 
ATOM     28  H   UNL     1       5.377   2.304  13.512  0.00  0.00    +0.000 HD
BRANCH  27  29
ATOM     29  C   UNL     1       6.263   2.723  11.635  0.00  0.00    +0.000 C 
ATOM     30  C   UNL     1       6.101   1.357  11.026  0.00  0.00    +0.000 C 
ATOM     31  C   UNL     1       7.455   2.000  11.079  0.00  0.00    +0.000 C 
ENDBRANCH  27  29
ENDBRANCH  19  26
ENDBRANCH   1  23
TORSDOF 5
ENDMDL
MODEL 3
REMARK VINA RESULT:      -8.6      2.346      9.064
REMARK  Name = 
REMARK  5 active torsions:
REMARK  status: ('A' for Active; 'I' for Inactive)
REMARK    1  A    between atoms: C_2  and  C_7
REMARK    2  A    between atoms: N_3  and  C_4
REMARK    3  A    between atoms: C_11  and  S_12
REMARK    4  A    between atoms: S_12  and  N_15
REMARK    5  A    between atoms: C_20  and  C_21
REMARK                            x       y       z     vdW  Elec       q    Type
REMARK                         _______ _______ _______ _____ _____    ______ ____
ROOT
ATOM      1  S   UNL     1       2.171   4.376  19.960  0.00  0.00    +0.000 S 
ATOM      2  O   UNL     1       2.187   4.188  21.395  0.00  0.00    +0.000 OA
ATOM      3  O   UNL     1       1.204   3.682  19.130  0.00  0.00    +0.000 OA
ENDROOT
BRANCH   1   4
ATOM      4  N   UNL     1       3.710   4.085  19.366  0.00  0.00    +0.000 NA
ATOM      5  C   UNL     1       4.889   4.672  20.065  0.00  0.00    +0.000 C 
ATOM      6  C   UNL     1       6.046   5.216  19.198  0.00  0.00    +0.000 C 
ATOM      7  C   UNL     1       5.949   4.842  17.775  0.00  0.00    +0.000 A 
ATOM      8  C   UNL     1       6.745   5.166  16.653  0.00  0.00    +0.000 A 
ATOM      9  C   UNL     1       6.170   4.531  15.563  0.00  0.00    +0.000 A 
ATOM     10  O   UNL     1       5.055   3.848  15.969  0.00  0.00    +0.000 OA
ATOM     11  C   UNL     1       4.942   4.048  17.302  0.00  0.00    +0.000 A 
ATOM     12  C   UNL     1       3.826   3.443  18.041  0.00  0.00    +0.000 C 
BRANCH   9  13
ATOM     13  C   UNL     1       6.511   4.432  14.147  0.00  0.00    +0.000 A 
ATOM     14  C   UNL     1       7.505   5.257  13.599  0.00  0.00    +0.000 A 
ATOM     15  C   UNL     1       7.865   5.150  12.253  0.00  0.00    +0.000 A 
ATOM     16  C   UNL     1       7.231   4.220  11.434  0.00  0.00    +0.000 A 
ATOM     17  C   UNL     1       6.232   3.401  11.958  0.00  0.00    +0.000 A 
ATOM     18  C   UNL     1       5.875   3.508  13.303  0.00  0.00    +0.000 A 
ENDBRANCH   9  13
ENDBRANCH   1   4
BRANCH   1  23
ATOM     19  C   UNL     1       1.498   8.344  20.445  0.00  0.00    +0.000 A 
ATOM     20  C   UNL     1       1.829   8.845  19.175  0.00  0.00    +0.000 A 
ATOM     21  C   UNL     1       2.231   7.988  18.152  0.00  0.00    +0.000 A 
ATOM     22  C   UNL     1       2.310   6.620  18.392  0.00  0.00    +0.000 A 
ATOM     23  C   UNL     1       1.971   6.117  19.654  0.00  0.00    +0.000 A 
ATOM     24  C   UNL     1       1.563   6.969  20.689  0.00  0.00    +0.000 A 
BRANCH  19  26
ATOM     25  O   UNL     1       1.614   9.360  22.550  0.00  0.00    +0.000 OA
ATOM     26  C   UNL     1       1.042   9.323  21.462  0.00  0.00    +0.000 C 
ATOM     27  N   UNL     1      -0.027  10.140  21.143  0.00  0.00    +0.000 N 
ATOM     28  H   UNL     1      -0.538  10.005  20.280  0.00  0.00    +0.000 HD
BRANCH  27  29
ATOM     29  C   UNL     1      -0.520  11.079  22.105  0.00  0.00    +0.000 C 
ATOM     30  C   UNL     1      -1.701  11.947  21.762  0.00  0.00    +0.000 C 
ATOM     31  C   UNL     1      -0.349  12.564  21.973  0.00  0.00    +0.000 C 
ENDBRANCH  27  29
ENDBRANCH  19  26
ENDBRANCH   1  23
TORSDOF 5
ENDMDL
MODEL 4
REMARK VINA RESULT:      -8.4      3.961     10.373
REMARK  Name = 
REMARK  5 active torsions:
REMARK  status: ('A' for Active; 'I' for Inactive)
REMARK    1  A    between atoms: C_2  and  C_7
REMARK    2  A    between atoms: N_3  and  C_4
REMARK    3  A    between atoms: C_11  and  S_12
REMARK    4  A    between atoms: S_12  and  N_15
REMARK    5  A    between atoms: C_20  and  C_21
REMARK                            x       y       z     vdW  Elec       q    Type
REMARK                         _______ _______ _______ _____ _____    ______ ____
ROOT
ATOM      1  S   UNL     1       0.881  11.846  19.972  0.00  0.00    +0.000 S 
ATOM      2  O   UNL     1       1.258  12.433  18.705  0.00  0.00    +0.000 OA
ATOM      3  O   UNL     1       1.627  12.143  21.181  0.00  0.00    +0.000 OA
ENDROOT
BRANCH   1   4
ATOM      4  N   UNL     1       0.787  10.184  19.783  0.00  0.00    +0.000 NA
ATOM      5  C   UNL     1       0.504   9.325  20.971  0.00  0.00    +0.000 C 
ATOM      6  C   UNL     1       1.260   7.983  21.087  0.00  0.00    +0.000 C 
ATOM      7  C   UNL     1       1.979   7.597  19.859  0.00  0.00    +0.000 A 
ATOM      8  C   UNL     1       2.819   6.501  19.558  0.00  0.00    +0.000 A 
ATOM      9  C   UNL     1       3.219   6.660  18.240  0.00  0.00    +0.000 A 
ATOM     10  O   UNL     1       2.670   7.808  17.732  0.00  0.00    +0.000 OA
ATOM     11  C   UNL     1       1.928   8.353  18.722  0.00  0.00    +0.000 A 
ATOM     12  C   UNL     1       1.209   9.613  18.489  0.00  0.00    +0.000 C 
BRANCH   9  13
ATOM     13  C   UNL     1       4.045   5.877  17.326  0.00  0.00    +0.000 A 
ATOM     14  C   UNL     1       4.858   6.520  16.380  0.00  0.00    +0.000 A 
ATOM     15  C   UNL     1       5.680   5.785  15.521  0.00  0.00    +0.000 A 
ATOM     16  C   UNL     1       5.694   4.395  15.592  0.00  0.00    +0.000 A 
ATOM     17  C   UNL     1       4.883   3.739  16.516  0.00  0.00    +0.000 A 
ATOM     18  C   UNL     1       4.065   4.474  17.374  0.00  0.00    +0.000 A 
ENDBRANCH   9  13
ENDBRANCH   1   4
BRANCH   1  23
ATOM     19  C   UNL     1      -3.139  12.248  19.644  0.00  0.00    +0.000 A 
ATOM     20  C   UNL     1      -3.465  12.849  20.870  0.00  0.00    +0.000 A 
ATOM     21  C   UNL     1      -2.473  13.165  21.797  0.00  0.00    +0.000 A 
ATOM     22  C   UNL     1      -1.144  12.877  21.505  0.00  0.00    +0.000 A 
ATOM     23  C   UNL     1      -0.814  12.287  20.279  0.00  0.00    +0.000 A 
ATOM     24  C   UNL     1      -1.804  11.968  19.339  0.00  0.00    +0.000 A 
BRANCH  19  26
ATOM     25  O   UNL     1      -4.209  10.978  17.994  0.00  0.00    +0.000 OA
ATOM     26  C   UNL     1      -4.254  11.984  18.701  0.00  0.00    +0.000 C 
ATOM     27  N   UNL     1      -5.288  12.900  18.646  0.00  0.00    +0.000 N 
ATOM     28  H   UNL     1      -5.235  13.767  19.165  0.00  0.00    +0.000 HD
BRANCH  27  29
ATOM     29  C   UNL     1      -6.370  12.701  17.730  0.00  0.00    +0.000 C 
ATOM     30  C   UNL     1      -6.814  13.834  16.843  0.00  0.00    +0.000 C 
ATOM     31  C   UNL     1      -7.729  13.311  17.911  0.00  0.00    +0.000 C 
ENDBRANCH  27  29
ENDBRANCH  19  26
ENDBRANCH   1  23
TORSDOF 5
ENDMDL
MODEL 5
REMARK VINA RESULT:      -8.4      4.078      7.617
REMARK  Name = 
REMARK  5 active torsions:
REMARK  status: ('A' for Active; 'I' for Inactive)
REMARK    1  A    between atoms: C_2  and  C_7
REMARK    2  A    between atoms: N_3  and  C_4
REMARK    3  A    between atoms: C_11  and  S_12
REMARK    4  A    between atoms: S_12  and  N_15
REMARK    5  A    between atoms: C_20  and  C_21
REMARK                            x       y       z     vdW  Elec       q    Type
REMARK                         _______ _______ _______ _____ _____    ______ ____
ROOT
ATOM      1  S   UNL     1       5.053   4.748  16.744  0.00  0.00    +0.000 S 
ATOM      2  O   UNL     1       5.064   3.331  17.033  0.00  0.00    +0.000 OA
ATOM      3  O   UNL     1       4.664   5.237  15.435  0.00  0.00    +0.000 OA
ENDROOT
BRANCH   1   4
ATOM      4  N   UNL     1       6.549   5.387  17.144  0.00  0.00    +0.000 NA
ATOM      5  C   UNL     1       7.295   4.832  18.311  0.00  0.00    +0.000 C 
ATOM      6  C   UNL     1       8.059   5.824  19.218  0.00  0.00    +0.000 C 
ATOM      7  C   UNL     1       8.167   7.181  18.654  0.00  0.00    +0.000 A 
ATOM      8  C   UNL     1       8.723   8.377  19.163  0.00  0.00    +0.000 A 
ATOM      9  C   UNL     1       8.534   9.347  18.190  0.00  0.00    +0.000 A 
ATOM     10  O   UNL     1       7.878   8.798  17.120  0.00  0.00    +0.000 OA
ATOM     11  C   UNL     1       7.670   7.496  17.420  0.00  0.00    +0.000 A 
ATOM     12  C   UNL     1       6.972   6.627  16.463  0.00  0.00    +0.000 C 
BRANCH   9  13
ATOM     13  C   UNL     1       8.895  10.757  18.075  0.00  0.00    +0.000 A 
ATOM     14  C   UNL     1      10.198  11.180  18.378  0.00  0.00    +0.000 A 
ATOM     15  C   UNL     1      10.568  12.521  18.240  0.00  0.00    +0.000 A 
ATOM     16  C   UNL     1       9.636  13.458  17.804  0.00  0.00    +0.000 A 
ATOM     17  C   UNL     1       8.334  13.058  17.511  0.00  0.00    +0.000 A 
ATOM     18  C   UNL     1       7.967  11.719  17.647  0.00  0.00    +0.000 A 
ENDBRANCH   9  13
ENDBRANCH   1   4
BRANCH   1  23
ATOM     19  C   UNL     1       2.540   7.344  18.584  0.00  0.00    +0.000 A 
ATOM     20  C   UNL     1       2.190   6.628  19.740  0.00  0.00    +0.000 A 
ATOM     21  C   UNL     1       2.730   5.368  19.991  0.00  0.00    +0.000 A 
ATOM     22  C   UNL     1       3.623   4.810  19.083  0.00  0.00    +0.000 A 
ATOM     23  C   UNL     1       3.982   5.524  17.933  0.00  0.00    +0.000 A 
ATOM     24  C   UNL     1       3.447   6.794  17.673  0.00  0.00    +0.000 A 
BRANCH  19  26
ATOM     25  O   UNL     1       2.177   9.320  17.384  0.00  0.00    +0.000 OA
ATOM     26  C   UNL     1       1.949   8.695  18.418  0.00  0.00    +0.000 C 
ATOM     27  N   UNL     1       1.182   9.198  19.452  0.00  0.00    +0.000 N 
ATOM     28  H   UNL     1       1.108   8.698  20.329  0.00  0.00    +0.000 HD
BRANCH  27  29
ATOM     29  C   UNL     1       0.617  10.510  19.348  0.00  0.00    +0.000 C 
ATOM     30  C   UNL     1       0.253  11.266  20.597  0.00  0.00    +0.000 C 
ATOM     31  C   UNL     1      -0.821  10.816  19.651  0.00  0.00    +0.000 C 
ENDBRANCH  27  29
ENDBRANCH  19  26
ENDBRANCH   1  23
TORSDOF 5
ENDMDL
MODEL 6
REMARK VINA RESULT:      -8.1      4.099     10.454
REMARK  Name = 
REMARK  5 active torsions:
REMARK  status: ('A' for Active; 'I' for Inactive)
REMARK    1  A    between atoms: C_2  and  C_7
REMARK    2  A    between atoms: N_3  and  C_4
REMARK    3  A    between atoms: C_11  and  S_12
REMARK    4  A    between atoms: S_12  and  N_15
REMARK    5  A    between atoms: C_20  and  C_21
REMARK                            x       y       z     vdW  Elec       q    Type
REMARK                         _______ _______ _______ _____ _____    ______ ____
ROOT
ATOM      1  S   UNL     1       0.988  12.302  19.954  0.00  0.00    +0.000 S 
ATOM      2  O   UNL     1       1.342  12.828  18.653  0.00  0.00    +0.000 OA
ATOM      3  O   UNL     1       1.811  12.577  21.117  0.00  0.00    +0.000 OA
ENDROOT
BRANCH   1   4
ATOM      4  N   UNL     1       0.770  10.646  19.819  0.00  0.00    +0.000 NA
ATOM      5  C   UNL     1       0.415   9.851  21.030  0.00  0.00    +0.000 C 
ATOM      6  C   UNL     1       1.067   8.460  21.198  0.00  0.00    +0.000 C 
ATOM      7  C   UNL     1       1.764   7.981  19.991  0.00  0.00    +0.000 A 
ATOM      8  C   UNL     1       2.521   6.816  19.734  0.00  0.00    +0.000 A 
ATOM      9  C   UNL     1       2.941   6.900  18.415  0.00  0.00    +0.000 A 
ATOM     10  O   UNL     1       2.484   8.068  17.864  0.00  0.00    +0.000 OA
ATOM     11  C   UNL     1       1.778   8.701  18.828  0.00  0.00    +0.000 A 
ATOM     12  C   UNL     1       1.158  10.002  18.547  0.00  0.00    +0.000 C 
BRANCH   9  13
ATOM     13  C   UNL     1       3.713   6.027  17.535  0.00  0.00    +0.000 A 
ATOM     14  C   UNL     1       4.670   6.568  16.664  0.00  0.00    +0.000 A 
ATOM     15  C   UNL     1       5.439   5.742  15.840  0.00  0.00    +0.000 A 
ATOM     16  C   UNL     1       5.257   4.363  15.872  0.00  0.00    +0.000 A 
ATOM     17  C   UNL     1       4.302   3.808  16.722  0.00  0.00    +0.000 A 
ATOM     18  C   UNL     1       3.535   4.634  17.545  0.00  0.00    +0.000 A 
ENDBRANCH   9  13
ENDBRANCH   1   4
BRANCH   1  23
ATOM     19  C   UNL     1      -3.045  12.689  20.067  0.00  0.00    +0.000 A 
ATOM     20  C   UNL     1      -3.208  13.672  21.057  0.00  0.00    +0.000 A 
ATOM     21  C   UNL     1      -2.103  14.248  21.680  0.00  0.00    +0.000 A 
ATOM     22  C   UNL     1      -0.822  13.842  21.320  0.00  0.00    +0.000 A 
ATOM     23  C   UNL     1      -0.656  12.869  20.327  0.00  0.00    +0.000 A 
ATOM     24  C   UNL     1      -1.761  12.285  19.692  0.00  0.00    +0.000 A 
BRANCH  19  26
ATOM     25  O   UNL     1      -4.246  11.860  18.237  0.00  0.00    +0.000 OA
ATOM     26  C   UNL     1      -4.276  12.159  19.429  0.00  0.00    +0.000 C 
ATOM     27  N   UNL     1      -5.413  12.047  20.208  0.00  0.00    +0.000 N 
ATOM     28  H   UNL     1      -5.426  12.405  21.154  0.00  0.00    +0.000 HD
BRANCH  27  29
ATOM     29  C   UNL     1      -6.632  11.570  19.626  0.00  0.00    +0.000 C 
ATOM     30  C   UNL     1      -7.668  10.915  20.499  0.00  0.00    +0.000 C 
ATOM     31  C   UNL     1      -6.950  10.114  19.453  0.00  0.00    +0.000 C 
ENDBRANCH  27  29
ENDBRANCH  19  26
ENDBRANCH   1  23
TORSDOF 5
ENDMDL
MODEL 7
REMARK VINA RESULT:      -8.1      4.370     10.643
REMARK  Name = 
REMARK  5 active torsions:
REMARK  status: ('A' for Active; 'I' for Inactive)
REMARK    1  A    between atoms: C_2  and  C_7
REMARK    2  A    between atoms: N_3  and  C_4
REMARK    3  A    between atoms: C_11  and  S_12
REMARK    4  A    between atoms: S_12  and  N_15
REMARK    5  A    between atoms: C_20  and  C_21
REMARK                            x       y       z     vdW  Elec       q    Type
REMARK                         _______ _______ _______ _____ _____    ______ ____
ROOT
ATOM      1  S   UNL     1       0.474  12.289  20.215  0.00  0.00    +0.000 S 
ATOM      2  O   UNL     1       0.226  12.887  18.921  0.00  0.00    +0.000 OA
ATOM      3  O   UNL     1       1.663  12.625  20.974  0.00  0.00    +0.000 OA
ENDROOT
BRANCH   1   4
ATOM      4  N   UNL     1       0.376  10.624  20.062  0.00  0.00    +0.000 NA
ATOM      5  C   UNL     1       0.081   9.792  21.265  0.00  0.00    +0.000 C 
ATOM      6  C   UNL     1       0.832   8.450  21.417  0.00  0.00    +0.000 C 
ATOM      7  C   UNL     1       1.561   8.036  20.204  0.00  0.00    +0.000 A 
ATOM      8  C   UNL     1       2.400   6.932  19.934  0.00  0.00    +0.000 A 
ATOM      9  C   UNL     1       2.811   7.061  18.616  0.00  0.00    +0.000 A 
ATOM     10  O   UNL     1       2.270   8.199  18.078  0.00  0.00    +0.000 OA
ATOM     11  C   UNL     1       1.522   8.768  19.050  0.00  0.00    +0.000 A 
ATOM     12  C   UNL     1       0.808  10.024  18.783  0.00  0.00    +0.000 C 
BRANCH   9  13
ATOM     13  C   UNL     1       3.644   6.256  17.726  0.00  0.00    +0.000 A 
ATOM     14  C   UNL     1       3.513   4.860  17.706  0.00  0.00    +0.000 A 
ATOM     15  C   UNL     1       4.279   4.079  16.836  0.00  0.00    +0.000 A 
ATOM     16  C   UNL     1       5.192   4.685  15.979  0.00  0.00    +0.000 A 
ATOM     17  C   UNL     1       5.345   6.070  15.994  0.00  0.00    +0.000 A 
ATOM     18  C   UNL     1       4.578   6.849  16.862  0.00  0.00    +0.000 A 
ENDBRANCH   9  13
ENDBRANCH   1   4
BRANCH   1  23
ATOM     19  C   UNL     1      -3.307  12.633  21.637  0.00  0.00    +0.000 A 
ATOM     20  C   UNL     1      -3.077  13.088  22.946  0.00  0.00    +0.000 A 
ATOM     21  C   UNL     1      -1.782  13.322  23.404  0.00  0.00    +0.000 A 
ATOM     22  C   UNL     1      -0.703  13.099  22.556  0.00  0.00    +0.000 A 
ATOM     23  C   UNL     1      -0.928  12.655  21.247  0.00  0.00    +0.000 A 
ATOM     24  C   UNL     1      -2.227  12.420  20.775  0.00  0.00    +0.000 A 
BRANCH  19  26
ATOM     25  O   UNL     1      -5.596  12.435  22.084  0.00  0.00    +0.000 OA
ATOM     26  C   UNL     1      -4.720  12.450  21.221  0.00  0.00    +0.000 C 
ATOM     27  N   UNL     1      -4.983  12.281  19.874  0.00  0.00    +0.000 N 
ATOM     28  H   UNL     1      -4.225  12.191  19.209  0.00  0.00    +0.000 HD
BRANCH  27  29
ATOM     29  C   UNL     1      -6.328  12.069  19.431  0.00  0.00    +0.000 C 
ATOM     30  C   UNL     1      -6.581  11.363  18.127  0.00  0.00    +0.000 C 
ATOM     31  C   UNL     1      -6.944  12.810  18.281  0.00  0.00    +0.000 C 
ENDBRANCH  27  29
ENDBRANCH  19  26
ENDBRANCH   1  23
TORSDOF 5
ENDMDL
MODEL 8
REMARK VINA RESULT:      -8.1      4.104     10.908
REMARK  Name = 
REMARK  5 active torsions:
REMARK  status: ('A' for Active; 'I' for Inactive)
REMARK    1  A    between atoms: C_2  and  C_7
REMARK    2  A    between atoms: N_3  and  C_4
REMARK    3  A    between atoms: C_11  and  S_12
REMARK    4  A    between atoms: S_12  and  N_15
REMARK    5  A    between atoms: C_20  and  C_21
REMARK                            x       y       z     vdW  Elec       q    Type
REMARK                         _______ _______ _______ _____ _____    ______ ____
ROOT
ATOM      1  S   UNL     1       0.945  11.189  19.903  0.00  0.00    +0.000 S 
ATOM      2  O   UNL     1       1.633  11.879  18.834  0.00  0.00    +0.000 OA
ATOM      3  O   UNL     1       1.299  11.425  21.290  0.00  0.00    +0.000 OA
ENDROOT
BRANCH   1   4
ATOM      4  N   UNL     1       1.001   9.542  19.599  0.00  0.00    +0.000 NA
ATOM      5  C   UNL     1       0.662   8.582  20.690  0.00  0.00    +0.000 C 
ATOM      6  C   UNL     1       1.504   7.291  20.803  0.00  0.00    +0.000 C 
ATOM      7  C   UNL     1       2.377   7.047  19.640  0.00  0.00    +0.000 A 
ATOM      8  C   UNL     1       3.327   6.038  19.364  0.00  0.00    +0.000 A 
ATOM      9  C   UNL     1       3.851   6.320  18.112  0.00  0.00    +0.000 A 
ATOM     10  O   UNL     1       3.271   7.460  17.621  0.00  0.00    +0.000 OA
ATOM     11  C   UNL     1       2.388   7.879  18.555  0.00  0.00    +0.000 A 
ATOM     12  C   UNL     1       1.602   9.098  18.325  0.00  0.00    +0.000 C 
BRANCH   9  13
ATOM     13  C   UNL     1       4.828   5.665  17.247  0.00  0.00    +0.000 A 
ATOM     14  C   UNL     1       6.069   6.271  16.997  0.00  0.00    +0.000 A 
ATOM     15  C   UNL     1       7.027   5.640  16.198  0.00  0.00    +0.000 A 
ATOM     16  C   UNL     1       6.754   4.399  15.633  0.00  0.00    +0.000 A 
ATOM     17  C   UNL     1       5.522   3.789  15.859  0.00  0.00    +0.000 A 
ATOM     18  C   UNL     1       4.567   4.418  16.658  0.00  0.00    +0.000 A 
ENDBRANCH   9  13
ENDBRANCH   1   4
BRANCH   1  23
ATOM     19  C   UNL     1      -2.805  12.585  20.551  0.00  0.00    +0.000 A 
ATOM     20  C   UNL     1      -3.454  12.216  19.362  0.00  0.00    +0.000 A 
ATOM     21  C   UNL     1      -2.776  11.517  18.365  0.00  0.00    +0.000 A 
ATOM     22  C   UNL     1      -1.438  11.186  18.548  0.00  0.00    +0.000 A 
ATOM     23  C   UNL     1      -0.790  11.544  19.736  0.00  0.00    +0.000 A 
ATOM     24  C   UNL     1      -1.464  12.243  20.747  0.00  0.00    +0.000 A 
BRANCH  19  26
ATOM     25  O   UNL     1      -3.739  14.512  21.497  0.00  0.00    +0.000 OA
ATOM     26  C   UNL     1      -3.615  13.291  21.575  0.00  0.00    +0.000 C 
ATOM     27  N   UNL     1      -4.179  12.538  22.589  0.00  0.00    +0.000 N 
ATOM     28  H   UNL     1      -3.964  11.553  22.678  0.00  0.00    +0.000 HD
BRANCH  27  29
ATOM     29  C   UNL     1      -4.942  13.181  23.615  0.00  0.00    +0.000 C 
ATOM     30  C   UNL     1      -6.113  12.465  24.233  0.00  0.00    +0.000 C 
ATOM     31  C   UNL     1      -6.336  13.697  23.407  0.00  0.00    +0.000 C 
ENDBRANCH  27  29
ENDBRANCH  19  26
ENDBRANCH   1  23
TORSDOF 5
ENDMDL
MODEL 9
REMARK VINA RESULT:      -8.1      4.570     10.967
REMARK  Name = 
REMARK  5 active torsions:
REMARK  status: ('A' for Active; 'I' for Inactive)
REMARK    1  A    between atoms: C_2  and  C_7
REMARK    2  A    between atoms: N_3  and  C_4
REMARK    3  A    between atoms: C_11  and  S_12
REMARK    4  A    between atoms: S_12  and  N_15
REMARK    5  A    between atoms: C_20  and  C_21
REMARK                            x       y       z     vdW  Elec       q    Type
REMARK                         _______ _______ _______ _____ _____    ______ ____
ROOT
ATOM      1  S   UNL     1       0.759  12.384  20.304  0.00  0.00    +0.000 S 
ATOM      2  O   UNL     1       0.676  13.030  19.013  0.00  0.00    +0.000 OA
ATOM      3  O   UNL     1       1.891  12.618  21.181  0.00  0.00    +0.000 OA
ENDROOT
BRANCH   1   4
ATOM      4  N   UNL     1       0.566  10.734  20.090  0.00  0.00    +0.000 NA
ATOM      5  C   UNL     1       0.183   9.883  21.254  0.00  0.00    +0.000 C 
ATOM      6  C   UNL     1       0.845   8.493  21.382  0.00  0.00    +0.000 C 
ATOM      7  C   UNL     1       1.587   8.075  20.178  0.00  0.00    +0.000 A 
ATOM      8  C   UNL     1       2.366   6.931  19.895  0.00  0.00    +0.000 A 
ATOM      9  C   UNL     1       2.827   7.078  18.596  0.00  0.00    +0.000 A 
ATOM     10  O   UNL     1       2.374   8.264  18.082  0.00  0.00    +0.000 OA
ATOM     11  C   UNL     1       1.630   8.845  19.049  0.00  0.00    +0.000 A 
ATOM     12  C   UNL     1       1.003  10.151  18.805  0.00  0.00    +0.000 C 
BRANCH   9  13
ATOM     13  C   UNL     1       3.638   6.253  17.704  0.00  0.00    +0.000 A 
ATOM     14  C   UNL     1       3.477   4.859  17.688  0.00  0.00    +0.000 A 
ATOM     15  C   UNL     1       4.222   4.060  16.817  0.00  0.00    +0.000 A 
ATOM     16  C   UNL     1       5.144   4.645  15.953  0.00  0.00    +0.000 A 
ATOM     17  C   UNL     1       5.327   6.026  15.964  0.00  0.00    +0.000 A 
ATOM     18  C   UNL     1       4.581   6.823  16.834  0.00  0.00    +0.000 A 
ENDBRANCH   9  13
ENDBRANCH   1   4
BRANCH   1  23
ATOM     19  C   UNL     1      -3.107  12.979  21.367  0.00  0.00    +0.000 A 
ATOM     20  C   UNL     1      -2.976  13.355  22.714  0.00  0.00    +0.000 A 
ATOM     21  C   UNL     1      -1.720  13.461  23.308  0.00  0.00    +0.000 A 
ATOM     22  C   UNL     1      -0.581  13.186  22.558  0.00  0.00    +0.000 A 
ATOM     23  C   UNL     1      -0.707  12.820  21.212  0.00  0.00    +0.000 A 
ATOM     24  C   UNL     1      -1.966  12.714  20.605  0.00  0.00    +0.000 A 
BRANCH  19  26
ATOM     25  O   UNL     1      -4.711  13.513  19.749  0.00  0.00    +0.000 OA
ATOM     26  C   UNL     1      -4.481  12.931  20.807  0.00  0.00    +0.000 C 
ATOM     27  N   UNL     1      -5.448  12.248  21.521  0.00  0.00    +0.000 N 
ATOM     28  H   UNL     1      -5.244  11.876  22.439  0.00  0.00    +0.000 HD
BRANCH  27  29
ATOM     29  C   UNL     1      -6.794  12.202  21.034  0.00  0.00    +0.000 C 
ATOM     30  C   UNL     1      -7.905  12.797  21.856  0.00  0.00    +0.000 C 
ATOM     31  C   UNL     1      -7.854  11.316  21.620  0.00  0.00    +0.000 C 
ENDBRANCH  27  29
ENDBRANCH  19  26
ENDBRANCH   1  23
TORSDOF 5
ENDMDL
