MODEL 1
REMARK VINA RESULT:      -8.9      0.000      0.000
REMARK  Name = 
REMARK  3 active torsions:
REMARK  status: ('A' for Active; 'I' for Inactive)
REMARK    1  A    between atoms: C_2  and  C_13
REMARK    2  A    between atoms: C_17  and  C_18
REMARK    3  A    between atoms: C_18  and  N_19
REMARK                            x       y       z     vdW  Elec       q    Type
REMARK                         _______ _______ _______ _____ _____    ______ ____
ROOT
ATOM      1  C   UNL     1       9.348  10.311  18.720  0.00  0.00    +0.000 A 
ATOM      2  C   UNL     1       9.396  10.528  20.102  0.00  0.00    +0.000 A 
ATOM      3  C   UNL     1      10.199  11.543  20.622  0.00  0.00    +0.000 A 
ATOM      4  C   UNL     1      10.953  12.343  19.762  0.00  0.00    +0.000 A 
ATOM      5  C   UNL     1      10.930  12.122  18.374  0.00  0.00    +0.000 A 
ATOM      6  C   UNL     1      10.111  11.105  17.858  0.00  0.00    +0.000 A 
ENDROOT
BRANCH   1   8
ATOM      7  O   UNL     1       7.516   9.655  17.440  0.00  0.00    +0.000 OA
ATOM      8  C   UNL     1       8.415   9.288  18.188  0.00  0.00    +0.000 C 
ATOM      9  N   UNL     1       8.605   8.008  18.666  0.00  0.00    +0.000 N 
ATOM     10  C   UNL     1       7.773   6.978  18.289  0.00  0.00    +0.000 A 
ATOM     11  C   UNL     1       7.234   6.717  17.009  0.00  0.00    +0.000 A 
ATOM     12  C   UNL     1       6.429   5.610  17.171  0.00  0.00    +0.000 A 
ATOM     13  N   UNL     1       6.469   5.339  18.502  0.00  0.00    +0.000 N 
ATOM     14  N   UNL     1       7.393   6.054  19.175  0.00  0.00    +0.000 NA
ATOM     15  C   UNL     1       5.560   4.480  19.216  0.00  0.00    +0.000 C 
ATOM     16  C   UNL     1       4.596   3.673  18.350  0.00  0.00    +0.000 C 
ATOM     17  C   UNL     1       4.660   3.823  16.828  0.00  0.00    +0.000 C 
ATOM     18  C   UNL     1       5.623   4.833  16.210  0.00  0.00    +0.000 C 
ATOM     19  H   UNL     1       9.051   7.874  19.562  0.00  0.00    +0.000 HD
ENDBRANCH   1   8
BRANCH   5  20
ATOM     20  C   UNL     1      11.772  12.976  17.453  0.00  0.00    +0.000 C 
BRANCH  20  21
ATOM     21  N   UNL     1      10.948  14.005  16.822  0.00  0.00    +0.000 N 
ATOM     22  C   UNL     1      11.187  15.294  17.342  0.00  0.00    +0.000 A 
ATOM     23  C   UNL     1      10.459  16.354  16.834  0.00  0.00    +0.000 A 
ATOM     24  C   UNL     1      10.748  17.606  17.336  0.00  0.00    +0.000 A 
ATOM     25  N   UNL     1      11.677  17.833  18.274  0.00  0.00    +0.000 NA
ATOM     26  C   UNL     1      12.333  16.746  18.698  0.00  0.00    +0.000 A 
ATOM     27  N   UNL     1      12.137  15.488  18.272  0.00  0.00    +0.000 NA
ATOM     28  H   UNL     1       9.958  13.786  16.880  0.00  0.00    +0.000 HD
ENDBRANCH  20  21
ENDBRANCH   5  20
TORSDOF 3
ENDMDL
MODEL 2
REMARK VINA RESULT:      -8.5      7.647     10.263
REMARK  Name = 
REMARK  3 active torsions:
REMARK  status: ('A' for Active; 'I' for Inactive)
REMARK    1  A    between atoms: C_2  and  C_13
REMARK    2  A    between atoms: C_17  and  C_18
REMARK    3  A    between atoms: C_18  and  N_19
REMARK                            x       y       z     vdW  Elec       q    Type
REMARK                         _______ _______ _______ _____ _____    ______ ____
ROOT
ATOM      1  C   UNL     1       0.923   8.913  20.723  0.00  0.00    +0.000 A 
ATOM      2  C   UNL     1       0.677   8.877  22.100  0.00  0.00    +0.000 A 
ATOM      3  C   UNL     1      -0.099   9.871  22.697  0.00  0.00    +0.000 A 
ATOM      4  C   UNL     1      -0.630  10.900  21.918  0.00  0.00    +0.000 A 
ATOM      5  C   UNL     1      -0.372  10.959  20.537  0.00  0.00    +0.000 A 
ATOM      6  C   UNL     1       0.400   9.949  19.942  0.00  0.00    +0.000 A 
ENDROOT
BRANCH   1   8
ATOM      7  O   UNL     1       1.878   6.789  20.771  0.00  0.00    +0.000 OA
ATOM      8  C   UNL     1       1.671   7.794  20.100  0.00  0.00    +0.000 C 
ATOM      9  N   UNL     1       2.145   8.033  18.827  0.00  0.00    +0.000 N 
ATOM     10  C   UNL     1       2.898   7.094  18.160  0.00  0.00    +0.000 A 
ATOM     11  C   UNL     1       2.714   5.693  18.126  0.00  0.00    +0.000 A 
ATOM     12  C   UNL     1       3.757   5.206  17.368  0.00  0.00    +0.000 A 
ATOM     13  N   UNL     1       4.517   6.295  17.078  0.00  0.00    +0.000 N 
ATOM     14  N   UNL     1       3.940   7.467  17.413  0.00  0.00    +0.000 NA
ATOM     15  C   UNL     1       5.869   6.272  16.580  0.00  0.00    +0.000 C 
ATOM     16  C   UNL     1       6.401   4.899  16.176  0.00  0.00    +0.000 C 
ATOM     17  C   UNL     1       5.491   3.677  16.320  0.00  0.00    +0.000 C 
ATOM     18  C   UNL     1       4.105   3.839  16.939  0.00  0.00    +0.000 C 
ATOM     19  H   UNL     1       2.310   8.984  18.531  0.00  0.00    +0.000 HD
ENDBRANCH   1   8
BRANCH   5  20
ATOM     20  C   UNL     1      -0.929  12.094  19.706  0.00  0.00    +0.000 C 
BRANCH  20  21
ATOM     21  N   UNL     1      -0.966  11.718  18.295  0.00  0.00    +0.000 N 
ATOM     22  C   UNL     1      -2.278  11.527  17.812  0.00  0.00    +0.000 A 
ATOM     23  C   UNL     1      -2.445  11.157  16.491  0.00  0.00    +0.000 A 
ATOM     24  C   UNL     1      -3.743  11.019  16.043  0.00  0.00    +0.000 A 
ATOM     25  N   UNL     1      -4.820  11.221  16.813  0.00  0.00    +0.000 NA
ATOM     26  C   UNL     1      -4.555  11.583  18.075  0.00  0.00    +0.000 A 
ATOM     27  N   UNL     1      -3.336  11.753  18.609  0.00  0.00    +0.000 NA
ATOM     28  H   UNL     1      -0.405  10.893  18.107  0.00  0.00    +0.000 HD
ENDBRANCH  20  21
ENDBRANCH   5  20
TORSDOF 3
ENDMDL
MODEL 3
REMARK VINA RESULT:      -8.4      7.563     10.228
REMARK  Name = 
REMARK  3 active torsions:
REMARK  status: ('A' for Active; 'I' for Inactive)
REMARK    1  A    between atoms: C_2  and  C_13
REMARK    2  A    between atoms: C_17  and  C_18
REMARK    3  A    between atoms: C_18  and  N_19
REMARK                            x       y       z     vdW  Elec       q    Type
REMARK                         _______ _______ _______ _____ _____    ______ ____
ROOT
ATOM      1  C   UNL     1       1.092   8.782  20.598  0.00  0.00    +0.000 A 
ATOM      2  C   UNL     1       0.836   8.726  21.973  0.00  0.00    +0.000 A 
ATOM      3  C   UNL     1       0.050   9.708  22.577  0.00  0.00    +0.000 A 
ATOM      4  C   UNL     1      -0.482  10.744  21.807  0.00  0.00    +0.000 A 
ATOM      5  C   UNL     1      -0.215  10.822  20.429  0.00  0.00    +0.000 A 
ATOM      6  C   UNL     1       0.568   9.824  19.827  0.00  0.00    +0.000 A 
ENDROOT
BRANCH   1   8
ATOM      7  O   UNL     1       2.047   6.658  20.621  0.00  0.00    +0.000 OA
ATOM      8  C   UNL     1       1.852   7.676  19.967  0.00  0.00    +0.000 C 
ATOM      9  N   UNL     1       2.348   7.940  18.707  0.00  0.00    +0.000 N 
ATOM     10  C   UNL     1       3.114   7.015  18.035  0.00  0.00    +0.000 A 
ATOM     11  C   UNL     1       2.931   5.615  17.970  0.00  0.00    +0.000 A 
ATOM     12  C   UNL     1       3.988   5.144  17.221  0.00  0.00    +0.000 A 
ATOM     13  N   UNL     1       4.752   6.238  16.967  0.00  0.00    +0.000 N 
ATOM     14  N   UNL     1       4.169   7.403  17.314  0.00  0.00    +0.000 NA
ATOM     15  C   UNL     1       6.112   6.225  16.492  0.00  0.00    +0.000 C 
ATOM     16  C   UNL     1       6.653   4.861  16.071  0.00  0.00    +0.000 C 
ATOM     17  C   UNL     1       5.741   3.636  16.174  0.00  0.00    +0.000 C 
ATOM     18  C   UNL     1       4.344   3.785  16.771  0.00  0.00    +0.000 C 
ATOM     19  H   UNL     1       2.518   8.897  18.433  0.00  0.00    +0.000 HD
ENDBRANCH   1   8
BRANCH   5  20
ATOM     20  C   UNL     1      -0.774  11.964  19.609  0.00  0.00    +0.000 C 
BRANCH  20  21
ATOM     21  N   UNL     1      -2.234  11.946  19.645  0.00  0.00    +0.000 N 
ATOM     22  C   UNL     1      -2.810  11.638  18.395  0.00  0.00    +0.000 A 
ATOM     23  C   UNL     1      -4.189  11.601  18.296  0.00  0.00    +0.000 A 
ATOM     24  C   UNL     1      -4.716  11.256  17.069  0.00  0.00    +0.000 A 
ATOM     25  N   UNL     1      -3.970  10.965  15.995  0.00  0.00    +0.000 NA
ATOM     26  C   UNL     1      -2.647  11.021  16.192  0.00  0.00    +0.000 A 
ATOM     27  N   UNL     1      -2.031  11.336  17.342  0.00  0.00    +0.000 NA
ATOM     28  H   UNL     1      -2.616  12.819  19.995  0.00  0.00    +0.000 HD
ENDBRANCH  20  21
ENDBRANCH   5  20
TORSDOF 3
ENDMDL
MODEL 4
REMARK VINA RESULT:      -8.3      3.305      4.814
REMARK  Name = 
REMARK  3 active torsions:
REMARK  status: ('A' for Active; 'I' for Inactive)
REMARK    1  A    between atoms: C_2  and  C_13
REMARK    2  A    between atoms: C_17  and  C_18
REMARK    3  A    between atoms: C_18  and  N_19
REMARK                            x       y       z     vdW  Elec       q    Type
REMARK                         _______ _______ _______ _____ _____    ______ ____
ROOT
ATOM      1  C   UNL     1       9.428  10.496  19.058  0.00  0.00    +0.000 A 
ATOM      2  C   UNL     1      10.681  10.756  18.492  0.00  0.00    +0.000 A 
ATOM      3  C   UNL     1      11.568  11.624  19.127  0.00  0.00    +0.000 A 
ATOM      4  C   UNL     1      11.204  12.232  20.330  0.00  0.00    +0.000 A 
ATOM      5  C   UNL     1       9.941  11.996  20.898  0.00  0.00    +0.000 A 
ATOM      6  C   UNL     1       9.058  11.112  20.258  0.00  0.00    +0.000 A 
ENDROOT
BRANCH   1   8
ATOM      7  O   UNL     1       7.686   9.900  17.632  0.00  0.00    +0.000 OA
ATOM      8  C   UNL     1       8.543   9.498  18.410  0.00  0.00    +0.000 C 
ATOM      9  N   UNL     1       8.721   8.193  18.821  0.00  0.00    +0.000 N 
ATOM     10  C   UNL     1       7.927   7.179  18.334  0.00  0.00    +0.000 A 
ATOM     11  C   UNL     1       7.469   6.990  17.010  0.00  0.00    +0.000 A 
ATOM     12  C   UNL     1       6.671   5.868  17.057  0.00  0.00    +0.000 A 
ATOM     13  N   UNL     1       6.635   5.518  18.369  0.00  0.00    +0.000 N 
ATOM     14  N   UNL     1       7.507   6.200  19.139  0.00  0.00    +0.000 NA
ATOM     15  C   UNL     1       5.696   4.608  18.974  0.00  0.00    +0.000 C 
ATOM     16  C   UNL     1       4.796   3.846  18.005  0.00  0.00    +0.000 C 
ATOM     17  C   UNL     1       4.950   4.087  16.501  0.00  0.00    +0.000 C 
ATOM     18  C   UNL     1       5.935   5.142  16.004  0.00  0.00    +0.000 C 
ATOM     19  H   UNL     1       9.113   8.010  19.733  0.00  0.00    +0.000 HD
ENDBRANCH   1   8
BRANCH   5  20
ATOM     20  C   UNL     1       9.545  12.682  22.188  0.00  0.00    +0.000 C 
BRANCH  20  21
ATOM     21  N   UNL     1       8.883  11.735  23.082  0.00  0.00    +0.000 N 
ATOM     22  C   UNL     1       7.710  12.259  23.665  0.00  0.00    +0.000 A 
ATOM     23  C   UNL     1       6.998  11.462  24.541  0.00  0.00    +0.000 A 
ATOM     24  C   UNL     1       5.834  11.992  25.059  0.00  0.00    +0.000 A 
ATOM     25  N   UNL     1       5.378  13.215  24.761  0.00  0.00    +0.000 NA
ATOM     26  C   UNL     1       6.134  13.908  23.899  0.00  0.00    +0.000 A 
ATOM     27  N   UNL     1       7.274  13.485  23.332  0.00  0.00    +0.000 NA
ATOM     28  H   UNL     1       9.508  11.396  23.807  0.00  0.00    +0.000 HD
ENDBRANCH  20  21
ENDBRANCH   5  20
TORSDOF 3
ENDMDL
MODEL 5
REMARK VINA RESULT:      -8.3      9.046     10.551
REMARK  Name = 
REMARK  3 active torsions:
REMARK  status: ('A' for Active; 'I' for Inactive)
REMARK    1  A    between atoms: C_2  and  C_13
REMARK    2  A    between atoms: C_17  and  C_18
REMARK    3  A    between atoms: C_18  and  N_19
REMARK                            x       y       z     vdW  Elec       q    Type
REMARK                         _______ _______ _______ _____ _____    ______ ____
ROOT
ATOM      1  C   UNL     1       0.652   9.221  21.020  0.00  0.00    +0.000 A 
ATOM      2  C   UNL     1       0.433   9.088  22.396  0.00  0.00    +0.000 A 
ATOM      3  C   UNL     1      -0.329  10.037  23.077  0.00  0.00    +0.000 A 
ATOM      4  C   UNL     1      -0.874  11.119  22.383  0.00  0.00    +0.000 A 
ATOM      5  C   UNL     1      -0.644  11.275  21.005  0.00  0.00    +0.000 A 
ATOM      6  C   UNL     1       0.115  10.309  20.325  0.00  0.00    +0.000 A 
ENDROOT
BRANCH   1   8
ATOM      7  O   UNL     1       1.845   8.399  19.197  0.00  0.00    +0.000 OA
ATOM      8  C   UNL     1       1.387   8.149  20.306  0.00  0.00    +0.000 C 
ATOM      9  N   UNL     1       1.409   6.923  20.938  0.00  0.00    +0.000 N 
ATOM     10  C   UNL     1       2.014   5.833  20.355  0.00  0.00    +0.000 A 
ATOM     11  C   UNL     1       3.229   5.792  19.633  0.00  0.00    +0.000 A 
ATOM     12  C   UNL     1       3.363   4.486  19.217  0.00  0.00    +0.000 A 
ATOM     13  N   UNL     1       2.224   3.869  19.627  0.00  0.00    +0.000 N 
ATOM     14  N   UNL     1       1.464   4.620  20.449  0.00  0.00    +0.000 NA
ATOM     15  C   UNL     1       1.746   2.589  19.170  0.00  0.00    +0.000 C 
ATOM     16  C   UNL     1       2.712   1.798  18.292  0.00  0.00    +0.000 C 
ATOM     17  C   UNL     1       4.084   2.396  17.969  0.00  0.00    +0.000 C 
ATOM     18  C   UNL     1       4.427   3.801  18.458  0.00  0.00    +0.000 C 
ATOM     19  H   UNL     1       0.677   6.690  21.593  0.00  0.00    +0.000 HD
ENDBRANCH   1   8
BRANCH   5  20
ATOM     20  C   UNL     1      -1.217  12.465  20.267  0.00  0.00    +0.000 C 
BRANCH  20  21
ATOM     21  N   UNL     1      -2.666  12.331  20.136  0.00  0.00    +0.000 N 
ATOM     22  C   UNL     1      -3.065  11.932  18.843  0.00  0.00    +0.000 A 
ATOM     23  C   UNL     1      -4.416  11.781  18.589  0.00  0.00    +0.000 A 
ATOM     24  C   UNL     1      -4.767  11.350  17.326  0.00  0.00    +0.000 A 
ATOM     25  N   UNL     1      -3.879  11.082  16.359  0.00  0.00    +0.000 NA
ATOM     26  C   UNL     1      -2.597  11.252  16.703  0.00  0.00    +0.000 A 
ATOM     27  N   UNL     1      -2.147  11.658  17.901  0.00  0.00    +0.000 NA
ATOM     28  H   UNL     1      -3.152  13.182  20.401  0.00  0.00    +0.000 HD
ENDBRANCH  20  21
ENDBRANCH   5  20
TORSDOF 3
ENDMDL
MODEL 6
REMARK VINA RESULT:      -8.3      7.101     10.421
REMARK  Name = 
REMARK  3 active torsions:
REMARK  status: ('A' for Active; 'I' for Inactive)
REMARK    1  A    between atoms: C_2  and  C_13
REMARK    2  A    between atoms: C_17  and  C_18
REMARK    3  A    between atoms: C_18  and  N_19
REMARK                            x       y       z     vdW  Elec       q    Type
REMARK                         _______ _______ _______ _____ _____    ______ ____
ROOT
ATOM      1  C   UNL     1       2.315   6.481  19.654  0.00  0.00    +0.000 A 
ATOM      2  C   UNL     1       1.477   5.810  20.551  0.00  0.00    +0.000 A 
ATOM      3  C   UNL     1       1.803   4.525  20.984  0.00  0.00    +0.000 A 
ATOM      4  C   UNL     1       2.968   3.910  20.521  0.00  0.00    +0.000 A 
ATOM      5  C   UNL     1       3.807   4.566  19.603  0.00  0.00    +0.000 A 
ATOM      6  C   UNL     1       3.477   5.863  19.181  0.00  0.00    +0.000 A 
ENDROOT
BRANCH   1   8
ATOM      7  O   UNL     1       2.470   8.333  18.249  0.00  0.00    +0.000 OA
ATOM      8  C   UNL     1       1.992   7.881  19.284  0.00  0.00    +0.000 C 
ATOM      9  N   UNL     1       1.238   8.579  20.204  0.00  0.00    +0.000 N 
ATOM     10  C   UNL     1       0.916   9.902  20.003  0.00  0.00    +0.000 A 
ATOM     11  C   UNL     1       0.529  10.531  18.798  0.00  0.00    +0.000 A 
ATOM     12  C   UNL     1       0.370  11.862  19.116  0.00  0.00    +0.000 A 
ATOM     13  N   UNL     1       0.738  11.957  20.421  0.00  0.00    +0.000 N 
ATOM     14  N   UNL     1       0.924  10.764  21.022  0.00  0.00    +0.000 NA
ATOM     15  C   UNL     1       1.044  13.176  21.125  0.00  0.00    +0.000 C 
ATOM     16  C   UNL     1       0.740  14.469  20.371  0.00  0.00    +0.000 C 
ATOM     17  C   UNL     1       0.146  14.386  18.963  0.00  0.00    +0.000 C 
ATOM     18  C   UNL     1      -0.053  13.022  18.308  0.00  0.00    +0.000 C 
ATOM     19  H   UNL     1       1.259   8.300  21.174  0.00  0.00    +0.000 HD
ENDBRANCH   1   8
BRANCH   5  20
ATOM     20  C   UNL     1       5.053   3.880  19.086  0.00  0.00    +0.000 C 
BRANCH  20  21
ATOM     21  N   UNL     1       4.868   3.476  17.694  0.00  0.00    +0.000 N 
ATOM     22  C   UNL     1       5.697   4.186  16.801  0.00  0.00    +0.000 A 
ATOM     23  C   UNL     1       5.607   3.902  15.451  0.00  0.00    +0.000 A 
ATOM     24  C   UNL     1       6.462   4.587  14.613  0.00  0.00    +0.000 A 
ATOM     25  N   UNL     1       7.351   5.494  15.038  0.00  0.00    +0.000 NA
ATOM     26  C   UNL     1       7.368   5.695  16.362  0.00  0.00    +0.000 A 
ATOM     27  N   UNL     1       6.588   5.080  17.264  0.00  0.00    +0.000 NA
ATOM     28  H   UNL     1       3.898   3.554  17.402  0.00  0.00    +0.000 HD
ENDBRANCH  20  21
ENDBRANCH   5  20
TORSDOF 3
ENDMDL
MODEL 7
REMARK VINA RESULT:      -8.3      9.041     10.535
REMARK  Name = 
REMARK  3 active torsions:
REMARK  status: ('A' for Active; 'I' for Inactive)
REMARK    1  A    between atoms: C_2  and  C_13
REMARK    2  A    between atoms: C_17  and  C_18
REMARK    3  A    between atoms: C_18  and  N_19
REMARK                            x       y       z     vdW  Elec       q    Type
REMARK                         _______ _______ _______ _____ _____    ______ ____
ROOT
ATOM      1  C   UNL     1       0.733   9.143  21.017  0.00  0.00    +0.000 A 
ATOM      2  C   UNL     1       0.522   9.102  22.400  0.00  0.00    +0.000 A 
ATOM      3  C   UNL     1      -0.229  10.098  23.023  0.00  0.00    +0.000 A 
ATOM      4  C   UNL     1      -0.772  11.136  22.263  0.00  0.00    +0.000 A 
ATOM      5  C   UNL     1      -0.550  11.201  20.877  0.00  0.00    +0.000 A 
ATOM      6  C   UNL     1       0.198  10.188  20.256  0.00  0.00    +0.000 A 
ENDROOT
BRANCH   1   8
ATOM      7  O   UNL     1       2.002   8.229  19.292  0.00  0.00    +0.000 OA
ATOM      8  C   UNL     1       1.455   8.022  20.369  0.00  0.00    +0.000 C 
ATOM      9  N   UNL     1       1.368   6.807  21.017  0.00  0.00    +0.000 N 
ATOM     10  C   UNL     1       1.951   5.677  20.491  0.00  0.00    +0.000 A 
ATOM     11  C   UNL     1       3.209   5.560  19.857  0.00  0.00    +0.000 A 
ATOM     12  C   UNL     1       3.300   4.242  19.467  0.00  0.00    +0.000 A 
ATOM     13  N   UNL     1       2.103   3.693  19.804  0.00  0.00    +0.000 N 
ATOM     14  N   UNL     1       1.330   4.498  20.562  0.00  0.00    +0.000 NA
ATOM     15  C   UNL     1       1.589   2.434  19.331  0.00  0.00    +0.000 C 
ATOM     16  C   UNL     1       2.569   1.577  18.533  0.00  0.00    +0.000 C 
ATOM     17  C   UNL     1       3.990   2.096  18.299  0.00  0.00    +0.000 C 
ATOM     18  C   UNL     1       4.374   3.489  18.793  0.00  0.00    +0.000 C 
ATOM     19  H   UNL     1       0.580   6.624  21.622  0.00  0.00    +0.000 HD
ENDBRANCH   1   8
BRANCH   5  20
ATOM     20  C   UNL     1      -1.120  12.345  20.067  0.00  0.00    +0.000 C 
BRANCH  20  21
ATOM     21  N   UNL     1      -1.133  12.003  18.646  0.00  0.00    +0.000 N 
ATOM     22  C   UNL     1      -2.427  11.722  18.161  0.00  0.00    +0.000 A 
ATOM     23  C   UNL     1      -2.570  11.373  16.831  0.00  0.00    +0.000 A 
ATOM     24  C   UNL     1      -3.854  11.145  16.382  0.00  0.00    +0.000 A 
ATOM     25  N   UNL     1      -4.941  11.241  17.159  0.00  0.00    +0.000 NA
ATOM     26  C   UNL     1      -4.701  11.591  18.429  0.00  0.00    +0.000 A 
ATOM     27  N   UNL     1      -3.497  11.843  18.965  0.00  0.00    +0.000 NA
ATOM     28  H   UNL     1      -0.509  11.229  18.437  0.00  0.00    +0.000 HD
ENDBRANCH  20  21
ENDBRANCH   5  20
TORSDOF 3
ENDMDL
MODEL 8
REMARK VINA RESULT:      -8.3      5.761      9.726
REMARK  Name = 
REMARK  3 active torsions:
REMARK  status: ('A' for Active; 'I' for Inactive)
REMARK    1  A    between atoms: C_2  and  C_13
REMARK    2  A    between atoms: C_17  and  C_18
REMARK    3  A    between atoms: C_18  and  N_19
REMARK                            x       y       z     vdW  Elec       q    Type
REMARK                         _______ _______ _______ _____ _____    ______ ____
ROOT
ATOM      1  C   UNL     1       2.398   4.446  19.004  0.00  0.00    +0.000 A 
ATOM      2  C   UNL     1       1.803   3.184  18.898  0.00  0.00    +0.000 A 
ATOM      3  C   UNL     1       2.457   2.159  18.215  0.00  0.00    +0.000 A 
ATOM      4  C   UNL     1       3.706   2.394  17.639  0.00  0.00    +0.000 A 
ATOM      5  C   UNL     1       4.305   3.663  17.720  0.00  0.00    +0.000 A 
ATOM      6  C   UNL     1       3.645   4.686  18.419  0.00  0.00    +0.000 A 
ENDROOT
BRANCH   1   8
ATOM      7  O   UNL     1       0.803   5.149  20.549  0.00  0.00    +0.000 OA
ATOM      8  C   UNL     1       1.724   5.489  19.815  0.00  0.00    +0.000 C 
ATOM      9  N   UNL     1       2.153   6.781  19.594  0.00  0.00    +0.000 N 
ATOM     10  C   UNL     1       1.572   7.845  20.246  0.00  0.00    +0.000 A 
ATOM     11  C   UNL     1       1.158   7.920  21.595  0.00  0.00    +0.000 A 
ATOM     12  C   UNL     1       0.594   9.169  21.735  0.00  0.00    +0.000 A 
ATOM     13  N   UNL     1       0.629   9.711  20.490  0.00  0.00    +0.000 N 
ATOM     14  N   UNL     1       1.352   8.995  19.605  0.00  0.00    +0.000 NA
ATOM     15  C   UNL     1      -0.114  10.864  20.050  0.00  0.00    +0.000 C 
ATOM     16  C   UNL     1      -0.849  11.634  21.145  0.00  0.00    +0.000 C 
ATOM     17  C   UNL     1      -0.748  11.146  22.592  0.00  0.00    +0.000 C 
ATOM     18  C   UNL     1       0.012   9.859  22.902  0.00  0.00    +0.000 C 
ATOM     19  H   UNL     1       2.575   7.018  18.708  0.00  0.00    +0.000 HD
ENDBRANCH   1   8
BRANCH   5  20
ATOM     20  C   UNL     1       5.647   3.916  17.068  0.00  0.00    +0.000 C 
BRANCH  20  21
ATOM     21  N   UNL     1       6.643   4.266  18.078  0.00  0.00    +0.000 N 
ATOM     22  C   UNL     1       7.070   5.607  17.985  0.00  0.00    +0.000 A 
ATOM     23  C   UNL     1       8.022   6.058  18.881  0.00  0.00    +0.000 A 
ATOM     24  C   UNL     1       8.386   7.385  18.787  0.00  0.00    +0.000 A 
ATOM     25  N   UNL     1       7.873   8.234  17.886  0.00  0.00    +0.000 NA
ATOM     26  C   UNL     1       6.954   7.705  17.067  0.00  0.00    +0.000 A 
ATOM     27  N   UNL     1       6.524   6.435  17.079  0.00  0.00    +0.000 NA
ATOM     28  H   UNL     1       7.445   3.644  18.052  0.00  0.00    +0.000 HD
ENDBRANCH  20  21
ENDBRANCH   5  20
TORSDOF 3
ENDMDL
MODEL 9
REMARK VINA RESULT:      -8.2      8.340     11.561
REMARK  Name = 
REMARK  3 active torsions:
REMARK  status: ('A' for Active; 'I' for Inactive)
REMARK    1  A    between atoms: C_2  and  C_13
REMARK    2  A    between atoms: C_17  and  C_18
REMARK    3  A    between atoms: C_18  and  N_19
REMARK                            x       y       z     vdW  Elec       q    Type
REMARK                         _______ _______ _______ _____ _____    ______ ____
ROOT
ATOM      1  C   UNL     1       1.076   9.016  19.820  0.00  0.00    +0.000 A 
ATOM      2  C   UNL     1       1.320   9.684  18.615  0.00  0.00    +0.000 A 
ATOM      3  C   UNL     1       2.191   9.134  17.674  0.00  0.00    +0.000 A 
ATOM      4  C   UNL     1       2.817   7.914  17.937  0.00  0.00    +0.000 A 
ATOM      5  C   UNL     1       2.597   7.243  19.153  0.00  0.00    +0.000 A 
ATOM      6  C   UNL     1       1.710   7.799  20.089  0.00  0.00    +0.000 A 
ENDROOT
BRANCH   1   8
ATOM      7  O   UNL     1      -0.364   8.850  21.642  0.00  0.00    +0.000 OA
ATOM      8  C   UNL     1       0.076   9.577  20.759  0.00  0.00    +0.000 C 
ATOM      9  N   UNL     1      -0.334  10.867  20.489  0.00  0.00    +0.000 N 
ATOM     10  C   UNL     1      -1.296  11.483  21.255  0.00  0.00    +0.000 A 
ATOM     11  C   UNL     1      -1.457  11.433  22.659  0.00  0.00    +0.000 A 
ATOM     12  C   UNL     1      -2.591  12.168  22.923  0.00  0.00    +0.000 A 
ATOM     13  N   UNL     1      -3.068  12.529  21.702  0.00  0.00    +0.000 N 
ATOM     14  N   UNL     1      -2.222  12.259  20.687  0.00  0.00    +0.000 NA
ATOM     15  C   UNL     1      -4.387  13.036  21.428  0.00  0.00    +0.000 C 
ATOM     16  C   UNL     1      -5.239  13.361  22.652  0.00  0.00    +0.000 C 
ATOM     17  C   UNL     1      -4.650  13.138  24.047  0.00  0.00    +0.000 C 
ATOM     18  C   UNL     1      -3.262  12.519  24.189  0.00  0.00    +0.000 C 
ATOM     19  H   UNL     1      -0.266  11.220  19.545  0.00  0.00    +0.000 HD
ENDBRANCH   1   8
BRANCH   5  20
ATOM     20  C   UNL     1       3.301   5.935  19.440  0.00  0.00    +0.000 C 
BRANCH  20  21
ATOM     21  N   UNL     1       3.592   5.232  18.192  0.00  0.00    +0.000 N 
ATOM     22  C   UNL     1       4.974   5.112  17.939  0.00  0.00    +0.000 A 
ATOM     23  C   UNL     1       5.379   4.474  16.781  0.00  0.00    +0.000 A 
ATOM     24  C   UNL     1       6.738   4.339  16.587  0.00  0.00    +0.000 A 
ATOM     25  N   UNL     1       7.660   4.789  17.449  0.00  0.00    +0.000 NA
ATOM     26  C   UNL     1       7.170   5.386  18.543  0.00  0.00    +0.000 A 
ATOM     27  N   UNL     1       5.872   5.562  18.833  0.00  0.00    +0.000 NA
ATOM     28  H   UNL     1       3.131   5.664  17.397  0.00  0.00    +0.000 HD
ENDBRANCH  20  21
ENDBRANCH   5  20
TORSDOF 3
ENDMDL
