MODEL 1
REMARK VINA RESULT:      -7.9      0.000      0.000
REMARK  Name = 
REMARK  3 active torsions:
REMARK  status: ('A' for Active; 'I' for Inactive)
REMARK    1  A    between atoms: C_2  and  C_3
REMARK    2  A    between atoms: C_5  and  C_6
REMARK    3  A    between atoms: C_16  and  C_17
REMARK                            x       y       z     vdW  Elec       q    Type
REMARK                         _______ _______ _______ _____ _____    ______ ____
ROOT
ATOM      1  O   UNL     1       6.631   5.110  16.501  0.00  0.00    +0.000 OA
ATOM      2  C   UNL     1       6.336   5.831  17.453  0.00  0.00    +0.000 C 
ATOM      3  N   UNL     1       5.125   5.695  18.138  0.00  0.00    +0.000 N 
ATOM      4  C   UNL     1       4.749   6.420  19.361  0.00  0.00    +0.000 C 
ATOM      5  C   UNL     1       3.256   6.132  19.618  0.00  0.00    +0.000 C 
ATOM      6  C   UNL     1       3.013   4.905  18.742  0.00  0.00    +0.000 C 
ATOM      7  C   UNL     1       1.624   4.582  18.235  0.00  0.00    +0.000 C 
ATOM      8  O   UNL     1       1.686   3.353  17.497  0.00  0.00    +0.000 OA
ATOM      9  C   UNL     1       2.582   3.408  16.379  0.00  0.00    +0.000 C 
ATOM     10  C   UNL     1       4.013   3.766  16.800  0.00  0.00    +0.000 C 
ATOM     11  C   UNL     1       3.947   5.093  17.545  0.00  0.00    +0.000 C 
ENDROOT
BRANCH   2  12
ATOM     12  C   UNL     1       7.269   6.888  17.903  0.00  0.00    +0.000 A 
ATOM     13  C   UNL     1       7.304   8.252  17.499  0.00  0.00    +0.000 A 
ATOM     14  C   UNL     1       8.342   8.837  18.206  0.00  0.00    +0.000 A 
ATOM     15  N   UNL     1       8.819   7.835  19.000  0.00  0.00    +0.000 N 
ATOM     16  N   UNL     1       8.182   6.678  18.866  0.00  0.00    +0.000 NA
ATOM     17  H   UNL     1       9.569   7.887  19.679  0.00  0.00    +0.000 HD
BRANCH  14  18
ATOM     18  C   UNL     1       8.868  10.189  18.273  0.00  0.00    +0.000 A 
ATOM     19  C   UNL     1       8.250  11.220  17.562  0.00  0.00    +0.000 A 
ATOM     20  C   UNL     1       8.711  12.532  17.683  0.00  0.00    +0.000 A 
ATOM     21  C   UNL     1       9.794  12.822  18.509  0.00  0.00    +0.000 A 
ATOM     22  C   UNL     1      10.426  11.802  19.216  0.00  0.00    +0.000 A 
ATOM     23  C   UNL     1       9.967  10.490  19.094  0.00  0.00    +0.000 A 
ENDBRANCH  14  18
ENDBRANCH   2  12
BRANCH   5  24
ATOM     24  C   UNL     1       2.318   7.303  19.384  0.00  0.00    +0.000 A 
ATOM     25  C   UNL     1       2.190   7.963  18.151  0.00  0.00    +0.000 A 
ATOM     26  C   UNL     1       1.326   9.053  18.013  0.00  0.00    +0.000 A 
ATOM     27  C   UNL     1       0.565   9.485  19.095  0.00  0.00    +0.000 A 
ATOM     28  C   UNL     1       0.671   8.836  20.321  0.00  0.00    +0.000 A 
ATOM     29  C   UNL     1       1.544   7.757  20.464  0.00  0.00    +0.000 A 
ENDBRANCH   5  24
TORSDOF 3
ENDMDL
MODEL 2
REMARK VINA RESULT:      -7.9      3.852      7.272
REMARK  Name = 
REMARK  3 active torsions:
REMARK  status: ('A' for Active; 'I' for Inactive)
REMARK    1  A    between atoms: C_2  and  C_3
REMARK    2  A    between atoms: C_5  and  C_6
REMARK    3  A    between atoms: C_16  and  C_17
REMARK                            x       y       z     vdW  Elec       q    Type
REMARK                         _______ _______ _______ _____ _____    ______ ____
ROOT
ATOM      1  O   UNL     1       2.803   9.242  16.896  0.00  0.00    +0.000 OA
ATOM      2  C   UNL     1       2.322   8.760  17.921  0.00  0.00    +0.000 C 
ATOM      3  N   UNL     1       2.865   7.627  18.533  0.00  0.00    +0.000 N 
ATOM      4  C   UNL     1       2.438   7.066  19.824  0.00  0.00    +0.000 C 
ATOM      5  C   UNL     1       3.143   5.704  19.982  0.00  0.00    +0.000 C 
ATOM      6  C   UNL     1       4.261   5.802  18.946  0.00  0.00    +0.000 C 
ATOM      7  C   UNL     1       4.869   4.552  18.347  0.00  0.00    +0.000 C 
ATOM      8  O   UNL     1       5.927   4.945  17.460  0.00  0.00    +0.000 OA
ATOM      9  C   UNL     1       5.486   5.798  16.395  0.00  0.00    +0.000 C 
ATOM     10  C   UNL     1       4.822   7.079  16.915  0.00  0.00    +0.000 C 
ATOM     11  C   UNL     1       3.672   6.657  17.822  0.00  0.00    +0.000 C 
ENDROOT
BRANCH   2  12
ATOM     12  C   UNL     1       1.126   9.374  18.540  0.00  0.00    +0.000 A 
ATOM     13  C   UNL     1       1.017   9.973  19.826  0.00  0.00    +0.000 A 
ATOM     14  C   UNL     1      -0.293  10.410  19.937  0.00  0.00    +0.000 A 
ATOM     15  N   UNL     1      -0.858  10.101  18.734  0.00  0.00    +0.000 N 
ATOM     16  N   UNL     1      -0.034   9.516  17.875  0.00  0.00    +0.000 NA
ATOM     17  H   UNL     1      -1.806  10.289  18.429  0.00  0.00    +0.000 HD
BRANCH  14  18
ATOM     18  C   UNL     1      -1.025  11.120  20.972  0.00  0.00    +0.000 A 
ATOM     19  C   UNL     1      -1.948  12.110  20.628  0.00  0.00    +0.000 A 
ATOM     20  C   UNL     1      -2.703  12.742  21.618  0.00  0.00    +0.000 A 
ATOM     21  C   UNL     1      -2.538  12.393  22.956  0.00  0.00    +0.000 A 
ATOM     22  C   UNL     1      -1.615  11.413  23.314  0.00  0.00    +0.000 A 
ATOM     23  C   UNL     1      -0.858  10.784  22.326  0.00  0.00    +0.000 A 
ENDBRANCH  14  18
ENDBRANCH   2  12
BRANCH   5  24
ATOM     24  C   UNL     1       2.242   4.487  19.863  0.00  0.00    +0.000 A 
ATOM     25  C   UNL     1       1.583   4.120  18.679  0.00  0.00    +0.000 A 
ATOM     26  C   UNL     1       0.746   3.001  18.647  0.00  0.00    +0.000 A 
ATOM     27  C   UNL     1       0.571   2.224  19.789  0.00  0.00    +0.000 A 
ATOM     28  C   UNL     1       1.225   2.568  20.968  0.00  0.00    +0.000 A 
ATOM     29  C   UNL     1       2.050   3.692  21.005  0.00  0.00    +0.000 A 
ENDBRANCH   5  24
TORSDOF 3
ENDMDL
MODEL 3
REMARK VINA RESULT:      -7.8      3.928      6.342
REMARK  Name = 
REMARK  3 active torsions:
REMARK  status: ('A' for Active; 'I' for Inactive)
REMARK    1  A    between atoms: C_2  and  C_3
REMARK    2  A    between atoms: C_5  and  C_6
REMARK    3  A    between atoms: C_16  and  C_17
REMARK                            x       y       z     vdW  Elec       q    Type
REMARK                         _______ _______ _______ _____ _____    ______ ____
ROOT
ATOM      1  O   UNL     1       1.215   7.249  21.142  0.00  0.00    +0.000 OA
ATOM      2  C   UNL     1       1.622   7.337  19.985  0.00  0.00    +0.000 C 
ATOM      3  N   UNL     1       2.075   6.224  19.271  0.00  0.00    +0.000 N 
ATOM      4  C   UNL     1       2.451   6.215  17.849  0.00  0.00    +0.000 C 
ATOM      5  C   UNL     1       3.104   4.849  17.561  0.00  0.00    +0.000 C 
ATOM      6  C   UNL     1       2.649   4.019  18.761  0.00  0.00    +0.000 C 
ATOM      7  C   UNL     1       3.448   2.815  19.212  0.00  0.00    +0.000 C 
ATOM      8  O   UNL     1       2.757   2.202  20.312  0.00  0.00    +0.000 OA
ATOM      9  C   UNL     1       2.579   3.082  21.430  0.00  0.00    +0.000 C 
ATOM     10  C   UNL     1       1.806   4.352  21.051  0.00  0.00    +0.000 C 
ATOM     11  C   UNL     1       2.567   5.022  19.914  0.00  0.00    +0.000 C 
ENDROOT
BRANCH   2  12
ATOM     12  C   UNL     1       1.653   8.652  19.306  0.00  0.00    +0.000 A 
ATOM     13  C   UNL     1       1.169   9.898  19.793  0.00  0.00    +0.000 A 
ATOM     14  C   UNL     1       1.439  10.829  18.802  0.00  0.00    +0.000 A 
ATOM     15  N   UNL     1       2.090  10.119  17.836  0.00  0.00    +0.000 N 
ATOM     16  N   UNL     1       2.261   8.834  18.121  0.00  0.00    +0.000 NA
ATOM     17  H   UNL     1       2.468  10.465  16.962  0.00  0.00    +0.000 HD
BRANCH  14  18
ATOM     18  C   UNL     1       1.229  12.263  18.695  0.00  0.00    +0.000 A 
ATOM     19  C   UNL     1      -0.059  12.794  18.788  0.00  0.00    +0.000 A 
ATOM     20  C   UNL     1      -0.254  14.176  18.758  0.00  0.00    +0.000 A 
ATOM     21  C   UNL     1       0.835  15.035  18.630  0.00  0.00    +0.000 A 
ATOM     22  C   UNL     1       2.124  14.519  18.527  0.00  0.00    +0.000 A 
ATOM     23  C   UNL     1       2.319  13.138  18.555  0.00  0.00    +0.000 A 
ENDBRANCH  14  18
ENDBRANCH   2  12
BRANCH   5  24
ATOM     24  C   UNL     1       4.602   4.882  17.315  0.00  0.00    +0.000 A 
ATOM     25  C   UNL     1       5.513   5.551  18.148  0.00  0.00    +0.000 A 
ATOM     26  C   UNL     1       6.878   5.564  17.847  0.00  0.00    +0.000 A 
ATOM     27  C   UNL     1       7.353   4.894  16.723  0.00  0.00    +0.000 A 
ATOM     28  C   UNL     1       6.466   4.216  15.893  0.00  0.00    +0.000 A 
ATOM     29  C   UNL     1       5.102   4.214  16.184  0.00  0.00    +0.000 A 
ENDBRANCH   5  24
TORSDOF 3
ENDMDL
MODEL 4
REMARK VINA RESULT:      -7.7      4.604      7.481
REMARK  Name = 
REMARK  3 active torsions:
REMARK  status: ('A' for Active; 'I' for Inactive)
REMARK    1  A    between atoms: C_2  and  C_3
REMARK    2  A    between atoms: C_5  and  C_6
REMARK    3  A    between atoms: C_16  and  C_17
REMARK                            x       y       z     vdW  Elec       q    Type
REMARK                         _______ _______ _______ _____ _____    ______ ____
ROOT
ATOM      1  O   UNL     1       1.063   8.559  22.315  0.00  0.00    +0.000 OA
ATOM      2  C   UNL     1       1.096   8.658  21.090  0.00  0.00    +0.000 C 
ATOM      3  N   UNL     1       0.565   9.765  20.421  0.00  0.00    +0.000 N 
ATOM      4  C   UNL     1       0.678  10.026  18.977  0.00  0.00    +0.000 C 
ATOM      5  C   UNL     1      -0.246  11.217  18.659  0.00  0.00    +0.000 C 
ATOM      6  C   UNL     1      -0.485  11.815  20.044  0.00  0.00    +0.000 C 
ATOM      7  C   UNL     1      -1.723  12.638  20.326  0.00  0.00    +0.000 C 
ATOM      8  O   UNL     1      -1.650  13.116  21.678  0.00  0.00    +0.000 OA
ATOM      9  C   UNL     1      -1.567  12.063  22.647  0.00  0.00    +0.000 C 
ATOM     10  C   UNL     1      -0.354  11.154  22.414  0.00  0.00    +0.000 C 
ATOM     11  C   UNL     1      -0.459  10.614  20.992  0.00  0.00    +0.000 C 
ENDROOT
BRANCH   2  12
ATOM     12  C   UNL     1       1.700   7.581  20.273  0.00  0.00    +0.000 A 
ATOM     13  C   UNL     1       2.525   7.717  19.121  0.00  0.00    +0.000 A 
ATOM     14  C   UNL     1       2.848   6.428  18.726  0.00  0.00    +0.000 A 
ATOM     15  N   UNL     1       2.258   5.628  19.660  0.00  0.00    +0.000 N 
ATOM     16  N   UNL     1       1.599   6.283  20.607  0.00  0.00    +0.000 NA
ATOM     17  H   UNL     1       2.291   4.617  19.719  0.00  0.00    +0.000 HD
BRANCH  14  18
ATOM     18  C   UNL     1       3.672   5.888  17.658  0.00  0.00    +0.000 A 
ATOM     19  C   UNL     1       4.461   6.739  16.880  0.00  0.00    +0.000 A 
ATOM     20  C   UNL     1       5.307   6.213  15.902  0.00  0.00    +0.000 A 
ATOM     21  C   UNL     1       5.368   4.838  15.692  0.00  0.00    +0.000 A 
ATOM     22  C   UNL     1       4.580   3.979  16.455  0.00  0.00    +0.000 A 
ATOM     23  C   UNL     1       3.732   4.503  17.430  0.00  0.00    +0.000 A 
ENDBRANCH  14  18
ENDBRANCH   2  12
BRANCH   5  24
ATOM     24  C   UNL     1      -1.496  10.877  17.866  0.00  0.00    +0.000 A 
ATOM     25  C   UNL     1      -1.947  11.622  16.765  0.00  0.00    +0.000 A 
ATOM     26  C   UNL     1      -3.122  11.268  16.097  0.00  0.00    +0.000 A 
ATOM     27  C   UNL     1      -3.852  10.155  16.506  0.00  0.00    +0.000 A 
ATOM     28  C   UNL     1      -3.414   9.399  17.589  0.00  0.00    +0.000 A 
ATOM     29  C   UNL     1      -2.249   9.760  18.265  0.00  0.00    +0.000 A 
ENDBRANCH   5  24
TORSDOF 3
ENDMDL
MODEL 5
REMARK VINA RESULT:      -7.7      5.351      8.232
REMARK  Name = 
REMARK  3 active torsions:
REMARK  status: ('A' for Active; 'I' for Inactive)
REMARK    1  A    between atoms: C_2  and  C_3
REMARK    2  A    between atoms: C_5  and  C_6
REMARK    3  A    between atoms: C_16  and  C_17
REMARK                            x       y       z     vdW  Elec       q    Type
REMARK                         _______ _______ _______ _____ _____    ______ ____
ROOT
ATOM      1  O   UNL     1       1.171   8.652  22.222  0.00  0.00    +0.000 OA
ATOM      2  C   UNL     1       1.156   8.756  20.997  0.00  0.00    +0.000 C 
ATOM      3  N   UNL     1       0.556   9.841  20.351  0.00  0.00    +0.000 N 
ATOM      4  C   UNL     1       0.607  10.110  18.906  0.00  0.00    +0.000 C 
ATOM      5  C   UNL     1      -0.377  11.263  18.625  0.00  0.00    +0.000 C 
ATOM      6  C   UNL     1      -0.592  11.846  20.020  0.00  0.00    +0.000 C 
ATOM      7  C   UNL     1      -1.854  12.615  20.348  0.00  0.00    +0.000 C 
ATOM      8  O   UNL     1      -1.754  13.092  21.699  0.00  0.00    +0.000 OA
ATOM      9  C   UNL     1      -1.593  12.040  22.660  0.00  0.00    +0.000 C 
ATOM     10  C   UNL     1      -0.351  11.184  22.381  0.00  0.00    +0.000 C 
ATOM     11  C   UNL     1      -0.483  10.645  20.962  0.00  0.00    +0.000 C 
ENDROOT
BRANCH   2  12
ATOM     12  C   UNL     1       1.777   7.708  20.155  0.00  0.00    +0.000 A 
ATOM     13  C   UNL     1       1.812   6.305  20.390  0.00  0.00    +0.000 A 
ATOM     14  C   UNL     1       2.491   5.752  19.316  0.00  0.00    +0.000 A 
ATOM     15  N   UNL     1       2.769   6.814  18.506  0.00  0.00    +0.000 N 
ATOM     16  N   UNL     1       2.329   7.981  18.960  0.00  0.00    +0.000 NA
ATOM     17  H   UNL     1       3.239   6.802  17.608  0.00  0.00    +0.000 HD
BRANCH  14  18
ATOM     18  C   UNL     1       2.831   4.390  18.944  0.00  0.00    +0.000 A 
ATOM     19  C   UNL     1       3.755   3.664  19.699  0.00  0.00    +0.000 A 
ATOM     20  C   UNL     1       4.027   2.331  19.385  0.00  0.00    +0.000 A 
ATOM     21  C   UNL     1       3.383   1.717  18.313  0.00  0.00    +0.000 A 
ATOM     22  C   UNL     1       2.466   2.432  17.547  0.00  0.00    +0.000 A 
ATOM     23  C   UNL     1       2.195   3.764  17.858  0.00  0.00    +0.000 A 
ENDBRANCH  14  18
ENDBRANCH   2  12
BRANCH   5  24
ATOM     24  C   UNL     1      -1.639  10.872  17.875  0.00  0.00    +0.000 A 
ATOM     25  C   UNL     1      -2.459   9.794  18.241  0.00  0.00    +0.000 A 
ATOM     26  C   UNL     1      -3.593   9.473  17.489  0.00  0.00    +0.000 A 
ATOM     27  C   UNL     1      -3.933  10.234  16.374  0.00  0.00    +0.000 A 
ATOM     28  C   UNL     1      -3.136  11.314  16.004  0.00  0.00    +0.000 A 
ATOM     29  C   UNL     1      -1.997  11.626  16.745  0.00  0.00    +0.000 A 
ENDBRANCH   5  24
TORSDOF 3
ENDMDL
MODEL 6
REMARK VINA RESULT:      -7.7      3.269      7.114
REMARK  Name = 
REMARK  3 active torsions:
REMARK  status: ('A' for Active; 'I' for Inactive)
REMARK    1  A    between atoms: C_2  and  C_3
REMARK    2  A    between atoms: C_5  and  C_6
REMARK    3  A    between atoms: C_16  and  C_17
REMARK                            x       y       z     vdW  Elec       q    Type
REMARK                         _______ _______ _______ _____ _____    ______ ____
ROOT
ATOM      1  O   UNL     1       0.825   4.666  20.857  0.00  0.00    +0.000 OA
ATOM      2  C   UNL     1       1.413   5.611  20.334  0.00  0.00    +0.000 C 
ATOM      3  N   UNL     1       2.283   5.436  19.254  0.00  0.00    +0.000 N 
ATOM      4  C   UNL     1       2.922   6.518  18.487  0.00  0.00    +0.000 C 
ATOM      5  C   UNL     1       3.964   5.862  17.561  0.00  0.00    +0.000 C 
ATOM      6  C   UNL     1       3.524   4.399  17.571  0.00  0.00    +0.000 C 
ATOM      7  C   UNL     1       4.514   3.294  17.269  0.00  0.00    +0.000 C 
ATOM      8  O   UNL     1       3.813   2.042  17.290  0.00  0.00    +0.000 OA
ATOM      9  C   UNL     1       3.185   1.765  18.549  0.00  0.00    +0.000 C 
ATOM     10  C   UNL     1       2.186   2.859  18.952  0.00  0.00    +0.000 C 
ATOM     11  C   UNL     1       2.946   4.180  18.970  0.00  0.00    +0.000 C 
ENDROOT
BRANCH   2  12
ATOM     12  C   UNL     1       1.220   6.985  20.851  0.00  0.00    +0.000 A 
ATOM     13  C   UNL     1       0.057   7.798  20.755  0.00  0.00    +0.000 A 
ATOM     14  C   UNL     1       0.364   8.986  21.400  0.00  0.00    +0.000 A 
ATOM     15  N   UNL     1       1.632   8.801  21.868  0.00  0.00    +0.000 N 
ATOM     16  N   UNL     1       2.153   7.613  21.587  0.00  0.00    +0.000 NA
ATOM     17  H   UNL     1       2.191   9.446  22.414  0.00  0.00    +0.000 HD
BRANCH  14  18
ATOM     18  C   UNL     1      -0.390  10.196  21.676  0.00  0.00    +0.000 A 
ATOM     19  C   UNL     1      -0.723  11.070  20.639  0.00  0.00    +0.000 A 
ATOM     20  C   UNL     1      -1.509  12.196  20.893  0.00  0.00    +0.000 A 
ATOM     21  C   UNL     1      -1.964  12.458  22.183  0.00  0.00    +0.000 A 
ATOM     22  C   UNL     1      -1.632  11.599  23.228  0.00  0.00    +0.000 A 
ATOM     23  C   UNL     1      -0.844  10.476  22.976  0.00  0.00    +0.000 A 
ENDBRANCH  14  18
ENDBRANCH   2  12
BRANCH   5  24
ATOM     24  C   UNL     1       5.415   6.114  17.932  0.00  0.00    +0.000 A 
ATOM     25  C   UNL     1       6.069   5.473  18.996  0.00  0.00    +0.000 A 
ATOM     26  C   UNL     1       7.400   5.773  19.300  0.00  0.00    +0.000 A 
ATOM     27  C   UNL     1       8.101   6.701  18.535  0.00  0.00    +0.000 A 
ATOM     28  C   UNL     1       7.471   7.338  17.470  0.00  0.00    +0.000 A 
ATOM     29  C   UNL     1       6.139   7.049  17.174  0.00  0.00    +0.000 A 
ENDBRANCH   5  24
TORSDOF 3
ENDMDL
MODEL 7
REMARK VINA RESULT:      -7.7      4.628      7.694
REMARK  Name = 
REMARK  3 active torsions:
REMARK  status: ('A' for Active; 'I' for Inactive)
REMARK    1  A    between atoms: C_2  and  C_3
REMARK    2  A    between atoms: C_5  and  C_6
REMARK    3  A    between atoms: C_16  and  C_17
REMARK                            x       y       z     vdW  Elec       q    Type
REMARK                         _______ _______ _______ _____ _____    ______ ____
ROOT
ATOM      1  O   UNL     1       0.814   8.922  22.508  0.00  0.00    +0.000 OA
ATOM      2  C   UNL     1       0.888   8.948  21.281  0.00  0.00    +0.000 C 
ATOM      3  N   UNL     1       0.352   9.997  20.528  0.00  0.00    +0.000 N 
ATOM      4  C   UNL     1       0.510  10.174  19.076  0.00  0.00    +0.000 C 
ATOM      5  C   UNL     1      -0.434  11.318  18.654  0.00  0.00    +0.000 C 
ATOM      6  C   UNL     1      -0.737  11.991  19.992  0.00  0.00    +0.000 C 
ATOM      7  C   UNL     1      -2.006  12.794  20.180  0.00  0.00    +0.000 C 
ATOM      8  O   UNL     1      -1.993  13.354  21.502  0.00  0.00    +0.000 OA
ATOM      9  C   UNL     1      -1.918  12.364  22.537  0.00  0.00    +0.000 C 
ATOM     10  C   UNL     1      -0.673  11.477  22.400  0.00  0.00    +0.000 C 
ATOM     11  C   UNL     1      -0.714  10.851  21.012  0.00  0.00    +0.000 C 
ENDROOT
BRANCH   2  12
ATOM     12  C   UNL     1       1.549   7.842  20.552  0.00  0.00    +0.000 A 
ATOM     13  C   UNL     1       2.332   7.922  19.367  0.00  0.00    +0.000 A 
ATOM     14  C   UNL     1       2.738   6.627  19.087  0.00  0.00    +0.000 A 
ATOM     15  N   UNL     1       2.233   5.882  20.113  0.00  0.00    +0.000 N 
ATOM     16  N   UNL     1       1.552   6.580  21.013  0.00  0.00    +0.000 NA
ATOM     17  H   UNL     1       2.342   4.887  20.267  0.00  0.00    +0.000 HD
BRANCH  14  18
ATOM     18  C   UNL     1       3.573   6.045  18.050  0.00  0.00    +0.000 A 
ATOM     19  C   UNL     1       3.555   4.666  17.825  0.00  0.00    +0.000 A 
ATOM     20  C   UNL     1       4.302   4.115  16.782  0.00  0.00    +0.000 A 
ATOM     21  C   UNL     1       5.073   4.934  15.961  0.00  0.00    +0.000 A 
ATOM     22  C   UNL     1       5.105   6.309  16.179  0.00  0.00    +0.000 A 
ATOM     23  C   UNL     1       4.363   6.861  17.223  0.00  0.00    +0.000 A 
ENDBRANCH  14  18
ENDBRANCH   2  12
BRANCH   5  24
ATOM     24  C   UNL     1      -1.646  10.896  17.842  0.00  0.00    +0.000 A 
ATOM     25  C   UNL     1      -2.443   9.784  18.155  0.00  0.00    +0.000 A 
ATOM     26  C   UNL     1      -3.530   9.435  17.347  0.00  0.00    +0.000 A 
ATOM     27  C   UNL     1      -3.846  10.203  16.230  0.00  0.00    +0.000 A 
ATOM     28  C   UNL     1      -3.072  11.314  15.911  0.00  0.00    +0.000 A 
ATOM     29  C   UNL     1      -1.980  11.655  16.708  0.00  0.00    +0.000 A 
ENDBRANCH   5  24
TORSDOF 3
ENDMDL
MODEL 8
REMARK VINA RESULT:      -7.7      3.843      6.322
REMARK  Name = 
REMARK  3 active torsions:
REMARK  status: ('A' for Active; 'I' for Inactive)
REMARK    1  A    between atoms: C_2  and  C_3
REMARK    2  A    between atoms: C_5  and  C_6
REMARK    3  A    between atoms: C_16  and  C_17
REMARK                            x       y       z     vdW  Elec       q    Type
REMARK                         _______ _______ _______ _____ _____    ______ ____
ROOT
ATOM      1  O   UNL     1       1.242   7.304  21.202  0.00  0.00    +0.000 OA
ATOM      2  C   UNL     1       1.628   7.413  20.039  0.00  0.00    +0.000 C 
ATOM      3  N   UNL     1       2.076   6.313  19.301  0.00  0.00    +0.000 N 
ATOM      4  C   UNL     1       2.427   6.329  17.872  0.00  0.00    +0.000 C 
ATOM      5  C   UNL     1       3.084   4.972  17.552  0.00  0.00    +0.000 C 
ATOM      6  C   UNL     1       2.657   4.122  18.747  0.00  0.00    +0.000 C 
ATOM      7  C   UNL     1       3.472   2.917  19.166  0.00  0.00    +0.000 C 
ATOM      8  O   UNL     1       2.805   2.282  20.268  0.00  0.00    +0.000 OA
ATOM      9  C   UNL     1       2.641   3.143  21.403  0.00  0.00    +0.000 C 
ATOM     10  C   UNL     1       1.852   4.413  21.057  0.00  0.00    +0.000 C 
ATOM     11  C   UNL     1       2.588   5.106  19.916  0.00  0.00    +0.000 C 
ENDROOT
BRANCH   2  12
ATOM     12  C   UNL     1       1.638   8.738  19.380  0.00  0.00    +0.000 A 
ATOM     13  C   UNL     1       1.208   9.984  19.916  0.00  0.00    +0.000 A 
ATOM     14  C   UNL     1       1.429  10.926  18.925  0.00  0.00    +0.000 A 
ATOM     15  N   UNL     1       2.004  10.222  17.907  0.00  0.00    +0.000 N 
ATOM     16  N   UNL     1       2.170   8.930  18.161  0.00  0.00    +0.000 NA
ATOM     17  H   UNL     1       2.330  10.576  17.016  0.00  0.00    +0.000 HD
BRANCH  14  18
ATOM     18  C   UNL     1       1.238  12.365  18.854  0.00  0.00    +0.000 A 
ATOM     19  C   UNL     1       2.336  13.213  18.693  0.00  0.00    +0.000 A 
ATOM     20  C   UNL     1       2.146  14.589  18.553  0.00  0.00    +0.000 A 
ATOM     21  C   UNL     1       0.861  15.127  18.576  0.00  0.00    +0.000 A 
ATOM     22  C   UNL     1      -0.242  14.293  18.744  0.00  0.00    +0.000 A 
ATOM     23  C   UNL     1      -0.053  12.918  18.888  0.00  0.00    +0.000 A 
ENDBRANCH  14  18
ENDBRANCH   2  12
BRANCH   5  24
ATOM     24  C   UNL     1       4.578   5.020  17.280  0.00  0.00    +0.000 A 
ATOM     25  C   UNL     1       5.215   4.248  16.296  0.00  0.00    +0.000 A 
ATOM     26  C   UNL     1       6.599   4.322  16.118  0.00  0.00    +0.000 A 
ATOM     27  C   UNL     1       7.362   5.181  16.904  0.00  0.00    +0.000 A 
ATOM     28  C   UNL     1       6.745   5.962  17.877  0.00  0.00    +0.000 A 
ATOM     29  C   UNL     1       5.366   5.879  18.065  0.00  0.00    +0.000 A 
ENDBRANCH   5  24
TORSDOF 3
ENDMDL
MODEL 9
REMARK VINA RESULT:      -7.6      3.819      7.726
REMARK  Name = 
REMARK  3 active torsions:
REMARK  status: ('A' for Active; 'I' for Inactive)
REMARK    1  A    between atoms: C_2  and  C_3
REMARK    2  A    between atoms: C_5  and  C_6
REMARK    3  A    between atoms: C_16  and  C_17
REMARK                            x       y       z     vdW  Elec       q    Type
REMARK                         _______ _______ _______ _____ _____    ______ ____
ROOT
ATOM      1  O   UNL     1       2.894   9.209  16.928  0.00  0.00    +0.000 OA
ATOM      2  C   UNL     1       2.364   8.723  17.926  0.00  0.00    +0.000 C 
ATOM      3  N   UNL     1       2.885   7.596  18.568  0.00  0.00    +0.000 N 
ATOM      4  C   UNL     1       2.395   7.032  19.835  0.00  0.00    +0.000 C 
ATOM      5  C   UNL     1       3.104   5.677  20.033  0.00  0.00    +0.000 C 
ATOM      6  C   UNL     1       4.275   5.786  19.057  0.00  0.00    +0.000 C 
ATOM      7  C   UNL     1       4.926   4.541  18.493  0.00  0.00    +0.000 C 
ATOM      8  O   UNL     1       6.025   4.944  17.663  0.00  0.00    +0.000 OA
ATOM      9  C   UNL     1       5.633   5.791  16.574  0.00  0.00    +0.000 C 
ATOM     10  C   UNL     1       4.930   7.066  17.057  0.00  0.00    +0.000 C 
ATOM     11  C   UNL     1       3.738   6.633  17.902  0.00  0.00    +0.000 C 
ENDROOT
BRANCH   2  12
ATOM     12  C   UNL     1       1.130   9.325  18.480  0.00  0.00    +0.000 A 
ATOM     13  C   UNL     1      -0.038   9.727  17.775  0.00  0.00    +0.000 A 
ATOM     14  C   UNL     1      -0.915  10.216  18.730  0.00  0.00    +0.000 A 
ATOM     15  N   UNL     1      -0.260  10.040  19.914  0.00  0.00    +0.000 N 
ATOM     16  N   UNL     1       0.939   9.484  19.801  0.00  0.00    +0.000 NA
ATOM     17  H   UNL     1      -0.595  10.259  20.845  0.00  0.00    +0.000 HD
BRANCH  14  18
ATOM     18  C   UNL     1      -2.268  10.742  18.668  0.00  0.00    +0.000 A 
ATOM     19  C   UNL     1      -2.643  11.815  19.479  0.00  0.00    +0.000 A 
ATOM     20  C   UNL     1      -3.921  12.366  19.368  0.00  0.00    +0.000 A 
ATOM     21  C   UNL     1      -4.833  11.847  18.452  0.00  0.00    +0.000 A 
ATOM     22  C   UNL     1      -4.474  10.772  17.643  0.00  0.00    +0.000 A 
ATOM     23  C   UNL     1      -3.199  10.218  17.755  0.00  0.00    +0.000 A 
ENDBRANCH  14  18
ENDBRANCH   2  12
BRANCH   5  24
ATOM     24  C   UNL     1       2.223   4.452  19.867  0.00  0.00    +0.000 A 
ATOM     25  C   UNL     1       1.570   4.118  18.670  0.00  0.00    +0.000 A 
ATOM     26  C   UNL     1       0.750   2.988  18.596  0.00  0.00    +0.000 A 
ATOM     27  C   UNL     1       0.588   2.166  19.708  0.00  0.00    +0.000 A 
ATOM     28  C   UNL     1       1.237   2.476  20.899  0.00  0.00    +0.000 A 
ATOM     29  C   UNL     1       2.044   3.611  20.979  0.00  0.00    +0.000 A 
ENDBRANCH   5  24
TORSDOF 3
ENDMDL
