MODEL 1
REMARK VINA RESULT:      -8.3      0.000      0.000
REMARK  Name = 
REMARK  3 active torsions:
REMARK  status: ('A' for Active; 'I' for Inactive)
REMARK    1  A    between atoms: C_2  and  C_13
REMARK    2  A    between atoms: N_3  and  C_4
REMARK    3  A    between atoms: C_18  and  N_19
REMARK                            x       y       z     vdW  Elec       q    Type
REMARK                         _______ _______ _______ _____ _____    ______ ____
ROOT
ATOM      1  O   UNL     1       1.489   8.212  21.030  0.00  0.00    +0.000 OA
ATOM      2  C   UNL     1       1.856   7.827  19.933  0.00  0.00    +0.000 C 
ATOM      3  N   UNL     1       1.799   8.507  18.723  0.00  0.00    +0.000 N 
ATOM      4  H   UNL     1       1.905   7.969  17.867  0.00  0.00    +0.000 HD
ENDROOT
BRANCH   3   5
ATOM      5  C   UNL     1       1.308   9.828  18.577  0.00  0.00    +0.000 A 
ATOM      6  C   UNL     1       2.222  10.916  18.385  0.00  0.00    +0.000 A 
ATOM      7  C   UNL     1       1.877  12.276  18.356  0.00  0.00    +0.000 A 
ATOM      8  C   UNL     1       0.514  12.422  18.526  0.00  0.00    +0.000 A 
ATOM      9  C   UNL     1      -0.130  13.621  18.609  0.00  0.00    +0.000 A 
ATOM     10  N   UNL     1      -1.436  13.284  18.805  0.00  0.00    +0.000 N 
ATOM     11  N   UNL     1      -1.682  11.954  18.821  0.00  0.00    +0.000 NA
ATOM     12  C   UNL     1      -0.470  11.384  18.675  0.00  0.00    +0.000 A 
ATOM     13  C   UNL     1      -0.095  10.026  18.669  0.00  0.00    +0.000 A 
ATOM     14  H   UNL     1      -2.221  13.913  18.939  0.00  0.00    +0.000 HD
ENDBRANCH   3   5
BRANCH   2  15
ATOM     15  C   UNL     1       2.369   6.443  19.853  0.00  0.00    +0.000 A 
ATOM     16  C   UNL     1       1.731   5.409  20.535  0.00  0.00    +0.000 A 
ATOM     17  C   UNL     1       2.275   4.128  20.491  0.00  0.00    +0.000 A 
ATOM     18  C   UNL     1       3.432   3.877  19.744  0.00  0.00    +0.000 A 
ATOM     19 CL   UNL     1       4.130   2.304  19.891  0.00  0.00    +0.000 Cl
ATOM     20  C   UNL     1       4.049   4.910  19.020  0.00  0.00    +0.000 A 
ATOM     21  C   UNL     1       3.508   6.198  19.077  0.00  0.00    +0.000 A 
BRANCH  20  22
ATOM     22  N   UNL     1       5.212   4.712  18.261  0.00  0.00    +0.000 N 
ATOM     23  C   UNL     1       5.222   4.232  16.900  0.00  0.00    +0.000 C 
ATOM     24  C   UNL     1       6.588   4.695  16.407  0.00  0.00    +0.000 C 
ATOM     25  N   UNL     1       7.362   4.787  17.615  0.00  0.00    +0.000 N 
ATOM     26  C   UNL     1       6.511   4.983  18.701  0.00  0.00    +0.000 C 
ATOM     27  O   UNL     1       6.881   5.327  19.812  0.00  0.00    +0.000 OA
ATOM     28  H   UNL     1       8.320   5.102  17.686  0.00  0.00    +0.000 HD
ENDBRANCH  20  22
ENDBRANCH   2  15
TORSDOF 3
ENDMDL
MODEL 2
REMARK VINA RESULT:      -8.3      3.086      8.440
REMARK  Name = 
REMARK  3 active torsions:
REMARK  status: ('A' for Active; 'I' for Inactive)
REMARK    1  A    between atoms: C_2  and  C_13
REMARK    2  A    between atoms: N_3  and  C_4
REMARK    3  A    between atoms: C_18  and  N_19
REMARK                            x       y       z     vdW  Elec       q    Type
REMARK                         _______ _______ _______ _____ _____    ______ ____
ROOT
ATOM      1  O   UNL     1       2.229   8.653  17.331  0.00  0.00    +0.000 OA
ATOM      2  C   UNL     1       2.335   8.137  18.431  0.00  0.00    +0.000 C 
ATOM      3  N   UNL     1       3.026   6.980  18.772  0.00  0.00    +0.000 N 
ATOM      4  H   UNL     1       2.815   6.543  19.664  0.00  0.00    +0.000 HD
ENDROOT
BRANCH   3   5
ATOM      5  C   UNL     1       3.775   6.203  17.853  0.00  0.00    +0.000 A 
ATOM      6  C   UNL     1       3.370   4.861  17.552  0.00  0.00    +0.000 A 
ATOM      7  C   UNL     1       4.091   3.949  16.766  0.00  0.00    +0.000 A 
ATOM      8  C   UNL     1       5.253   4.537  16.305  0.00  0.00    +0.000 A 
ATOM      9  C   UNL     1       6.203   3.896  15.565  0.00  0.00    +0.000 A 
ATOM     10  N   UNL     1       7.166   4.839  15.372  0.00  0.00    +0.000 N 
ATOM     11  N   UNL     1       6.889   6.051  15.904  0.00  0.00    +0.000 NA
ATOM     12  C   UNL     1       5.703   5.885  16.522  0.00  0.00    +0.000 A 
ATOM     13  C   UNL     1       4.941   6.787  17.291  0.00  0.00    +0.000 A 
ATOM     14  H   UNL     1       8.049   4.727  14.883  0.00  0.00    +0.000 HD
ENDBRANCH   3   5
BRANCH   2  15
ATOM     15  C   UNL     1       1.589   8.772  19.537  0.00  0.00    +0.000 A 
ATOM     16  C   UNL     1       1.469   8.135  20.771  0.00  0.00    +0.000 A 
ATOM     17  C   UNL     1       0.707   8.729  21.772  0.00  0.00    +0.000 A 
ATOM     18  C   UNL     1       0.093   9.968  21.552  0.00  0.00    +0.000 A 
ATOM     19 CL   UNL     1      -0.973  10.541  22.784  0.00  0.00    +0.000 Cl
ATOM     20  C   UNL     1       0.251  10.631  20.325  0.00  0.00    +0.000 A 
ATOM     21  C   UNL     1       1.007  10.026  19.316  0.00  0.00    +0.000 A 
BRANCH  20  22
ATOM     22  N   UNL     1      -0.346  11.871  20.052  0.00  0.00    +0.000 N 
ATOM     23  C   UNL     1       0.190  13.142  20.476  0.00  0.00    +0.000 C 
ATOM     24  C   UNL     1      -0.491  14.113  19.517  0.00  0.00    +0.000 C 
ATOM     25  N   UNL     1      -1.697  13.422  19.149  0.00  0.00    +0.000 N 
ATOM     26  C   UNL     1      -1.516  12.049  19.307  0.00  0.00    +0.000 C 
ATOM     27  O   UNL     1      -2.269  11.200  18.860  0.00  0.00    +0.000 OA
ATOM     28  H   UNL     1      -2.392  13.748  18.491  0.00  0.00    +0.000 HD
ENDBRANCH  20  22
ENDBRANCH   2  15
TORSDOF 3
ENDMDL
MODEL 3
REMARK VINA RESULT:      -8.3      1.213      1.247
REMARK  Name = 
REMARK  3 active torsions:
REMARK  status: ('A' for Active; 'I' for Inactive)
REMARK    1  A    between atoms: C_2  and  C_13
REMARK    2  A    between atoms: N_3  and  C_4
REMARK    3  A    between atoms: C_18  and  N_19
REMARK                            x       y       z     vdW  Elec       q    Type
REMARK                         _______ _______ _______ _____ _____    ______ ____
ROOT
ATOM      1  O   UNL     1       2.176   7.817  20.089  0.00  0.00    +0.000 OA
ATOM      2  C   UNL     1       2.154   7.577  18.894  0.00  0.00    +0.000 C 
ATOM      3  N   UNL     1       1.753   8.413  17.858  0.00  0.00    +0.000 N 
ATOM      4  H   UNL     1       1.553   7.993  16.955  0.00  0.00    +0.000 HD
ENDROOT
BRANCH   3   5
ATOM      5  C   UNL     1       1.315   9.748  18.040  0.00  0.00    +0.000 A 
ATOM      6  C   UNL     1       2.273  10.813  18.121  0.00  0.00    +0.000 A 
ATOM      7  C   UNL     1       1.980  12.151  18.427  0.00  0.00    +0.000 A 
ATOM      8  C   UNL     1       0.623  12.305  18.627  0.00  0.00    +0.000 A 
ATOM      9  C   UNL     1       0.024  13.472  19.000  0.00  0.00    +0.000 A 
ATOM     10  N   UNL     1      -1.296  13.149  19.106  0.00  0.00    +0.000 N 
ATOM     11  N   UNL     1      -1.593  11.867  18.796  0.00  0.00    +0.000 NA
ATOM     12  C   UNL     1      -0.402  11.302  18.516  0.00  0.00    +0.000 A 
ATOM     13  C   UNL     1      -0.080   9.973  18.177  0.00  0.00    +0.000 A 
ATOM     14  H   UNL     1      -2.058  13.757  19.390  0.00  0.00    +0.000 HD
ENDBRANCH   3   5
BRANCH   2  15
ATOM     15  C   UNL     1       2.538   6.209  18.484  0.00  0.00    +0.000 A 
ATOM     16  C   UNL     1       1.703   5.127  18.755  0.00  0.00    +0.000 A 
ATOM     17  C   UNL     1       2.121   3.844  18.413  0.00  0.00    +0.000 A 
ATOM     18  C   UNL     1       3.353   3.648  17.778  0.00  0.00    +0.000 A 
ATOM     19 CL   UNL     1       3.864   2.014  17.553  0.00  0.00    +0.000 Cl
ATOM     20  C   UNL     1       4.173   4.743  17.464  0.00  0.00    +0.000 A 
ATOM     21  C   UNL     1       3.757   6.029  17.820  0.00  0.00    +0.000 A 
BRANCH  20  22
ATOM     22  N   UNL     1       5.418   4.600  16.833  0.00  0.00    +0.000 N 
ATOM     23  C   UNL     1       5.597   4.497  15.405  0.00  0.00    +0.000 C 
ATOM     24  C   UNL     1       7.061   4.890  15.236  0.00  0.00    +0.000 C 
ATOM     25  N   UNL     1       7.640   4.559  16.509  0.00  0.00    +0.000 N 
ATOM     26  C   UNL     1       6.651   4.574  17.491  0.00  0.00    +0.000 C 
ATOM     27  O   UNL     1       6.872   4.562  18.691  0.00  0.00    +0.000 OA
ATOM     28  H   UNL     1       8.601   4.715  16.785  0.00  0.00    +0.000 HD
ENDBRANCH  20  22
ENDBRANCH   2  15
TORSDOF 3
ENDMDL
MODEL 4
REMARK VINA RESULT:      -8.3      1.772      1.894
REMARK  Name = 
REMARK  3 active torsions:
REMARK  status: ('A' for Active; 'I' for Inactive)
REMARK    1  A    between atoms: C_2  and  C_13
REMARK    2  A    between atoms: N_3  and  C_4
REMARK    3  A    between atoms: C_18  and  N_19
REMARK                            x       y       z     vdW  Elec       q    Type
REMARK                         _______ _______ _______ _____ _____    ______ ____
ROOT
ATOM      1  O   UNL     1       2.145   9.239  17.414  0.00  0.00    +0.000 OA
ATOM      2  C   UNL     1       1.966   8.634  18.457  0.00  0.00    +0.000 C 
ATOM      3  N   UNL     1       1.224   9.032  19.563  0.00  0.00    +0.000 N 
ATOM      4  H   UNL     1       1.374   8.543  20.441  0.00  0.00    +0.000 HD
ENDROOT
BRANCH   3   5
ATOM      5  C   UNL     1       0.501  10.248  19.637  0.00  0.00    +0.000 A 
ATOM      6  C   UNL     1       1.060  11.374  20.326  0.00  0.00    +0.000 A 
ATOM      7  C   UNL     1       0.398  12.585  20.582  0.00  0.00    +0.000 A 
ATOM      8  C   UNL     1      -0.879  12.545  20.057  0.00  0.00    +0.000 A 
ATOM      9  C   UNL     1      -1.800  13.543  20.190  0.00  0.00    +0.000 A 
ATOM     10  N   UNL     1      -2.905  13.061  19.554  0.00  0.00    +0.000 N 
ATOM     11  N   UNL     1      -2.750  11.841  18.993  0.00  0.00    +0.000 NA
ATOM     12  C   UNL     1      -1.493  11.478  19.315  0.00  0.00    +0.000 A 
ATOM     13  C   UNL     1      -0.791  10.286  19.048  0.00  0.00    +0.000 A 
ATOM     14  H   UNL     1      -3.809  13.513  19.464  0.00  0.00    +0.000 HD
ENDBRANCH   3   5
BRANCH   2  15
ATOM     15  C   UNL     1       2.673   7.344  18.606  0.00  0.00    +0.000 A 
ATOM     16  C   UNL     1       2.363   6.482  19.656  0.00  0.00    +0.000 A 
ATOM     17  C   UNL     1       3.089   5.304  19.806  0.00  0.00    +0.000 A 
ATOM     18  C   UNL     1       4.099   4.976  18.894  0.00  0.00    +0.000 A 
ATOM     19 CL   UNL     1       5.061   3.589  19.259  0.00  0.00    +0.000 Cl
ATOM     20  C   UNL     1       4.381   5.823  17.810  0.00  0.00    +0.000 A 
ATOM     21  C   UNL     1       3.658   7.012  17.669  0.00  0.00    +0.000 A 
BRANCH  20  22
ATOM     22  N   UNL     1       5.385   5.543  16.871  0.00  0.00    +0.000 N 
ATOM     23  C   UNL     1       5.229   4.634  15.761  0.00  0.00    +0.000 C 
ATOM     24  C   UNL     1       6.337   5.087  14.817  0.00  0.00    +0.000 C 
ATOM     25  N   UNL     1       7.296   5.692  15.701  0.00  0.00    +0.000 N 
ATOM     26  C   UNL     1       6.655   6.127  16.860  0.00  0.00    +0.000 C 
ATOM     27  O   UNL     1       7.155   6.877  17.682  0.00  0.00    +0.000 OA
ATOM     28  H   UNL     1       8.159   6.143  15.424  0.00  0.00    +0.000 HD
ENDBRANCH  20  22
ENDBRANCH   2  15
TORSDOF 3
ENDMDL
MODEL 5
REMARK VINA RESULT:      -8.3      1.335      1.416
REMARK  Name = 
REMARK  3 active torsions:
REMARK  status: ('A' for Active; 'I' for Inactive)
REMARK    1  A    between atoms: C_2  and  C_13
REMARK    2  A    between atoms: N_3  and  C_4
REMARK    3  A    between atoms: C_18  and  N_19
REMARK                            x       y       z     vdW  Elec       q    Type
REMARK                         _______ _______ _______ _____ _____    ______ ____
ROOT
ATOM      1  O   UNL     1       2.689   8.605  17.895  0.00  0.00    +0.000 OA
ATOM      2  C   UNL     1       2.253   7.976  18.844  0.00  0.00    +0.000 C 
ATOM      3  N   UNL     1       1.362   8.404  19.820  0.00  0.00    +0.000 N 
ATOM      4  H   UNL     1       1.291   7.861  20.675  0.00  0.00    +0.000 HD
ENDROOT
BRANCH   3   5
ATOM      5  C   UNL     1       0.770   9.692  19.844  0.00  0.00    +0.000 A 
ATOM      6  C   UNL     1       1.003  10.568  20.954  0.00  0.00    +0.000 A 
ATOM      7  C   UNL     1       0.378  11.808  21.160  0.00  0.00    +0.000 A 
ATOM      8  C   UNL     1      -0.494  12.076  20.123  0.00  0.00    +0.000 A 
ATOM      9  C   UNL     1      -1.301  13.173  20.057  0.00  0.00    +0.000 A 
ATOM     10  N   UNL     1      -1.997  13.004  18.898  0.00  0.00    +0.000 N 
ATOM     11  N   UNL     1      -1.671  11.894  18.197  0.00  0.00    +0.000 NA
ATOM     12  C   UNL     1      -0.746  11.274  18.956  0.00  0.00    +0.000 A 
ATOM     13  C   UNL     1      -0.079  10.049  18.763  0.00  0.00    +0.000 A 
ATOM     14  H   UNL     1      -2.718  13.609  18.518  0.00  0.00    +0.000 HD
ENDBRANCH   3   5
BRANCH   2  15
ATOM     15  C   UNL     1       2.779   6.607  19.031  0.00  0.00    +0.000 A 
ATOM     16  C   UNL     1       2.193   5.740  19.951  0.00  0.00    +0.000 A 
ATOM     17  C   UNL     1       2.750   4.481  20.150  0.00  0.00    +0.000 A 
ATOM     18  C   UNL     1       3.868   4.078  19.411  0.00  0.00    +0.000 A 
ATOM     19 CL   UNL     1       4.594   2.574  19.849  0.00  0.00    +0.000 Cl
ATOM     20  C   UNL     1       4.432   4.934  18.451  0.00  0.00    +0.000 A 
ATOM     21  C   UNL     1       3.878   6.204  18.263  0.00  0.00    +0.000 A 
BRANCH  20  22
ATOM     22  N   UNL     1       5.555   4.581  17.689  0.00  0.00    +0.000 N 
ATOM     23  C   UNL     1       5.493   4.048  16.349  0.00  0.00    +0.000 C 
ATOM     24  C   UNL     1       6.893   4.340  15.822  0.00  0.00    +0.000 C 
ATOM     25  N   UNL     1       7.690   4.397  17.016  0.00  0.00    +0.000 N 
ATOM     26  C   UNL     1       6.882   4.728  18.103  0.00  0.00    +0.000 C 
ATOM     27  O   UNL     1       7.304   5.075  19.194  0.00  0.00    +0.000 OA
ATOM     28  H   UNL     1       8.678   4.609  17.063  0.00  0.00    +0.000 HD
ENDBRANCH  20  22
ENDBRANCH   2  15
TORSDOF 3
ENDMDL
MODEL 6
REMARK VINA RESULT:      -8.3      2.018      2.356
REMARK  Name = 
REMARK  3 active torsions:
REMARK  status: ('A' for Active; 'I' for Inactive)
REMARK    1  A    between atoms: C_2  and  C_13
REMARK    2  A    between atoms: N_3  and  C_4
REMARK    3  A    between atoms: C_18  and  N_19
REMARK                            x       y       z     vdW  Elec       q    Type
REMARK                         _______ _______ _______ _____ _____    ______ ____
ROOT
ATOM      1  O   UNL     1       1.988   8.253  19.032  0.00  0.00    +0.000 OA
ATOM      2  C   UNL     1       1.915   7.531  20.012  0.00  0.00    +0.000 C 
ATOM      3  N   UNL     1       1.389   7.833  21.262  0.00  0.00    +0.000 N 
ATOM      4  H   UNL     1       1.626   7.225  22.040  0.00  0.00    +0.000 HD
ENDROOT
BRANCH   3   5
ATOM      5  C   UNL     1       0.799   9.078  21.595  0.00  0.00    +0.000 A 
ATOM      6  C   UNL     1      -0.036   9.189  22.756  0.00  0.00    +0.000 A 
ATOM      7  C   UNL     1      -0.777  10.323  23.121  0.00  0.00    +0.000 A 
ATOM      8  C   UNL     1      -0.577  11.335  22.204  0.00  0.00    +0.000 A 
ATOM      9  C   UNL     1      -1.203  12.546  22.240  0.00  0.00    +0.000 A 
ATOM     10  N   UNL     1      -0.731  13.197  21.140  0.00  0.00    +0.000 N 
ATOM     11  N   UNL     1       0.179  12.506  20.418  0.00  0.00    +0.000 NA
ATOM     12  C   UNL     1       0.278  11.318  21.047  0.00  0.00    +0.000 A 
ATOM     13  C   UNL     1       1.034  10.175  20.724  0.00  0.00    +0.000 A 
ATOM     14  H   UNL     1      -0.988  14.124  20.815  0.00  0.00    +0.000 HD
ENDBRANCH   3   5
BRANCH   2  15
ATOM     15  C   UNL     1       2.516   6.185  19.892  0.00  0.00    +0.000 A 
ATOM     16  C   UNL     1       1.937   5.090  20.529  0.00  0.00    +0.000 A 
ATOM     17  C   UNL     1       2.561   3.849  20.449  0.00  0.00    +0.000 A 
ATOM     18  C   UNL     1       3.741   3.697  19.711  0.00  0.00    +0.000 A 
ATOM     19 CL   UNL     1       4.535   2.167  19.813  0.00  0.00    +0.000 Cl
ATOM     20  C   UNL     1       4.300   4.791  19.031  0.00  0.00    +0.000 A 
ATOM     21  C   UNL     1       3.677   6.040  19.124  0.00  0.00    +0.000 A 
BRANCH  20  22
ATOM     22  N   UNL     1       5.482   4.694  18.282  0.00  0.00    +0.000 N 
ATOM     23  C   UNL     1       5.538   4.268  16.905  0.00  0.00    +0.000 C 
ATOM     24  C   UNL     1       6.880   4.832  16.449  0.00  0.00    +0.000 C 
ATOM     25  N   UNL     1       7.631   4.924  17.671  0.00  0.00    +0.000 N 
ATOM     26  C   UNL     1       6.756   5.027  18.751  0.00  0.00    +0.000 C 
ATOM     27  O   UNL     1       7.091   5.350  19.879  0.00  0.00    +0.000 OA
ATOM     28  H   UNL     1       8.568   5.294  17.768  0.00  0.00    +0.000 HD
ENDBRANCH  20  22
ENDBRANCH   2  15
TORSDOF 3
ENDMDL
MODEL 7
REMARK VINA RESULT:      -8.2      3.117      8.344
REMARK  Name = 
REMARK  3 active torsions:
REMARK  status: ('A' for Active; 'I' for Inactive)
REMARK    1  A    between atoms: C_2  and  C_13
REMARK    2  A    between atoms: N_3  and  C_4
REMARK    3  A    between atoms: C_18  and  N_19
REMARK                            x       y       z     vdW  Elec       q    Type
REMARK                         _______ _______ _______ _____ _____    ______ ____
ROOT
ATOM      1  O   UNL     1       2.186   8.492  17.373  0.00  0.00    +0.000 OA
ATOM      2  C   UNL     1       2.390   8.006  18.473  0.00  0.00    +0.000 C 
ATOM      3  N   UNL     1       3.188   6.915  18.793  0.00  0.00    +0.000 N 
ATOM      4  H   UNL     1       3.060   6.479  19.701  0.00  0.00    +0.000 HD
ENDROOT
BRANCH   3   5
ATOM      5  C   UNL     1       3.949   6.183  17.847  0.00  0.00    +0.000 A 
ATOM      6  C   UNL     1       3.518   4.879  17.434  0.00  0.00    +0.000 A 
ATOM      7  C   UNL     1       4.242   4.004  16.610  0.00  0.00    +0.000 A 
ATOM      8  C   UNL     1       5.436   4.587  16.234  0.00  0.00    +0.000 A 
ATOM      9  C   UNL     1       6.394   3.972  15.483  0.00  0.00    +0.000 A 
ATOM     10  N   UNL     1       7.390   4.897  15.392  0.00  0.00    +0.000 N 
ATOM     11  N   UNL     1       7.128   6.076  16.002  0.00  0.00    +0.000 NA
ATOM     12  C   UNL     1       5.915   5.902  16.564  0.00  0.00    +0.000 A 
ATOM     13  C   UNL     1       5.151   6.769  17.369  0.00  0.00    +0.000 A 
ATOM     14  H   UNL     1       8.287   4.794  14.927  0.00  0.00    +0.000 HD
ENDBRANCH   3   5
BRANCH   2  15
ATOM     15  C   UNL     1       1.653   8.600  19.608  0.00  0.00    +0.000 A 
ATOM     16  C   UNL     1       1.500   7.896  20.801  0.00  0.00    +0.000 A 
ATOM     17  C   UNL     1       0.747   8.456  21.829  0.00  0.00    +0.000 A 
ATOM     18  C   UNL     1       0.177   9.725  21.677  0.00  0.00    +0.000 A 
ATOM     19 CL   UNL     1      -0.882  10.261  22.931  0.00  0.00    +0.000 Cl
ATOM     20  C   UNL     1       0.370  10.454  20.492  0.00  0.00    +0.000 A 
ATOM     21  C   UNL     1       1.115   9.883  19.456  0.00  0.00    +0.000 A 
BRANCH  20  22
ATOM     22  N   UNL     1      -0.184  11.727  20.288  0.00  0.00    +0.000 N 
ATOM     23  C   UNL     1      -1.409  11.973  19.567  0.00  0.00    +0.000 C 
ATOM     24  C   UNL     1      -1.811  13.352  20.080  0.00  0.00    +0.000 C 
ATOM     25  N   UNL     1      -0.559  13.933  20.479  0.00  0.00    +0.000 N 
ATOM     26  C   UNL     1       0.352  12.921  20.779  0.00  0.00    +0.000 C 
ATOM     27  O   UNL     1       1.409  13.097  21.362  0.00  0.00    +0.000 OA
ATOM     28  H   UNL     1      -0.433  14.841  20.907  0.00  0.00    +0.000 HD
ENDBRANCH  20  22
ENDBRANCH   2  15
TORSDOF 3
ENDMDL
MODEL 8
REMARK VINA RESULT:      -8.2      3.421      8.582
REMARK  Name = 
REMARK  3 active torsions:
REMARK  status: ('A' for Active; 'I' for Inactive)
REMARK    1  A    between atoms: C_2  and  C_13
REMARK    2  A    between atoms: N_3  and  C_4
REMARK    3  A    between atoms: C_18  and  N_19
REMARK                            x       y       z     vdW  Elec       q    Type
REMARK                         _______ _______ _______ _____ _____    ______ ____
ROOT
ATOM      1  O   UNL     1       2.014   8.116  18.948  0.00  0.00    +0.000 OA
ATOM      2  C   UNL     1       1.659   7.861  20.087  0.00  0.00    +0.000 C 
ATOM      3  N   UNL     1       1.725   6.643  20.752  0.00  0.00    +0.000 N 
ATOM      4  H   UNL     1       1.166   6.527  21.593  0.00  0.00    +0.000 HD
ENDROOT
BRANCH   3   5
ATOM      5  C   UNL     1       2.269   5.461  20.192  0.00  0.00    +0.000 A 
ATOM      6  C   UNL     1       3.633   5.437  19.750  0.00  0.00    +0.000 A 
ATOM      7  C   UNL     1       4.250   4.379  19.065  0.00  0.00    +0.000 A 
ATOM      8  C   UNL     1       3.353   3.344  18.887  0.00  0.00    +0.000 A 
ATOM      9  C   UNL     1       3.625   2.196  18.203  0.00  0.00    +0.000 A 
ATOM     10  N   UNL     1       2.458   1.494  18.256  0.00  0.00    +0.000 N 
ATOM     11  N   UNL     1       1.467   2.092  18.953  0.00  0.00    +0.000 NA
ATOM     12  C   UNL     1       1.991   3.272  19.341  0.00  0.00    +0.000 A 
ATOM     13  C   UNL     1       1.409   4.339  20.053  0.00  0.00    +0.000 A 
ATOM     14  H   UNL     1       2.263   0.592  17.834  0.00  0.00    +0.000 HD
ENDBRANCH   3   5
BRANCH   2  15
ATOM     15  C   UNL     1       1.018   8.957  20.844  0.00  0.00    +0.000 A 
ATOM     16  C   UNL     1       0.640   8.775  22.173  0.00  0.00    +0.000 A 
ATOM     17  C   UNL     1      -0.018   9.805  22.839  0.00  0.00    +0.000 A 
ATOM     18  C   UNL     1      -0.269  11.020  22.190  0.00  0.00    +0.000 A 
ATOM     19 CL   UNL     1      -1.243  12.169  23.034  0.00  0.00    +0.000 Cl
ATOM     20  C   UNL     1       0.153  11.219  20.866  0.00  0.00    +0.000 A 
ATOM     21  C   UNL     1       0.802  10.178  20.195  0.00  0.00    +0.000 A 
BRANCH  20  22
ATOM     22  N   UNL     1      -0.078  12.415  20.170  0.00  0.00    +0.000 N 
ATOM     23  C   UNL     1       0.779  13.574  20.240  0.00  0.00    +0.000 C 
ATOM     24  C   UNL     1       0.405  14.327  18.968  0.00  0.00    +0.000 C 
ATOM     25  N   UNL     1      -0.937  13.885  18.706  0.00  0.00    +0.000 N 
ATOM     26  C   UNL     1      -1.142  12.637  19.290  0.00  0.00    +0.000 C 
ATOM     27  O   UNL     1      -2.092  11.910  19.048  0.00  0.00    +0.000 OA
ATOM     28  H   UNL     1      -1.506  14.149  17.912  0.00  0.00    +0.000 HD
ENDBRANCH  20  22
ENDBRANCH   2  15
TORSDOF 3
ENDMDL
MODEL 9
REMARK VINA RESULT:      -8.2      3.325      8.753
REMARK  Name = 
REMARK  3 active torsions:
REMARK  status: ('A' for Active; 'I' for Inactive)
REMARK    1  A    between atoms: C_2  and  C_13
REMARK    2  A    between atoms: N_3  and  C_4
REMARK    3  A    between atoms: C_18  and  N_19
REMARK                            x       y       z     vdW  Elec       q    Type
REMARK                         _______ _______ _______ _____ _____    ______ ____
ROOT
ATOM      1  O   UNL     1       1.868   8.097  19.152  0.00  0.00    +0.000 OA
ATOM      2  C   UNL     1       1.471   7.891  20.286  0.00  0.00    +0.000 C 
ATOM      3  N   UNL     1       1.462   6.691  20.987  0.00  0.00    +0.000 N 
ATOM      4  H   UNL     1       0.876   6.625  21.814  0.00  0.00    +0.000 HD
ENDROOT
BRANCH   3   5
ATOM      5  C   UNL     1       1.967   5.470  20.477  0.00  0.00    +0.000 A 
ATOM      6  C   UNL     1       1.136   4.302  20.456  0.00  0.00    +0.000 A 
ATOM      7  C   UNL     1       1.553   3.010  20.100  0.00  0.00    +0.000 A 
ATOM      8  C   UNL     1       2.889   3.024  19.752  0.00  0.00    +0.000 A 
ATOM      9  C   UNL     1       3.612   1.917  19.417  0.00  0.00    +0.000 A 
ATOM     10  N   UNL     1       4.866   2.395  19.187  0.00  0.00    +0.000 N 
ATOM     11  N   UNL     1       4.995   3.735  19.318  0.00  0.00    +0.000 NA
ATOM     12  C   UNL     1       3.774   4.156  19.700  0.00  0.00    +0.000 A 
ATOM     13  C   UNL     1       3.317   5.446  20.035  0.00  0.00    +0.000 A 
ATOM     14  H   UNL     1       5.693   1.862  18.937  0.00  0.00    +0.000 HD
ENDBRANCH   3   5
BRANCH   2  15
ATOM     15  C   UNL     1       0.859   9.037  20.993  0.00  0.00    +0.000 A 
ATOM     16  C   UNL     1       0.395   8.899  22.300  0.00  0.00    +0.000 A 
ATOM     17  C   UNL     1      -0.232   9.977  22.916  0.00  0.00    +0.000 A 
ATOM     18  C   UNL     1      -0.368  11.196  22.240  0.00  0.00    +0.000 A 
ATOM     19 CL   UNL     1      -1.312  12.417  23.014  0.00  0.00    +0.000 Cl
ATOM     20  C   UNL     1       0.140  11.349  20.940  0.00  0.00    +0.000 A 
ATOM     21  C   UNL     1       0.759  10.259  20.319  0.00  0.00    +0.000 A 
BRANCH  20  22
ATOM     22  N   UNL     1       0.026  12.546  20.219  0.00  0.00    +0.000 N 
ATOM     23  C   UNL     1       0.984  13.624  20.276  0.00  0.00    +0.000 C 
ATOM     24  C   UNL     1       0.693  14.382  18.985  0.00  0.00    +0.000 C 
ATOM     25  N   UNL     1      -0.682  14.059  18.717  0.00  0.00    +0.000 N 
ATOM     26  C   UNL     1      -1.005  12.846  19.324  0.00  0.00    +0.000 C 
ATOM     27  O   UNL     1      -2.015  12.205  19.085  0.00  0.00    +0.000 OA
ATOM     28  H   UNL     1      -1.217  14.357  17.912  0.00  0.00    +0.000 HD
ENDBRANCH  20  22
ENDBRANCH   2  15
TORSDOF 3
ENDMDL
