MODEL 1
REMARK VINA RESULT:      -7.2      0.000      0.000
REMARK  Name = 
REMARK  3 active torsions:
REMARK  status: ('A' for Active; 'I' for Inactive)
REMARK    1  A    between atoms: C_1  and  S_2
REMARK    2  A    between atoms: S_2  and  C_5
REMARK    3  A    between atoms: N_13  and  C_14
REMARK                            x       y       z     vdW  Elec       q    Type
REMARK                         _______ _______ _______ _____ _____    ______ ____
ROOT
ATOM      1  C   UNL     1      -0.618  12.681  20.514  0.00  0.00    +0.000 A 
ATOM      2  C   UNL     1       0.401  12.199  19.697  0.00  0.00    +0.000 A 
ATOM      3  C   UNL     1       0.083  11.416  18.573  0.00  0.00    +0.000 A 
ATOM      4  C   UNL     1      -1.239  11.140  18.198  0.00  0.00    +0.000 A 
ATOM      5  N   UNL     1      -1.447  10.389  17.112  0.00  0.00    +0.000 NA
ATOM      6  C   UNL     1      -2.713  10.216  16.719  0.00  0.00    +0.000 A 
ATOM      7  N   UNL     1      -3.782  10.784  17.278  0.00  0.00    +0.000 NA
ATOM      8  C   UNL     1      -3.588  11.526  18.365  0.00  0.00    +0.000 A 
ATOM      9  N   UNL     1      -4.637  12.284  18.860  0.00  0.00    +0.000 N 
ATOM     10  C   UNL     1      -2.278  11.696  18.940  0.00  0.00    +0.000 A 
ATOM     11  C   UNL     1      -1.951  12.428  20.134  0.00  0.00    +0.000 A 
ATOM     12  H   UNL     1      -4.617  12.454  19.859  0.00  0.00    +0.000 HD
ENDROOT
BRANCH   9  13
ATOM     13  C   UNL     1      -5.974  12.414  18.256  0.00  0.00    +0.000 C 
ATOM     14  C   UNL     1      -6.488  13.850  18.450  0.00  0.00    +0.000 C 
ATOM     15  C   UNL     1      -6.659  14.197  19.930  0.00  0.00    +0.000 C 
ATOM     16  C   UNL     1      -7.624  13.240  20.625  0.00  0.00    +0.000 C 
ATOM     17  C   UNL     1      -7.399  11.790  20.276  0.00  0.00    +0.000 A 
ATOM     18  C   UNL     1      -7.783  10.790  21.180  0.00  0.00    +0.000 A 
ATOM     19  C   UNL     1      -7.643   9.450  20.837  0.00  0.00    +0.000 A 
ATOM     20  F   UNL     1      -7.914   8.505  21.747  0.00  0.00    +0.000 F 
ATOM     21  C   UNL     1      -7.202   9.076  19.574  0.00  0.00    +0.000 A 
ATOM     22  C   UNL     1      -6.797  10.057  18.672  0.00  0.00    +0.000 A 
ATOM     23  C   UNL     1      -6.829  11.415  19.039  0.00  0.00    +0.000 A 
ENDBRANCH   9  13
BRANCH   1  25
ATOM     24  C   UNL     1      -1.063  13.691  23.260  0.00  0.00    +0.000 C 
ATOM     25  S   UNL     1      -0.258  13.981  21.712  0.00  0.00    +0.000 S 
ATOM     26  O   UNL     1      -0.826  15.199  21.168  0.00  0.00    +0.000 OA
ATOM     27  O   UNL     1       1.170  13.900  21.963  0.00  0.00    +0.000 OA
ENDBRANCH   1  25
TORSDOF 2
ENDMDL
MODEL 2
REMARK VINA RESULT:      -7.0      3.600      6.691
REMARK  Name = 
REMARK  3 active torsions:
REMARK  status: ('A' for Active; 'I' for Inactive)
REMARK    1  A    between atoms: C_1  and  S_2
REMARK    2  A    between atoms: S_2  and  C_5
REMARK    3  A    between atoms: N_13  and  C_14
REMARK                            x       y       z     vdW  Elec       q    Type
REMARK                         _______ _______ _______ _____ _____    ______ ____
ROOT
ATOM      1  C   UNL     1      -5.843  12.755  21.806  0.00  0.00    +0.000 A 
ATOM      2  C   UNL     1      -7.018  12.162  21.355  0.00  0.00    +0.000 A 
ATOM      3  C   UNL     1      -7.103  11.698  20.030  0.00  0.00    +0.000 A 
ATOM      4  C   UNL     1      -6.020  11.756  19.142  0.00  0.00    +0.000 A 
ATOM      5  N   UNL     1      -6.191  11.287  17.902  0.00  0.00    +0.000 NA
ATOM      6  C   UNL     1      -5.120  11.267  17.101  0.00  0.00    +0.000 A 
ATOM      7  N   UNL     1      -3.881  11.609  17.456  0.00  0.00    +0.000 NA
ATOM      8  C   UNL     1      -3.701  12.085  18.685  0.00  0.00    +0.000 A 
ATOM      9  N   UNL     1      -2.410  12.268  19.155  0.00  0.00    +0.000 N 
ATOM     10  C   UNL     1      -4.802  12.251  19.600  0.00  0.00    +0.000 A 
ATOM     11  C   UNL     1      -4.741  12.799  20.929  0.00  0.00    +0.000 A 
ATOM     12  H   UNL     1      -2.299  13.004  19.843  0.00  0.00    +0.000 HD
ENDROOT
BRANCH   9  13
ATOM     13  C   UNL     1      -1.170  11.923  18.440  0.00  0.00    +0.000 C 
ATOM     14  C   UNL     1      -0.810  10.454  18.716  0.00  0.00    +0.000 C 
ATOM     15  C   UNL     1      -0.524  10.209  20.199  0.00  0.00    +0.000 C 
ATOM     16  C   UNL     1       0.616  11.089  20.705  0.00  0.00    +0.000 C 
ATOM     17  C   UNL     1       0.526  12.523  20.246  0.00  0.00    +0.000 A 
ATOM     18  C   UNL     1       1.119  13.536  21.012  0.00  0.00    +0.000 A 
ATOM     19  C   UNL     1       1.101  14.851  20.560  0.00  0.00    +0.000 A 
ATOM     20  F   UNL     1       1.577  15.825  21.348  0.00  0.00    +0.000 F 
ATOM     21  C   UNL     1       0.575  15.175  19.316  0.00  0.00    +0.000 A 
ATOM     22  C   UNL     1      -0.037  14.183  18.553  0.00  0.00    +0.000 A 
ATOM     23  C   UNL     1      -0.125  12.865  19.040  0.00  0.00    +0.000 A 
ENDBRANCH   9  13
BRANCH   1  25
ATOM     24  C   UNL     1      -3.930  12.635  24.061  0.00  0.00    +0.000 C 
ATOM     25  S   UNL     1      -5.591  13.000  23.575  0.00  0.00    +0.000 S 
ATOM     26  O   UNL     1      -6.441  12.032  24.241  0.00  0.00    +0.000 OA
ATOM     27  O   UNL     1      -5.792  14.418  23.809  0.00  0.00    +0.000 OA
ENDBRANCH   1  25
TORSDOF 2
ENDMDL
MODEL 3
REMARK VINA RESULT:      -7.0      3.254      5.014
REMARK  Name = 
REMARK  3 active torsions:
REMARK  status: ('A' for Active; 'I' for Inactive)
REMARK    1  A    between atoms: C_1  and  S_2
REMARK    2  A    between atoms: S_2  and  C_5
REMARK    3  A    between atoms: N_13  and  C_14
REMARK                            x       y       z     vdW  Elec       q    Type
REMARK                         _______ _______ _______ _____ _____    ______ ____
ROOT
ATOM      1  C   UNL     1      -1.248  12.249  20.846  0.00  0.00    +0.000 A 
ATOM      2  C   UNL     1      -0.799  11.786  22.078  0.00  0.00    +0.000 A 
ATOM      3  C   UNL     1      -1.664  11.802  23.188  0.00  0.00    +0.000 A 
ATOM      4  C   UNL     1      -2.999  12.218  23.095  0.00  0.00    +0.000 A 
ATOM      5  N   UNL     1      -3.749  12.196  24.200  0.00  0.00    +0.000 NA
ATOM      6  C   UNL     1      -5.043  12.507  24.071  0.00  0.00    +0.000 A 
ATOM      7  N   UNL     1      -5.664  12.771  22.921  0.00  0.00    +0.000 NA
ATOM      8  C   UNL     1      -4.926  12.804  21.814  0.00  0.00    +0.000 A 
ATOM      9  N   UNL     1      -5.559  12.883  20.584  0.00  0.00    +0.000 N 
ATOM     10  C   UNL     1      -3.502  12.589  21.850  0.00  0.00    +0.000 A 
ATOM     11  C   UNL     1      -2.595  12.649  20.735  0.00  0.00    +0.000 A 
ATOM     12  H   UNL     1      -5.029  13.342  19.852  0.00  0.00    +0.000 HD
ENDROOT
BRANCH   9  13
ATOM     13  C   UNL     1      -7.013  12.869  20.354  0.00  0.00    +0.000 C 
ATOM     14  C   UNL     1      -7.412  11.553  19.666  0.00  0.00    +0.000 C 
ATOM     15  C   UNL     1      -6.766  11.416  18.286  0.00  0.00    +0.000 C 
ATOM     16  C   UNL     1      -7.145  12.574  17.368  0.00  0.00    +0.000 C 
ATOM     17  C   UNL     1      -7.072  13.926  18.035  0.00  0.00    +0.000 A 
ATOM     18  C   UNL     1      -6.848  15.072  17.259  0.00  0.00    +0.000 A 
ATOM     19  C   UNL     1      -6.849  16.328  17.855  0.00  0.00    +0.000 A 
ATOM     20  F   UNL     1      -6.530  17.405  17.125  0.00  0.00    +0.000 F 
ATOM     21  C   UNL     1      -7.149  16.481  19.203  0.00  0.00    +0.000 A 
ATOM     22  C   UNL     1      -7.353  15.351  19.992  0.00  0.00    +0.000 A 
ATOM     23  C   UNL     1      -7.250  14.065  19.429  0.00  0.00    +0.000 A 
ENDBRANCH   9  13
BRANCH   1  25
ATOM     24  C   UNL     1       1.407  12.320  19.539  0.00  0.00    +0.000 C 
ATOM     25  S   UNL     1      -0.297  11.883  19.357  0.00  0.00    +0.000 S 
ATOM     26  O   UNL     1      -0.836  12.737  18.315  0.00  0.00    +0.000 OA
ATOM     27  O   UNL     1      -0.344  10.441  19.204  0.00  0.00    +0.000 OA
ENDBRANCH   1  25
TORSDOF 2
ENDMDL
MODEL 4
REMARK VINA RESULT:      -6.9      2.987      4.863
REMARK  Name = 
REMARK  3 active torsions:
REMARK  status: ('A' for Active; 'I' for Inactive)
REMARK    1  A    between atoms: C_1  and  S_2
REMARK    2  A    between atoms: S_2  and  C_5
REMARK    3  A    between atoms: N_13  and  C_14
REMARK                            x       y       z     vdW  Elec       q    Type
REMARK                         _______ _______ _______ _____ _____    ______ ____
ROOT
ATOM      1  C   UNL     1      -1.055  12.411  20.799  0.00  0.00    +0.000 A 
ATOM      2  C   UNL     1      -0.506  12.047  22.024  0.00  0.00    +0.000 A 
ATOM      3  C   UNL     1      -1.306  12.066  23.181  0.00  0.00    +0.000 A 
ATOM      4  C   UNL     1      -2.670  12.384  23.147  0.00  0.00    +0.000 A 
ATOM      5  N   UNL     1      -3.353  12.372  24.296  0.00  0.00    +0.000 NA
ATOM      6  C   UNL     1      -4.671  12.588  24.228  0.00  0.00    +0.000 A 
ATOM      7  N   UNL     1      -5.373  12.745  23.106  0.00  0.00    +0.000 NA
ATOM      8  C   UNL     1      -4.703  12.768  21.957  0.00  0.00    +0.000 A 
ATOM      9  N   UNL     1      -5.407  12.736  20.764  0.00  0.00    +0.000 N 
ATOM     10  C   UNL     1      -3.267  12.651  21.917  0.00  0.00    +0.000 A 
ATOM     11  C   UNL     1      -2.431  12.712  20.749  0.00  0.00    +0.000 A 
ATOM     12  H   UNL     1      -4.953  13.190  19.979  0.00  0.00    +0.000 HD
ENDROOT
BRANCH   9  13
ATOM     13  C   UNL     1      -6.868  12.612  20.623  0.00  0.00    +0.000 C 
ATOM     14  C   UNL     1      -7.239  11.135  20.410  0.00  0.00    +0.000 C 
ATOM     15  C   UNL     1      -6.641  10.580  19.115  0.00  0.00    +0.000 C 
ATOM     16  C   UNL     1      -7.103  11.375  17.896  0.00  0.00    +0.000 C 
ATOM     17  C   UNL     1      -7.058  12.870  18.094  0.00  0.00    +0.000 A 
ATOM     18  C   UNL     1      -6.912  13.713  16.984  0.00  0.00    +0.000 A 
ATOM     19  C   UNL     1      -6.941  15.093  17.149  0.00  0.00    +0.000 A 
ATOM     20  F   UNL     1      -6.695  15.889  16.099  0.00  0.00    +0.000 F 
ATOM     21  C   UNL     1      -7.194  15.661  18.391  0.00  0.00    +0.000 A 
ATOM     22  C   UNL     1      -7.321  14.838  19.507  0.00  0.00    +0.000 A 
ATOM     23  C   UNL     1      -7.188  13.442  19.378  0.00  0.00    +0.000 A 
ENDBRANCH   9  13
BRANCH   1  25
ATOM     24  C   UNL     1      -0.909  10.689  18.396  0.00  0.00    +0.000 C 
ATOM     25  S   UNL     1      -0.165  12.029  19.276  0.00  0.00    +0.000 S 
ATOM     26  O   UNL     1       1.153  11.581  19.682  0.00  0.00    +0.000 OA
ATOM     27  O   UNL     1      -0.300  13.206  18.437  0.00  0.00    +0.000 OA
ENDBRANCH   1  25
TORSDOF 2
ENDMDL
MODEL 5
REMARK VINA RESULT:      -6.9      3.517      6.699
REMARK  Name = 
REMARK  3 active torsions:
REMARK  status: ('A' for Active; 'I' for Inactive)
REMARK    1  A    between atoms: C_1  and  S_2
REMARK    2  A    between atoms: S_2  and  C_5
REMARK    3  A    between atoms: N_13  and  C_14
REMARK                            x       y       z     vdW  Elec       q    Type
REMARK                         _______ _______ _______ _____ _____    ______ ____
ROOT
ATOM      1  C   UNL     1      -5.930  12.839  21.638  0.00  0.00    +0.000 A 
ATOM      2  C   UNL     1      -7.067  12.199  21.153  0.00  0.00    +0.000 A 
ATOM      3  C   UNL     1      -7.068  11.671  19.850  0.00  0.00    +0.000 A 
ATOM      4  C   UNL     1      -5.939  11.708  19.021  0.00  0.00    +0.000 A 
ATOM      5  N   UNL     1      -6.031  11.177  17.798  0.00  0.00    +0.000 NA
ATOM      6  C   UNL     1      -4.917  11.141  17.060  0.00  0.00    +0.000 A 
ATOM      7  N   UNL     1      -3.706  11.527  17.465  0.00  0.00    +0.000 NA
ATOM      8  C   UNL     1      -3.604  12.065  18.677  0.00  0.00    +0.000 A 
ATOM      9  N   UNL     1      -2.345  12.299  19.207  0.00  0.00    +0.000 N 
ATOM     10  C   UNL     1      -4.757  12.252  19.521  0.00  0.00    +0.000 A 
ATOM     11  C   UNL     1      -4.782  12.864  20.822  0.00  0.00    +0.000 A 
ATOM     12  H   UNL     1      -2.287  13.070  19.863  0.00  0.00    +0.000 HD
ENDROOT
BRANCH   9  13
ATOM     13  C   UNL     1      -1.061  11.947  18.579  0.00  0.00    +0.000 C 
ATOM     14  C   UNL     1      -0.680  10.508  18.964  0.00  0.00    +0.000 C 
ATOM     15  C   UNL     1      -0.466  10.361  20.472  0.00  0.00    +0.000 C 
ATOM     16  C   UNL     1       0.623  11.301  20.981  0.00  0.00    +0.000 C 
ATOM     17  C   UNL     1       0.521  12.702  20.430  0.00  0.00    +0.000 A 
ATOM     18  C   UNL     1       1.047  13.776  21.162  0.00  0.00    +0.000 A 
ATOM     19  C   UNL     1       1.021  15.060  20.630  0.00  0.00    +0.000 A 
ATOM     20  F   UNL     1       1.429  16.093  21.380  0.00  0.00    +0.000 F 
ATOM     21  C   UNL     1       0.553  15.294  19.343  0.00  0.00    +0.000 A 
ATOM     22  C   UNL     1       0.008  14.241  18.612  0.00  0.00    +0.000 A 
ATOM     23  C   UNL     1      -0.073  12.953  19.174  0.00  0.00    +0.000 A 
ENDBRANCH   9  13
BRANCH   1  25
ATOM     24  C   UNL     1      -7.353  13.141  24.216  0.00  0.00    +0.000 C 
ATOM     25  S   UNL     1      -5.782  13.175  23.404  0.00  0.00    +0.000 S 
ATOM     26  O   UNL     1      -5.284  14.533  23.516  0.00  0.00    +0.000 OA
ATOM     27  O   UNL     1      -5.007  12.075  23.950  0.00  0.00    +0.000 OA
ENDBRANCH   1  25
TORSDOF 2
ENDMDL
MODEL 6
REMARK VINA RESULT:      -6.9      4.053      7.161
REMARK  Name = 
REMARK  3 active torsions:
REMARK  status: ('A' for Active; 'I' for Inactive)
REMARK    1  A    between atoms: C_1  and  S_2
REMARK    2  A    between atoms: S_2  and  C_5
REMARK    3  A    between atoms: N_13  and  C_14
REMARK                            x       y       z     vdW  Elec       q    Type
REMARK                         _______ _______ _______ _____ _____    ______ ____
ROOT
ATOM      1  C   UNL     1      -6.458  12.422  19.877  0.00  0.00    +0.000 A 
ATOM      2  C   UNL     1      -7.408  13.365  20.254  0.00  0.00    +0.000 A 
ATOM      3  C   UNL     1      -7.196  14.150  21.403  0.00  0.00    +0.000 A 
ATOM      4  C   UNL     1      -6.024  14.064  22.166  0.00  0.00    +0.000 A 
ATOM      5  N   UNL     1      -5.907  14.851  23.240  0.00  0.00    +0.000 NA
ATOM      6  C   UNL     1      -4.744  14.820  23.899  0.00  0.00    +0.000 A 
ATOM      7  N   UNL     1      -3.668  14.121  23.538  0.00  0.00    +0.000 NA
ATOM      8  C   UNL     1      -3.775  13.327  22.477  0.00  0.00    +0.000 A 
ATOM      9  N   UNL     1      -2.634  12.737  21.958  0.00  0.00    +0.000 N 
ATOM     10  C   UNL     1      -5.013  13.200  21.750  0.00  0.00    +0.000 A 
ATOM     11  C   UNL     1      -5.267  12.341  20.625  0.00  0.00    +0.000 A 
ATOM     12  H   UNL     1      -2.778  11.848  21.492  0.00  0.00    +0.000 HD
ENDROOT
BRANCH   9  13
ATOM     13  C   UNL     1      -1.256  12.950  22.430  0.00  0.00    +0.000 C 
ATOM     14  C   UNL     1      -0.580  14.032  21.572  0.00  0.00    +0.000 C 
ATOM     15  C   UNL     1      -0.463  13.604  20.108  0.00  0.00    +0.000 C 
ATOM     16  C   UNL     1       0.330  12.308  19.962  0.00  0.00    +0.000 C 
ATOM     17  C   UNL     1      -0.052  11.246  20.964  0.00  0.00    +0.000 A 
ATOM     18  C   UNL     1       0.146   9.894  20.654  0.00  0.00    +0.000 A 
ATOM     19  C   UNL     1      -0.137   8.914  21.598  0.00  0.00    +0.000 A 
ATOM     20  F   UNL     1      -0.045   7.622  21.256  0.00  0.00    +0.000 F 
ATOM     21  C   UNL     1      -0.540   9.252  22.884  0.00  0.00    +0.000 A 
ATOM     22  C   UNL     1      -0.762  10.590  23.202  0.00  0.00    +0.000 A 
ATOM     23  C   UNL     1      -0.584  11.590  22.227  0.00  0.00    +0.000 A 
ENDBRANCH   9  13
BRANCH   1  25
ATOM     24  C   UNL     1      -4.939  11.625  17.465  0.00  0.00    +0.000 C 
ATOM     25  S   UNL     1      -6.532  11.694  18.228  0.00  0.00    +0.000 S 
ATOM     26  O   UNL     1      -7.339  12.594  17.426  0.00  0.00    +0.000 OA
ATOM     27  O   UNL     1      -6.961  10.321  18.423  0.00  0.00    +0.000 OA
ENDBRANCH   1  25
TORSDOF 2
ENDMDL
MODEL 7
REMARK VINA RESULT:      -6.8      3.565      6.855
REMARK  Name = 
REMARK  3 active torsions:
REMARK  status: ('A' for Active; 'I' for Inactive)
REMARK    1  A    between atoms: C_1  and  S_2
REMARK    2  A    between atoms: S_2  and  C_5
REMARK    3  A    between atoms: N_13  and  C_14
REMARK                            x       y       z     vdW  Elec       q    Type
REMARK                         _______ _______ _______ _____ _____    ______ ____
ROOT
ATOM      1  C   UNL     1      -5.743  12.341  19.932  0.00  0.00    +0.000 A 
ATOM      2  C   UNL     1      -6.679  11.876  19.013  0.00  0.00    +0.000 A 
ATOM      3  C   UNL     1      -6.259  11.462  17.737  0.00  0.00    +0.000 A 
ATOM      4  C   UNL     1      -4.910  11.440  17.359  0.00  0.00    +0.000 A 
ATOM      5  N   UNL     1      -4.602  11.026  16.126  0.00  0.00    +0.000 NA
ATOM      6  C   UNL     1      -3.305  10.926  15.818  0.00  0.00    +0.000 A 
ATOM      7  N   UNL     1      -2.291  11.137  16.658  0.00  0.00    +0.000 NA
ATOM      8  C   UNL     1      -2.585  11.557  17.885  0.00  0.00    +0.000 A 
ATOM      9  N   UNL     1      -1.582  11.602  18.840  0.00  0.00    +0.000 N 
ATOM     10  C   UNL     1      -3.944  11.802  18.295  0.00  0.00    +0.000 A 
ATOM     11  C   UNL     1      -4.381  12.303  19.571  0.00  0.00    +0.000 A 
ATOM     12  H   UNL     1      -1.701  12.304  19.562  0.00  0.00    +0.000 HD
ENDROOT
BRANCH   9  13
ATOM     13  C   UNL     1      -0.189  11.160  18.657  0.00  0.00    +0.000 C 
ATOM     14  C   UNL     1       0.045   9.862  19.449  0.00  0.00    +0.000 C 
ATOM     15  C   UNL     1      -0.135  10.074  20.953  0.00  0.00    +0.000 C 
ATOM     16  C   UNL     1       0.812  11.144  21.488  0.00  0.00    +0.000 C 
ATOM     17  C   UNL     1       0.889  12.376  20.621  0.00  0.00    +0.000 A 
ATOM     18  C   UNL     1       1.239  13.607  21.192  0.00  0.00    +0.000 A 
ATOM     19  C   UNL     1       1.381  14.733  20.388  0.00  0.00    +0.000 A 
ATOM     20  F   UNL     1       1.612  15.924  20.956  0.00  0.00    +0.000 F 
ATOM     21  C   UNL     1       1.262  14.647  19.007  0.00  0.00    +0.000 A 
ATOM     22  C   UNL     1       0.894  13.436  18.426  0.00  0.00    +0.000 A 
ATOM     23  C   UNL     1       0.640  12.310  19.232  0.00  0.00    +0.000 A 
ENDBRANCH   9  13
BRANCH   1  25
ATOM     24  C   UNL     1      -6.886  14.103  22.017  0.00  0.00    +0.000 C 
ATOM     25  S   UNL     1      -6.206  12.509  21.668  0.00  0.00    +0.000 S 
ATOM     26  O   UNL     1      -4.973  12.406  22.425  0.00  0.00    +0.000 OA
ATOM     27  O   UNL     1      -7.268  11.544  21.886  0.00  0.00    +0.000 OA
ENDBRANCH   1  25
TORSDOF 2
ENDMDL
MODEL 8
REMARK VINA RESULT:      -6.8      1.076      1.234
REMARK  Name = 
REMARK  3 active torsions:
REMARK  status: ('A' for Active; 'I' for Inactive)
REMARK    1  A    between atoms: C_1  and  S_2
REMARK    2  A    between atoms: S_2  and  C_5
REMARK    3  A    between atoms: N_13  and  C_14
REMARK                            x       y       z     vdW  Elec       q    Type
REMARK                         _______ _______ _______ _____ _____    ______ ____
ROOT
ATOM      1  C   UNL     1      -0.933  13.334  21.495  0.00  0.00    +0.000 A 
ATOM      2  C   UNL     1       0.232  12.908  20.865  0.00  0.00    +0.000 A 
ATOM      3  C   UNL     1       0.149  12.074  19.735  0.00  0.00    +0.000 A 
ATOM      4  C   UNL     1      -1.076  11.691  19.170  0.00  0.00    +0.000 A 
ATOM      5  N   UNL     1      -1.058  10.900  18.094  0.00  0.00    +0.000 NA
ATOM      6  C   UNL     1      -2.232  10.623  17.517  0.00  0.00    +0.000 A 
ATOM      7  N   UNL     1      -3.412  11.125  17.883  0.00  0.00    +0.000 NA
ATOM      8  C   UNL     1      -3.443  11.908  18.958  0.00  0.00    +0.000 A 
ATOM      9  N   UNL     1      -4.606  12.600  19.256  0.00  0.00    +0.000 N 
ATOM     10  C   UNL     1      -2.254  12.189  19.722  0.00  0.00    +0.000 A 
ATOM     11  C   UNL     1      -2.169  12.974  20.924  0.00  0.00    +0.000 A 
ATOM     12  H   UNL     1      -4.755  12.797  20.239  0.00  0.00    +0.000 HD
ENDROOT
BRANCH   9  13
ATOM     13  C   UNL     1      -5.837  12.615  18.448  0.00  0.00    +0.000 C 
ATOM     14  C   UNL     1      -6.513  13.991  18.568  0.00  0.00    +0.000 C 
ATOM     15  C   UNL     1      -6.948  14.287  20.004  0.00  0.00    +0.000 C 
ATOM     16  C   UNL     1      -7.913  13.228  20.530  0.00  0.00    +0.000 C 
ATOM     17  C   UNL     1      -7.494  11.813  20.212  0.00  0.00    +0.000 A 
ATOM     18  C   UNL     1      -7.917  10.762  21.036  0.00  0.00    +0.000 A 
ATOM     19  C   UNL     1      -7.595   9.449  20.711  0.00  0.00    +0.000 A 
ATOM     20  F   UNL     1      -7.912   8.462  21.560  0.00  0.00    +0.000 F 
ATOM     21  C   UNL     1      -6.926   9.146  19.532  0.00  0.00    +0.000 A 
ATOM     22  C   UNL     1      -6.481  10.181  18.712  0.00  0.00    +0.000 A 
ATOM     23  C   UNL     1      -6.703  11.522  19.078  0.00  0.00    +0.000 A 
ENDBRANCH   9  13
BRANCH   1  25
ATOM     24  C   UNL     1      -1.499  16.193  22.017  0.00  0.00    +0.000 C 
ATOM     25  S   UNL     1      -0.856  14.688  22.686  0.00  0.00    +0.000 S 
ATOM     26  O   UNL     1       0.553  14.916  22.946  0.00  0.00    +0.000 OA
ATOM     27  O   UNL     1      -1.736  14.305  23.775  0.00  0.00    +0.000 OA
ENDBRANCH   1  25
TORSDOF 2
ENDMDL
MODEL 9
REMARK VINA RESULT:      -6.7      3.289      5.108
REMARK  Name = 
REMARK  3 active torsions:
REMARK  status: ('A' for Active; 'I' for Inactive)
REMARK    1  A    between atoms: C_1  and  S_2
REMARK    2  A    between atoms: S_2  and  C_5
REMARK    3  A    between atoms: N_13  and  C_14
REMARK                            x       y       z     vdW  Elec       q    Type
REMARK                         _______ _______ _______ _____ _____    ______ ____
ROOT
ATOM      1  C   UNL     1      -1.549  12.746  22.187  0.00  0.00    +0.000 A 
ATOM      2  C   UNL     1      -1.259  13.424  23.367  0.00  0.00    +0.000 A 
ATOM      3  C   UNL     1      -2.238  14.241  23.962  0.00  0.00    +0.000 A 
ATOM      4  C   UNL     1      -3.534  14.361  23.442  0.00  0.00    +0.000 A 
ATOM      5  N   UNL     1      -4.401  15.156  24.076  0.00  0.00    +0.000 NA
ATOM      6  C   UNL     1      -5.656  15.184  23.618  0.00  0.00    +0.000 A 
ATOM      7  N   UNL     1      -6.136  14.433  22.626  0.00  0.00    +0.000 NA
ATOM      8  C   UNL     1      -5.280  13.643  21.982  0.00  0.00    +0.000 A 
ATOM      9  N   UNL     1      -5.770  12.712  21.080  0.00  0.00    +0.000 N 
ATOM     10  C   UNL     1      -3.880  13.611  22.320  0.00  0.00    +0.000 A 
ATOM     11  C   UNL     1      -2.855  12.842  21.668  0.00  0.00    +0.000 A 
ATOM     12  H   UNL     1      -5.143  12.471  20.321  0.00  0.00    +0.000 HD
ENDROOT
BRANCH   9  13
ATOM     13  C   UNL     1      -7.190  12.447  20.792  0.00  0.00    +0.000 C 
ATOM     14  C   UNL     1      -7.410  10.932  20.650  0.00  0.00    +0.000 C 
ATOM     15  C   UNL     1      -6.626  10.353  19.472  0.00  0.00    +0.000 C 
ATOM     16  C   UNL     1      -7.011  11.022  18.155  0.00  0.00    +0.000 C 
ATOM     17  C   UNL     1      -7.113  12.525  18.245  0.00  0.00    +0.000 A 
ATOM     18  C   UNL     1      -6.913  13.305  17.099  0.00  0.00    +0.000 A 
ATOM     19  C   UNL     1      -7.074  14.684  17.157  0.00  0.00    +0.000 A 
ATOM     20  F   UNL     1      -6.778  15.429  16.084  0.00  0.00    +0.000 F 
ATOM     21  C   UNL     1      -7.514  15.305  18.320  0.00  0.00    +0.000 A 
ATOM     22  C   UNL     1      -7.697  14.547  19.473  0.00  0.00    +0.000 A 
ATOM     23  C   UNL     1      -7.435  13.164  19.463  0.00  0.00    +0.000 A 
ENDBRANCH   9  13
BRANCH   1  25
ATOM     24  C   UNL     1      -0.455  10.055  22.755  0.00  0.00    +0.000 C 
ATOM     25  S   UNL     1      -0.458  11.420  21.632  0.00  0.00    +0.000 S 
ATOM     26  O   UNL     1       0.884  11.971  21.642  0.00  0.00    +0.000 OA
ATOM     27  O   UNL     1      -1.029  10.936  20.388  0.00  0.00    +0.000 OA
ENDBRANCH   1  25
TORSDOF 2
ENDMDL
