MODEL 1
REMARK VINA RESULT:      -8.0      0.000      0.000
REMARK  Name = 
REMARK  4 active torsions:
REMARK  status: ('A' for Active; 'I' for Inactive)
REMARK    1  A    between atoms: C_2  and  C_18
REMARK    2  A    between atoms: N_3  and  C_4
REMARK    3  A    between atoms: C_9  and  C_10
REMARK    4  A    between atoms: C_23  and  C_24
REMARK                            x       y       z     vdW  Elec       q    Type
REMARK                         _______ _______ _______ _____ _____    ______ ____
ROOT
ATOM      1  C   UNL     1       1.031   9.402  17.934  0.00  0.00    +0.000 A 
ATOM      2  C   UNL     1       1.407  10.492  18.728  0.00  0.00    +0.000 A 
ATOM      3  C   UNL     1       0.490  11.444  19.176  0.00  0.00    +0.000 A 
ATOM      4  C   UNL     1      -0.825  11.262  18.774  0.00  0.00    +0.000 A 
ATOM      5  N   UNL     1      -1.968  11.948  19.070  0.00  0.00    +0.000 N 
ATOM      6  C   UNL     1      -3.010  11.375  18.391  0.00  0.00    +0.000 A 
ATOM      7  N   UNL     1      -2.595  10.339  17.685  0.00  0.00    +0.000 NA
ATOM      8  C   UNL     1      -1.240  10.242  17.929  0.00  0.00    +0.000 A 
ATOM      9  C   UNL     1      -0.295   9.300  17.479  0.00  0.00    +0.000 A 
ATOM     10  H   UNL     1      -2.063  12.733  19.700  0.00  0.00    +0.000 HD
ENDROOT
BRANCH   6  11
ATOM     11  C   UNL     1      -4.391  11.920  18.510  0.00  0.00    +0.000 C 
ATOM     12  C   UNL     1      -4.756  12.300  19.930  0.00  0.00    +0.000 C 
ATOM     13  C   UNL     1      -6.245  12.065  19.949  0.00  0.00    +0.000 C 
ATOM     14  C   UNL     1      -6.396  10.850  19.062  0.00  0.00    +0.000 C 
ATOM     15  O   UNL     1      -5.320  10.881  18.113  0.00  0.00    +0.000 OA
ENDBRANCH   6  11
BRANCH   1  18
ATOM     16  O   UNL     1       2.200   7.321  19.651  0.00  0.00    +0.000 OA
ATOM     17  C   UNL     1       2.484   7.451  18.463  0.00  0.00    +0.000 C 
ATOM     18  N   UNL     1       1.944   8.370  17.580  0.00  0.00    +0.000 N 
ATOM     19  H   UNL     1       2.161   8.292  16.599  0.00  0.00    +0.000 HD
BRANCH  17  20
ATOM     20  C   UNL     1       3.439   6.455  17.919  0.00  0.00    +0.000 A 
ATOM     21  C   UNL     1       4.673   6.993  17.497  0.00  0.00    +0.000 A 
ATOM     22  C   UNL     1       5.643   6.194  16.896  0.00  0.00    +0.000 A 
ATOM     23  C   UNL     1       5.401   4.839  16.731  0.00  0.00    +0.000 A 
ATOM     24  C   UNL     1       4.180   4.297  17.135  0.00  0.00    +0.000 A 
ATOM     25  C   UNL     1       3.163   5.097  17.704  0.00  0.00    +0.000 A 
BRANCH  25  26
ATOM     26  C   UNL     1       1.841   4.423  17.964  0.00  0.00    +0.000 C 
ATOM     27  F   UNL     1       1.363   4.503  19.229  0.00  0.00    +0.000 F 
ATOM     28  F   UNL     1       0.849   4.922  17.174  0.00  0.00    +0.000 F 
ATOM     29  F   UNL     1       1.900   3.090  17.681  0.00  0.00    +0.000 F 
ENDBRANCH  25  26
ENDBRANCH  17  20
ENDBRANCH   1  18
TORSDOF 4
ENDMDL
MODEL 2
REMARK VINA RESULT:      -7.9      2.604      3.231
REMARK  Name = 
REMARK  4 active torsions:
REMARK  status: ('A' for Active; 'I' for Inactive)
REMARK    1  A    between atoms: C_2  and  C_18
REMARK    2  A    between atoms: N_3  and  C_4
REMARK    3  A    between atoms: C_9  and  C_10
REMARK    4  A    between atoms: C_23  and  C_24
REMARK                            x       y       z     vdW  Elec       q    Type
REMARK                         _______ _______ _______ _____ _____    ______ ____
ROOT
ATOM      1  C   UNL     1       1.300   8.829  18.584  0.00  0.00    +0.000 A 
ATOM      2  C   UNL     1       0.453   9.653  17.833  0.00  0.00    +0.000 A 
ATOM      3  C   UNL     1      -0.393  10.594  18.424  0.00  0.00    +0.000 A 
ATOM      4  C   UNL     1      -0.366  10.656  19.808  0.00  0.00    +0.000 A 
ATOM      5  N   UNL     1      -1.001  11.481  20.693  0.00  0.00    +0.000 N 
ATOM      6  C   UNL     1      -0.652  11.110  21.965  0.00  0.00    +0.000 A 
ATOM      7  N   UNL     1       0.194  10.096  21.940  0.00  0.00    +0.000 NA
ATOM      8  C   UNL     1       0.398   9.815  20.605  0.00  0.00    +0.000 A 
ATOM      9  C   UNL     1       1.237   8.865  19.988  0.00  0.00    +0.000 A 
ATOM     10  H   UNL     1      -1.609  12.258  20.474  0.00  0.00    +0.000 HD
ENDROOT
BRANCH   6  11
ATOM     11  C   UNL     1      -1.202  11.827  23.147  0.00  0.00    +0.000 C 
ATOM     12  C   UNL     1      -2.668  12.181  22.994  0.00  0.00    +0.000 C 
ATOM     13  C   UNL     1      -2.776  13.445  23.809  0.00  0.00    +0.000 C 
ATOM     14  C   UNL     1      -1.448  14.119  23.546  0.00  0.00    +0.000 C 
ATOM     15  O   UNL     1      -0.491  13.083  23.283  0.00  0.00    +0.000 OA
ENDBRANCH   6  11
BRANCH   1  18
ATOM     16  O   UNL     1       2.580   6.439  19.719  0.00  0.00    +0.000 OA
ATOM     17  C   UNL     1       2.838   6.873  18.599  0.00  0.00    +0.000 C 
ATOM     18  N   UNL     1       2.246   7.958  17.977  0.00  0.00    +0.000 N 
ATOM     19  H   UNL     1       2.448   8.136  17.006  0.00  0.00    +0.000 HD
BRANCH  17  20
ATOM     20  C   UNL     1       3.821   6.085  17.818  0.00  0.00    +0.000 A 
ATOM     21  C   UNL     1       4.953   6.812  17.394  0.00  0.00    +0.000 A 
ATOM     22  C   UNL     1       5.929   6.229  16.588  0.00  0.00    +0.000 A 
ATOM     23  C   UNL     1       5.797   4.900  16.215  0.00  0.00    +0.000 A 
ATOM     24  C   UNL     1       4.677   4.173  16.619  0.00  0.00    +0.000 A 
ATOM     25  C   UNL     1       3.651   4.757  17.398  0.00  0.00    +0.000 A 
BRANCH  25  26
ATOM     26  C   UNL     1       2.428   3.913  17.646  0.00  0.00    +0.000 C 
ATOM     27  F   UNL     1       2.367   2.734  16.982  0.00  0.00    +0.000 F 
ATOM     28  F   UNL     1       2.290   3.590  18.963  0.00  0.00    +0.000 F 
ATOM     29  F   UNL     1       1.289   4.580  17.309  0.00  0.00    +0.000 F 
ENDBRANCH  25  26
ENDBRANCH  17  20
ENDBRANCH   1  18
TORSDOF 4
ENDMDL
MODEL 3
REMARK VINA RESULT:      -7.9      3.335      3.961
REMARK  Name = 
REMARK  4 active torsions:
REMARK  status: ('A' for Active; 'I' for Inactive)
REMARK    1  A    between atoms: C_2  and  C_18
REMARK    2  A    between atoms: N_3  and  C_4
REMARK    3  A    between atoms: C_9  and  C_10
REMARK    4  A    between atoms: C_23  and  C_24
REMARK                            x       y       z     vdW  Elec       q    Type
REMARK                         _______ _______ _______ _____ _____    ______ ____
ROOT
ATOM      1  C   UNL     1       1.411   8.358  20.686  0.00  0.00    +0.000 A 
ATOM      2  C   UNL     1       1.315   9.208  19.578  0.00  0.00    +0.000 A 
ATOM      3  C   UNL     1       0.710  10.465  19.649  0.00  0.00    +0.000 A 
ATOM      4  C   UNL     1       0.187  10.823  20.882  0.00  0.00    +0.000 A 
ATOM      5  N   UNL     1      -0.404  11.975  21.318  0.00  0.00    +0.000 N 
ATOM      6  C   UNL     1      -0.771  11.810  22.627  0.00  0.00    +0.000 A 
ATOM      7  N   UNL     1      -0.426  10.611  23.061  0.00  0.00    +0.000 NA
ATOM      8  C   UNL     1       0.190   9.992  21.993  0.00  0.00    +0.000 A 
ATOM      9  C   UNL     1       0.795   8.723  21.896  0.00  0.00    +0.000 A 
ATOM     10  H   UNL     1      -0.538  12.828  20.793  0.00  0.00    +0.000 HD
ENDROOT
BRANCH   6  11
ATOM     11  C   UNL     1      -1.453  12.903  23.372  0.00  0.00    +0.000 C 
ATOM     12  C   UNL     1      -2.727  13.371  22.699  0.00  0.00    +0.000 C 
ATOM     13  C   UNL     1      -2.786  14.821  23.106  0.00  0.00    +0.000 C 
ATOM     14  C   UNL     1      -1.329  15.223  23.103  0.00  0.00    +0.000 C 
ATOM     15  O   UNL     1      -0.565  14.047  23.406  0.00  0.00    +0.000 OA
ENDBRANCH   6  11
BRANCH   1  18
ATOM     16  O   UNL     1       2.012   6.670  18.356  0.00  0.00    +0.000 OA
ATOM     17  C   UNL     1       2.334   6.372  19.504  0.00  0.00    +0.000 C 
ATOM     18  N   UNL     1       2.131   7.133  20.643  0.00  0.00    +0.000 N 
ATOM     19  H   UNL     1       2.558   6.841  21.507  0.00  0.00    +0.000 HD
BRANCH  17  20
ATOM     20  C   UNL     1       3.094   5.107  19.649  0.00  0.00    +0.000 A 
ATOM     21  C   UNL     1       4.437   5.176  19.222  0.00  0.00    +0.000 A 
ATOM     22  C   UNL     1       5.257   4.050  19.228  0.00  0.00    +0.000 A 
ATOM     23  C   UNL     1       4.750   2.842  19.683  0.00  0.00    +0.000 A 
ATOM     24  C   UNL     1       3.420   2.759  20.098  0.00  0.00    +0.000 A 
ATOM     25  C   UNL     1       2.556   3.878  20.057  0.00  0.00    +0.000 A 
BRANCH  25  26
ATOM     26  C   UNL     1       1.110   3.625  20.393  0.00  0.00    +0.000 C 
ATOM     27  F   UNL     1       0.332   4.720  20.566  0.00  0.00    +0.000 F 
ATOM     28  F   UNL     1       0.483   2.890  19.431  0.00  0.00    +0.000 F 
ATOM     29  F   UNL     1       0.986   2.905  21.544  0.00  0.00    +0.000 F 
ENDBRANCH  25  26
ENDBRANCH  17  20
ENDBRANCH   1  18
TORSDOF 4
ENDMDL
MODEL 4
REMARK VINA RESULT:      -7.8      2.085      2.831
REMARK  Name = 
REMARK  4 active torsions:
REMARK  status: ('A' for Active; 'I' for Inactive)
REMARK    1  A    between atoms: C_2  and  C_18
REMARK    2  A    between atoms: N_3  and  C_4
REMARK    3  A    between atoms: C_9  and  C_10
REMARK    4  A    between atoms: C_23  and  C_24
REMARK                            x       y       z     vdW  Elec       q    Type
REMARK                         _______ _______ _______ _____ _____    ______ ____
ROOT
ATOM      1  C   UNL     1       2.122   7.816  18.982  0.00  0.00    +0.000 A 
ATOM      2  C   UNL     1       1.883   7.410  20.300  0.00  0.00    +0.000 A 
ATOM      3  C   UNL     1       1.088   8.149  21.178  0.00  0.00    +0.000 A 
ATOM      4  C   UNL     1       0.558   9.329  20.677  0.00  0.00    +0.000 A 
ATOM      5  N   UNL     1      -0.295  10.245  21.224  0.00  0.00    +0.000 N 
ATOM      6  C   UNL     1      -0.492  11.254  20.318  0.00  0.00    +0.000 A 
ATOM      7  N   UNL     1       0.179  11.019  19.205  0.00  0.00    +0.000 NA
ATOM      8  C   UNL     1       0.821   9.815  19.404  0.00  0.00    +0.000 A 
ATOM      9  C   UNL     1       1.636   9.058  18.539  0.00  0.00    +0.000 A 
ATOM     10  H   UNL     1      -0.739  10.200  22.130  0.00  0.00    +0.000 HD
ENDROOT
BRANCH   6  11
ATOM     11  C   UNL     1      -1.372  12.410  20.642  0.00  0.00    +0.000 C 
ATOM     12  C   UNL     1      -2.033  12.286  22.000  0.00  0.00    +0.000 C 
ATOM     13  C   UNL     1      -3.329  13.027  21.790  0.00  0.00    +0.000 C 
ATOM     14  C   UNL     1      -3.678  12.678  20.362  0.00  0.00    +0.000 C 
ATOM     15  O   UNL     1      -2.444  12.445  19.668  0.00  0.00    +0.000 OA
ENDBRANCH   6  11
BRANCH   1  18
ATOM     16  O   UNL     1       4.351   5.970  19.496  0.00  0.00    +0.000 OA
ATOM     17  C   UNL     1       3.905   6.190  18.372  0.00  0.00    +0.000 C 
ATOM     18  N   UNL     1       2.832   7.004  18.055  0.00  0.00    +0.000 N 
ATOM     19  H   UNL     1       2.478   7.000  17.111  0.00  0.00    +0.000 HD
BRANCH  17  20
ATOM     20  C   UNL     1       4.539   5.427  17.270  0.00  0.00    +0.000 A 
ATOM     21  C   UNL     1       5.086   6.223  16.242  0.00  0.00    +0.000 A 
ATOM     22  C   UNL     1       5.650   5.650  15.104  0.00  0.00    +0.000 A 
ATOM     23  C   UNL     1       5.694   4.269  14.990  0.00  0.00    +0.000 A 
ATOM     24  C   UNL     1       5.147   3.470  15.995  0.00  0.00    +0.000 A 
ATOM     25  C   UNL     1       4.529   4.031  17.137  0.00  0.00    +0.000 A 
BRANCH  25  26
ATOM     26  C   UNL     1       3.849   3.068  18.076  0.00  0.00    +0.000 C 
ATOM     27  F   UNL     1       2.565   3.351  18.402  0.00  0.00    +0.000 F 
ATOM     28  F   UNL     1       3.821   1.801  17.576  0.00  0.00    +0.000 F 
ATOM     29  F   UNL     1       4.515   2.980  19.262  0.00  0.00    +0.000 F 
ENDBRANCH  25  26
ENDBRANCH  17  20
ENDBRANCH   1  18
TORSDOF 4
ENDMDL
MODEL 5
REMARK VINA RESULT:      -7.8      3.085      3.594
REMARK  Name = 
REMARK  4 active torsions:
REMARK  status: ('A' for Active; 'I' for Inactive)
REMARK    1  A    between atoms: C_2  and  C_18
REMARK    2  A    between atoms: N_3  and  C_4
REMARK    3  A    between atoms: C_9  and  C_10
REMARK    4  A    between atoms: C_23  and  C_24
REMARK                            x       y       z     vdW  Elec       q    Type
REMARK                         _______ _______ _______ _____ _____    ______ ____
ROOT
ATOM      1  C   UNL     1       1.364   8.487  20.520  0.00  0.00    +0.000 A 
ATOM      2  C   UNL     1       1.145   9.324  19.419  0.00  0.00    +0.000 A 
ATOM      3  C   UNL     1       0.477  10.545  19.529  0.00  0.00    +0.000 A 
ATOM      4  C   UNL     1       0.021  10.881  20.794  0.00  0.00    +0.000 A 
ATOM      5  N   UNL     1      -0.602  12.001  21.268  0.00  0.00    +0.000 N 
ATOM      6  C   UNL     1      -0.869  11.822  22.600  0.00  0.00    +0.000 A 
ATOM      7  N   UNL     1      -0.429  10.647  23.011  0.00  0.00    +0.000 NA
ATOM      8  C   UNL     1       0.146  10.057  21.904  0.00  0.00    +0.000 A 
ATOM      9  C   UNL     1       0.813   8.824  21.768  0.00  0.00    +0.000 A 
ATOM     10  H   UNL     1      -0.819  12.842  20.752  0.00  0.00    +0.000 HD
ENDROOT
BRANCH   6  11
ATOM     11  C   UNL     1      -1.559  12.880  23.388  0.00  0.00    +0.000 C 
ATOM     12  C   UNL     1      -3.045  12.627  23.542  0.00  0.00    +0.000 C 
ATOM     13  C   UNL     1      -3.597  14.027  23.628  0.00  0.00    +0.000 C 
ATOM     14  C   UNL     1      -2.704  14.791  22.676  0.00  0.00    +0.000 C 
ATOM     15  O   UNL     1      -1.430  14.132  22.670  0.00  0.00    +0.000 OA
ENDBRANCH   6  11
BRANCH   1  18
ATOM     16  O   UNL     1       2.212   7.032  18.110  0.00  0.00    +0.000 OA
ATOM     17  C   UNL     1       2.467   6.652  19.250  0.00  0.00    +0.000 C 
ATOM     18  N   UNL     1       2.147   7.303  20.429  0.00  0.00    +0.000 N 
ATOM     19  H   UNL     1       2.526   6.958  21.296  0.00  0.00    +0.000 HD
BRANCH  17  20
ATOM     20  C   UNL     1       3.278   5.414  19.346  0.00  0.00    +0.000 A 
ATOM     21  C   UNL     1       4.664   5.605  19.167  0.00  0.00    +0.000 A 
ATOM     22  C   UNL     1       5.548   4.528  19.156  0.00  0.00    +0.000 A 
ATOM     23  C   UNL     1       5.058   3.245  19.348  0.00  0.00    +0.000 A 
ATOM     24  C   UNL     1       3.687   3.042  19.517  0.00  0.00    +0.000 A 
ATOM     25  C   UNL     1       2.767   4.116  19.485  0.00  0.00    +0.000 A 
BRANCH  25  26
ATOM     26  C   UNL     1       1.306   3.752  19.532  0.00  0.00    +0.000 C 
ATOM     27  F   UNL     1       1.016   2.467  19.845  0.00  0.00    +0.000 F 
ATOM     28  F   UNL     1       0.622   4.505  20.440  0.00  0.00    +0.000 F 
ATOM     29  F   UNL     1       0.699   3.981  18.334  0.00  0.00    +0.000 F 
ENDBRANCH  25  26
ENDBRANCH  17  20
ENDBRANCH   1  18
TORSDOF 4
ENDMDL
MODEL 6
REMARK VINA RESULT:      -7.7      3.141      3.728
REMARK  Name = 
REMARK  4 active torsions:
REMARK  status: ('A' for Active; 'I' for Inactive)
REMARK    1  A    between atoms: C_2  and  C_18
REMARK    2  A    between atoms: N_3  and  C_4
REMARK    3  A    between atoms: C_9  and  C_10
REMARK    4  A    between atoms: C_23  and  C_24
REMARK                            x       y       z     vdW  Elec       q    Type
REMARK                         _______ _______ _______ _____ _____    ______ ____
ROOT
ATOM      1  C   UNL     1       1.310   8.554  20.415  0.00  0.00    +0.000 A 
ATOM      2  C   UNL     1       0.991   9.384  19.334  0.00  0.00    +0.000 A 
ATOM      3  C   UNL     1       0.281  10.576  19.490  0.00  0.00    +0.000 A 
ATOM      4  C   UNL     1      -0.111  10.890  20.782  0.00  0.00    +0.000 A 
ATOM      5  N   UNL     1      -0.750  11.982  21.298  0.00  0.00    +0.000 N 
ATOM      6  C   UNL     1      -0.928  11.790  22.642  0.00  0.00    +0.000 A 
ATOM      7  N   UNL     1      -0.416  10.632  23.021  0.00  0.00    +0.000 NA
ATOM      8  C   UNL     1       0.115  10.069  21.879  0.00  0.00    +0.000 A 
ATOM      9  C   UNL     1       0.823   8.865  21.697  0.00  0.00    +0.000 A 
ATOM     10  H   UNL     1      -1.032  12.814  20.800  0.00  0.00    +0.000 HD
ENDROOT
BRANCH   6  11
ATOM     11  C   UNL     1      -1.612  12.816  23.476  0.00  0.00    +0.000 C 
ATOM     12  C   UNL     1      -2.783  13.467  22.769  0.00  0.00    +0.000 C 
ATOM     13  C   UNL     1      -2.793  14.846  23.376  0.00  0.00    +0.000 C 
ATOM     14  C   UNL     1      -1.321  15.135  23.559  0.00  0.00    +0.000 C 
ATOM     15  O   UNL     1      -0.663  13.875  23.753  0.00  0.00    +0.000 OA
ENDBRANCH   6  11
BRANCH   1  18
ATOM     16  O   UNL     1       2.289   7.300  17.944  0.00  0.00    +0.000 OA
ATOM     17  C   UNL     1       2.517   6.848  19.063  0.00  0.00    +0.000 C 
ATOM     18  N   UNL     1       2.134   7.404  20.272  0.00  0.00    +0.000 N 
ATOM     19  H   UNL     1       2.495   7.011  21.126  0.00  0.00    +0.000 HD
BRANCH  17  20
ATOM     20  C   UNL     1       3.364   5.632  19.104  0.00  0.00    +0.000 A 
ATOM     21  C   UNL     1       4.747   5.884  19.226  0.00  0.00    +0.000 A 
ATOM     22  C   UNL     1       5.676   4.846  19.204  0.00  0.00    +0.000 A 
ATOM     23  C   UNL     1       5.232   3.538  19.081  0.00  0.00    +0.000 A 
ATOM     24  C   UNL     1       3.868   3.277  18.949  0.00  0.00    +0.000 A 
ATOM     25  C   UNL     1       2.910   4.317  18.922  0.00  0.00    +0.000 A 
BRANCH  25  26
ATOM     26  C   UNL     1       1.488   3.917  18.629  0.00  0.00    +0.000 C 
ATOM     27  F   UNL     1       0.916   4.484  17.539  0.00  0.00    +0.000 F 
ATOM     28  F   UNL     1       1.364   2.573  18.440  0.00  0.00    +0.000 F 
ATOM     29  F   UNL     1       0.663   4.219  19.671  0.00  0.00    +0.000 F 
ENDBRANCH  25  26
ENDBRANCH  17  20
ENDBRANCH   1  18
TORSDOF 4
ENDMDL
MODEL 7
REMARK VINA RESULT:      -7.7      2.753      3.292
REMARK  Name = 
REMARK  4 active torsions:
REMARK  status: ('A' for Active; 'I' for Inactive)
REMARK    1  A    between atoms: C_2  and  C_18
REMARK    2  A    between atoms: N_3  and  C_4
REMARK    3  A    between atoms: C_9  and  C_10
REMARK    4  A    between atoms: C_23  and  C_24
REMARK                            x       y       z     vdW  Elec       q    Type
REMARK                         _______ _______ _______ _____ _____    ______ ____
ROOT
ATOM      1  C   UNL     1       1.386   8.660  19.598  0.00  0.00    +0.000 A 
ATOM      2  C   UNL     1       0.965   9.645  18.697  0.00  0.00    +0.000 A 
ATOM      3  C   UNL     1       0.173  10.727  19.086  0.00  0.00    +0.000 A 
ATOM      4  C   UNL     1      -0.195  10.766  20.422  0.00  0.00    +0.000 A 
ATOM      5  N   UNL     1      -0.896  11.689  21.145  0.00  0.00    +0.000 N 
ATOM      6  C   UNL     1      -1.009  11.241  22.434  0.00  0.00    +0.000 A 
ATOM      7  N   UNL     1      -0.397  10.079  22.580  0.00  0.00    +0.000 NA
ATOM      8  C   UNL     1       0.133   9.780  21.342  0.00  0.00    +0.000 A 
ATOM      9  C   UNL     1       0.923   8.691  20.925  0.00  0.00    +0.000 A 
ATOM     10  H   UNL     1      -1.258  12.573  20.816  0.00  0.00    +0.000 HD
ENDROOT
BRANCH   6  11
ATOM     11  C   UNL     1      -1.738  12.038  23.458  0.00  0.00    +0.000 C 
ATOM     12  C   UNL     1      -3.169  12.343  23.061  0.00  0.00    +0.000 C 
ATOM     13  C   UNL     1      -3.412  13.665  23.742  0.00  0.00    +0.000 C 
ATOM     14  C   UNL     1      -2.068  14.348  23.622  0.00  0.00    +0.000 C 
ATOM     15  O   UNL     1      -1.071  13.317  23.591  0.00  0.00    +0.000 OA
ENDBRANCH   6  11
BRANCH   1  18
ATOM     16  O   UNL     1       2.723   8.239  17.015  0.00  0.00    +0.000 OA
ATOM     17  C   UNL     1       2.844   7.473  17.967  0.00  0.00    +0.000 C 
ATOM     18  N   UNL     1       2.289   7.627  19.226  0.00  0.00    +0.000 N 
ATOM     19  H   UNL     1       2.569   7.000  19.963  0.00  0.00    +0.000 HD
BRANCH  17  20
ATOM     20  C   UNL     1       3.753   6.321  17.753  0.00  0.00    +0.000 A 
ATOM     21  C   UNL     1       5.074   6.673  17.405  0.00  0.00    +0.000 A 
ATOM     22  C   UNL     1       6.025   5.701  17.100  0.00  0.00    +0.000 A 
ATOM     23  C   UNL     1       5.672   4.362  17.161  0.00  0.00    +0.000 A 
ATOM     24  C   UNL     1       4.365   4.002  17.494  0.00  0.00    +0.000 A 
ATOM     25  C   UNL     1       3.372   4.972  17.762  0.00  0.00    +0.000 A 
BRANCH  25  26
ATOM     26  C   UNL     1       1.969   4.461  17.965  0.00  0.00    +0.000 C 
ATOM     27  F   UNL     1       1.002   5.047  17.220  0.00  0.00    +0.000 F 
ATOM     28  F   UNL     1       1.867   3.128  17.700  0.00  0.00    +0.000 F 
ATOM     29  F   UNL     1       1.570   4.610  19.260  0.00  0.00    +0.000 F 
ENDBRANCH  25  26
ENDBRANCH  17  20
ENDBRANCH   1  18
TORSDOF 4
ENDMDL
MODEL 8
REMARK VINA RESULT:      -7.7      1.870      2.177
REMARK  Name = 
REMARK  4 active torsions:
REMARK  status: ('A' for Active; 'I' for Inactive)
REMARK    1  A    between atoms: C_2  and  C_18
REMARK    2  A    between atoms: N_3  and  C_4
REMARK    3  A    between atoms: C_9  and  C_10
REMARK    4  A    between atoms: C_23  and  C_24
REMARK                            x       y       z     vdW  Elec       q    Type
REMARK                         _______ _______ _______ _____ _____    ______ ____
ROOT
ATOM      1  C   UNL     1       1.570   8.369  20.283  0.00  0.00    +0.000 A 
ATOM      2  C   UNL     1       1.349   8.359  21.665  0.00  0.00    +0.000 A 
ATOM      3  C   UNL     1       0.454   9.232  22.286  0.00  0.00    +0.000 A 
ATOM      4  C   UNL     1      -0.198  10.132  21.456  0.00  0.00    +0.000 A 
ATOM      5  N   UNL     1      -1.163  11.065  21.708  0.00  0.00    +0.000 N 
ATOM      6  C   UNL     1      -1.455  11.719  20.540  0.00  0.00    +0.000 A 
ATOM      7  N   UNL     1      -0.736  11.236  19.543  0.00  0.00    +0.000 NA
ATOM      8  C   UNL     1       0.037  10.234  20.092  0.00  0.00    +0.000 A 
ATOM      9  C   UNL     1       0.953   9.351  19.488  0.00  0.00    +0.000 A 
ATOM     10  H   UNL     1      -1.621  11.246  22.591  0.00  0.00    +0.000 HD
ENDROOT
BRANCH   6  11
ATOM     11  C   UNL     1      -2.471  12.806  20.507  0.00  0.00    +0.000 C 
ATOM     12  C   UNL     1      -3.154  13.017  21.843  0.00  0.00    +0.000 C 
ATOM     13  C   UNL     1      -4.519  13.504  21.428  0.00  0.00    +0.000 C 
ATOM     14  C   UNL     1      -4.783  12.706  20.172  0.00  0.00    +0.000 C 
ATOM     15  O   UNL     1      -3.510  12.423  19.573  0.00  0.00    +0.000 OA
ENDBRANCH   6  11
BRANCH   1  18
ATOM     16  O   UNL     1       2.290   8.181  17.439  0.00  0.00    +0.000 OA
ATOM     17  C   UNL     1       2.646   7.358  18.279  0.00  0.00    +0.000 C 
ATOM     18  N   UNL     1       2.390   7.402  19.639  0.00  0.00    +0.000 N 
ATOM     19  H   UNL     1       2.847   6.738  20.244  0.00  0.00    +0.000 HD
BRANCH  17  20
ATOM     20  C   UNL     1       3.510   6.262  17.777  0.00  0.00    +0.000 A 
ATOM     21  C   UNL     1       4.770   6.680  17.299  0.00  0.00    +0.000 A 
ATOM     22  C   UNL     1       5.664   5.777  16.728  0.00  0.00    +0.000 A 
ATOM     23  C   UNL     1       5.318   4.437  16.649  0.00  0.00    +0.000 A 
ATOM     24  C   UNL     1       4.070   4.012  17.110  0.00  0.00    +0.000 A 
ATOM     25  C   UNL     1       3.129   4.919  17.650  0.00  0.00    +0.000 A 
BRANCH  25  26
ATOM     26  C   UNL     1       1.768   4.362  17.976  0.00  0.00    +0.000 C 
ATOM     27  F   UNL     1       1.328   4.551  19.243  0.00  0.00    +0.000 F 
ATOM     28  F   UNL     1       0.796   4.889  17.178  0.00  0.00    +0.000 F 
ATOM     29  F   UNL     1       1.721   3.015  17.772  0.00  0.00    +0.000 F 
ENDBRANCH  25  26
ENDBRANCH  17  20
ENDBRANCH   1  18
TORSDOF 4
ENDMDL
MODEL 9
REMARK VINA RESULT:      -7.6      2.627      3.392
REMARK  Name = 
REMARK  4 active torsions:
REMARK  status: ('A' for Active; 'I' for Inactive)
REMARK    1  A    between atoms: C_2  and  C_18
REMARK    2  A    between atoms: N_3  and  C_4
REMARK    3  A    between atoms: C_9  and  C_10
REMARK    4  A    between atoms: C_23  and  C_24
REMARK                            x       y       z     vdW  Elec       q    Type
REMARK                         _______ _______ _______ _____ _____    ______ ____
ROOT
ATOM      1  C   UNL     1       1.428   9.327  17.955  0.00  0.00    +0.000 A 
ATOM      2  C   UNL     1       0.032   9.264  17.866  0.00  0.00    +0.000 A 
ATOM      3  C   UNL     1      -0.788  10.348  18.181  0.00  0.00    +0.000 A 
ATOM      4  C   UNL     1      -0.143  11.498  18.611  0.00  0.00    +0.000 A 
ATOM      5  N   UNL     1      -0.616  12.738  18.935  0.00  0.00    +0.000 N 
ATOM      6  C   UNL     1       0.439  13.520  19.326  0.00  0.00    +0.000 A 
ATOM      7  N   UNL     1       1.572  12.846  19.251  0.00  0.00    +0.000 NA
ATOM      8  C   UNL     1       1.230  11.593  18.787  0.00  0.00    +0.000 A 
ATOM      9  C   UNL     1       2.038  10.482  18.474  0.00  0.00    +0.000 A 
ATOM     10  H   UNL     1      -1.572  13.059  18.880  0.00  0.00    +0.000 HD
ENDROOT
BRANCH   6  11
ATOM     11  C   UNL     1       0.226  14.930  19.752  0.00  0.00    +0.000 C 
ATOM     12  C   UNL     1      -1.196  15.205  20.197  0.00  0.00    +0.000 C 
ATOM     13  C   UNL     1      -1.367  16.657  19.832  0.00  0.00    +0.000 C 
ATOM     14  C   UNL     1      -0.576  16.768  18.548  0.00  0.00    +0.000 C 
ATOM     15  O   UNL     1       0.469  15.786  18.608  0.00  0.00    +0.000 OA
ENDBRANCH   6  11
BRANCH   1  18
ATOM     16  O   UNL     1       2.545   7.113  19.534  0.00  0.00    +0.000 OA
ATOM     17  C   UNL     1       2.788   7.278  18.341  0.00  0.00    +0.000 C 
ATOM     18  N   UNL     1       2.265   8.263  17.520  0.00  0.00    +0.000 N 
ATOM     19  H   UNL     1       2.438   8.215  16.529  0.00  0.00    +0.000 HD
BRANCH  17  20
ATOM     20  C   UNL     1       3.662   6.256  17.717  0.00  0.00    +0.000 A 
ATOM     21  C   UNL     1       4.888   6.751  17.226  0.00  0.00    +0.000 A 
ATOM     22  C   UNL     1       5.783   5.926  16.548  0.00  0.00    +0.000 A 
ATOM     23  C   UNL     1       5.472   4.586  16.372  0.00  0.00    +0.000 A 
ATOM     24  C   UNL     1       4.258   4.086  16.844  0.00  0.00    +0.000 A 
ATOM     25  C   UNL     1       3.314   4.915  17.494  0.00  0.00    +0.000 A 
BRANCH  25  26
ATOM     26  C   UNL     1       1.984   4.291  17.826  0.00  0.00    +0.000 C 
ATOM     27  F   UNL     1       0.896   4.847  17.240  0.00  0.00    +0.000 F 
ATOM     28  F   UNL     1       1.939   2.972  17.485  0.00  0.00    +0.000 F 
ATOM     29  F   UNL     1       1.737   4.333  19.166  0.00  0.00    +0.000 F 
ENDBRANCH  25  26
ENDBRANCH  17  20
ENDBRANCH   1  18
TORSDOF 4
ENDMDL
