MODEL 1
REMARK VINA RESULT:      -8.3      0.000      0.000
REMARK  Name = 
REMARK  4 active torsions:
REMARK  status: ('A' for Active; 'I' for Inactive)
REMARK    1  A    between atoms: C_2  and  C_3
REMARK    2  A    between atoms: C_3  and  N_4
REMARK    3  A    between atoms: N_15  and  C_16
REMARK    4  A    between atoms: C_19  and  N_20
REMARK                            x       y       z     vdW  Elec       q    Type
REMARK                         _______ _______ _______ _____ _____    ______ ____
ROOT
ATOM      1  O   UNL     1       1.055   4.875  20.510  0.00  0.00    +0.000 OA
ATOM      2  C   UNL     1       2.225   5.188  20.297  0.00  0.00    +0.000 C 
ATOM      3  N   UNL     1       2.708   6.471  20.095  0.00  0.00    +0.000 N 
ATOM      4  H   UNL     1       3.699   6.566  19.882  0.00  0.00    +0.000 HD
ENDROOT
BRANCH   3   5
ATOM      5  C   UNL     1       1.936   7.653  20.091  0.00  0.00    +0.000 A 
ATOM      6  C   UNL     1       1.230   8.107  21.207  0.00  0.00    +0.000 A 
ATOM      7  C   UNL     1       0.430   9.252  21.134  0.00  0.00    +0.000 A 
ATOM      8  C   UNL     1       0.310   9.957  19.929  0.00  0.00    +0.000 A 
ATOM      9  C   UNL     1       1.055   9.528  18.831  0.00  0.00    +0.000 A 
ATOM     10  F   UNL     1       1.017  10.179  17.660  0.00  0.00    +0.000 F 
ATOM     11  C   UNL     1       1.875   8.398  18.911  0.00  0.00    +0.000 A 
BRANCH   8  12
ATOM     12  N   UNL     1      -0.565  11.065  19.858  0.00  0.00    +0.000 N 
ATOM     13  C   UNL     1      -0.432  12.329  20.382  0.00  0.00    +0.000 A 
ATOM     14  N   UNL     1      -1.478  13.068  20.085  0.00  0.00    +0.000 NA
ATOM     15  C   UNL     1      -2.245  12.218  19.351  0.00  0.00    +0.000 A 
ATOM     16  N   UNL     1      -1.735  11.001  19.166  0.00  0.00    +0.000 NA
ENDBRANCH   8  12
ENDBRANCH   3   5
BRANCH   2  17
ATOM     17  C   UNL     1       3.302   4.109  20.299  0.00  0.00    +0.000 C 
BRANCH  17  18
ATOM     18  N   UNL     1       3.903   4.066  18.980  0.00  0.00    +0.000 N 
ATOM     19  C   UNL     1       3.174   3.613  17.906  0.00  0.00    +0.000 A 
ATOM     20  N   UNL     1       3.611   3.559  16.694  0.00  0.00    +0.000 NA
ATOM     21  C   UNL     1       4.918   4.005  16.452  0.00  0.00    +0.000 A 
ATOM     22  C   UNL     1       5.388   4.034  15.137  0.00  0.00    +0.000 A 
ATOM     23  C   UNL     1       6.678   4.494  14.854  0.00  0.00    +0.000 A 
ATOM     24  C   UNL     1       7.513   4.918  15.887  0.00  0.00    +0.000 A 
ATOM     25  C   UNL     1       7.061   4.884  17.206  0.00  0.00    +0.000 A 
ATOM     26  C   UNL     1       5.767   4.431  17.476  0.00  0.00    +0.000 A 
ATOM     27  C   UNL     1       5.237   4.416  18.854  0.00  0.00    +0.000 A 
ATOM     28  O   UNL     1       5.953   4.693  19.814  0.00  0.00    +0.000 OA
ENDBRANCH  17  18
ENDBRANCH   2  17
TORSDOF 4
ENDMDL
MODEL 2
REMARK VINA RESULT:      -8.2      1.056      1.532
REMARK  Name = 
REMARK  4 active torsions:
REMARK  status: ('A' for Active; 'I' for Inactive)
REMARK    1  A    between atoms: C_2  and  C_3
REMARK    2  A    between atoms: C_3  and  N_4
REMARK    3  A    between atoms: N_15  and  C_16
REMARK    4  A    between atoms: C_19  and  N_20
REMARK                            x       y       z     vdW  Elec       q    Type
REMARK                         _______ _______ _______ _____ _____    ______ ____
ROOT
ATOM      1  O   UNL     1       1.113   4.923  20.515  0.00  0.00    +0.000 OA
ATOM      2  C   UNL     1       2.268   5.270  20.278  0.00  0.00    +0.000 C 
ATOM      3  N   UNL     1       2.702   6.564  20.036  0.00  0.00    +0.000 N 
ATOM      4  H   UNL     1       3.686   6.688  19.807  0.00  0.00    +0.000 HD
ENDROOT
BRANCH   3   5
ATOM      5  C   UNL     1       1.889   7.718  20.013  0.00  0.00    +0.000 A 
ATOM      6  C   UNL     1       1.756   8.536  18.889  0.00  0.00    +0.000 A 
ATOM      7  C   UNL     1       0.986   9.703  18.936  0.00  0.00    +0.000 A 
ATOM      8  C   UNL     1       0.345  10.081  20.124  0.00  0.00    +0.000 A 
ATOM      9  C   UNL     1       0.442   9.236  21.229  0.00  0.00    +0.000 A 
ATOM     10  F   UNL     1      -0.179   9.519  22.383  0.00  0.00    +0.000 F 
ATOM     11  C   UNL     1       1.190   8.057  21.175  0.00  0.00    +0.000 A 
BRANCH   8  12
ATOM     12  N   UNL     1      -0.362  11.304  20.171  0.00  0.00    +0.000 N 
ATOM     13  C   UNL     1      -1.571  11.645  19.611  0.00  0.00    +0.000 A 
ATOM     14  N   UNL     1      -1.879  12.891  19.896  0.00  0.00    +0.000 NA
ATOM     15  C   UNL     1      -0.826  13.293  20.657  0.00  0.00    +0.000 A 
ATOM     16  N   UNL     1       0.111  12.370  20.870  0.00  0.00    +0.000 NA
ENDBRANCH   8  12
ENDBRANCH   3   5
BRANCH   2  17
ATOM     17  C   UNL     1       3.382   4.231  20.292  0.00  0.00    +0.000 C 
BRANCH  17  18
ATOM     18  N   UNL     1       3.959   4.167  18.962  0.00  0.00    +0.000 N 
ATOM     19  C   UNL     1       3.211   3.698  17.910  0.00  0.00    +0.000 A 
ATOM     20  N   UNL     1       3.625   3.625  16.691  0.00  0.00    +0.000 NA
ATOM     21  C   UNL     1       4.928   4.065  16.418  0.00  0.00    +0.000 A 
ATOM     22  C   UNL     1       5.374   4.073  15.095  0.00  0.00    +0.000 A 
ATOM     23  C   UNL     1       6.659   4.527  14.781  0.00  0.00    +0.000 A 
ATOM     24  C   UNL     1       7.513   4.966  15.792  0.00  0.00    +0.000 A 
ATOM     25  C   UNL     1       7.086   4.953  17.119  0.00  0.00    +0.000 A 
ATOM     26  C   UNL     1       5.795   4.506  17.420  0.00  0.00    +0.000 A 
ATOM     27  C   UNL     1       5.291   4.512  18.808  0.00  0.00    +0.000 A 
ATOM     28  O   UNL     1       6.025   4.804  19.749  0.00  0.00    +0.000 OA
ENDBRANCH  17  18
ENDBRANCH   2  17
TORSDOF 4
ENDMDL
MODEL 3
REMARK VINA RESULT:      -7.9      1.061      1.604
REMARK  Name = 
REMARK  4 active torsions:
REMARK  status: ('A' for Active; 'I' for Inactive)
REMARK    1  A    between atoms: C_2  and  C_3
REMARK    2  A    between atoms: C_3  and  N_4
REMARK    3  A    between atoms: N_15  and  C_16
REMARK    4  A    between atoms: C_19  and  N_20
REMARK                            x       y       z     vdW  Elec       q    Type
REMARK                         _______ _______ _______ _____ _____    ______ ____
ROOT
ATOM      1  O   UNL     1       1.210   4.713  20.078  0.00  0.00    +0.000 OA
ATOM      2  C   UNL     1       2.380   5.083  20.005  0.00  0.00    +0.000 C 
ATOM      3  N   UNL     1       2.825   6.395  19.959  0.00  0.00    +0.000 N 
ATOM      4  H   UNL     1       3.826   6.542  19.851  0.00  0.00    +0.000 HD
ENDROOT
BRANCH   3   5
ATOM      5  C   UNL     1       2.007   7.545  19.981  0.00  0.00    +0.000 A 
ATOM      6  C   UNL     1       1.296   7.955  21.110  0.00  0.00    +0.000 A 
ATOM      7  C   UNL     1       0.450   9.068  21.063  0.00  0.00    +0.000 A 
ATOM      8  C   UNL     1       0.290   9.786  19.870  0.00  0.00    +0.000 A 
ATOM      9  C   UNL     1       1.039   9.402  18.758  0.00  0.00    +0.000 A 
ATOM     10  F   UNL     1       0.963  10.069  17.598  0.00  0.00    +0.000 F 
ATOM     11  C   UNL     1       1.904   8.304  18.813  0.00  0.00    +0.000 A 
BRANCH   8  12
ATOM     12  N   UNL     1      -0.629  10.859  19.825  0.00  0.00    +0.000 N 
ATOM     13  C   UNL     1      -0.733  11.966  20.635  0.00  0.00    +0.000 A 
ATOM     14  N   UNL     1      -1.731  12.730  20.250  0.00  0.00    +0.000 NA
ATOM     15  C   UNL     1      -2.221  12.062  19.172  0.00  0.00    +0.000 A 
ATOM     16  N   UNL     1      -1.583  10.935  18.858  0.00  0.00    +0.000 NA
ENDBRANCH   8  12
ENDBRANCH   3   5
BRANCH   2  17
ATOM     17  C   UNL     1       3.496   4.046  20.019  0.00  0.00    +0.000 C 
BRANCH  17  18
ATOM     18  N   UNL     1       4.426   4.366  18.952  0.00  0.00    +0.000 N 
ATOM     19  C   UNL     1       5.568   5.079  19.227  0.00  0.00    +0.000 A 
ATOM     20  N   UNL     1       6.464   5.391  18.354  0.00  0.00    +0.000 NA
ATOM     21  C   UNL     1       6.266   4.964  17.034  0.00  0.00    +0.000 A 
ATOM     22  C   UNL     1       7.259   5.217  16.086  0.00  0.00    +0.000 A 
ATOM     23  C   UNL     1       7.107   4.785  14.765  0.00  0.00    +0.000 A 
ATOM     24  C   UNL     1       5.953   4.105  14.378  0.00  0.00    +0.000 A 
ATOM     25  C   UNL     1       4.947   3.854  15.311  0.00  0.00    +0.000 A 
ATOM     26  C   UNL     1       5.114   4.283  16.632  0.00  0.00    +0.000 A 
ATOM     27  C   UNL     1       4.091   4.004  17.659  0.00  0.00    +0.000 A 
ATOM     28  O   UNL     1       3.016   3.488  17.361  0.00  0.00    +0.000 OA
ENDBRANCH  17  18
ENDBRANCH   2  17
TORSDOF 4
ENDMDL
MODEL 4
REMARK VINA RESULT:      -7.8      1.287      1.927
REMARK  Name = 
REMARK  4 active torsions:
REMARK  status: ('A' for Active; 'I' for Inactive)
REMARK    1  A    between atoms: C_2  and  C_3
REMARK    2  A    between atoms: C_3  and  N_4
REMARK    3  A    between atoms: N_15  and  C_16
REMARK    4  A    between atoms: C_19  and  N_20
REMARK                            x       y       z     vdW  Elec       q    Type
REMARK                         _______ _______ _______ _____ _____    ______ ____
ROOT
ATOM      1  O   UNL     1       2.263   4.706  21.425  0.00  0.00    +0.000 OA
ATOM      2  C   UNL     1       2.596   4.697  20.241  0.00  0.00    +0.000 C 
ATOM      3  N   UNL     1       2.522   5.764  19.360  0.00  0.00    +0.000 N 
ATOM      4  H   UNL     1       2.792   5.589  18.394  0.00  0.00    +0.000 HD
ENDROOT
BRANCH   3   5
ATOM      5  C   UNL     1       2.042   7.057  19.666  0.00  0.00    +0.000 A 
ATOM      6  C   UNL     1       1.509   7.399  20.910  0.00  0.00    +0.000 A 
ATOM      7  C   UNL     1       0.990   8.676  21.144  0.00  0.00    +0.000 A 
ATOM      8  C   UNL     1       0.982   9.635  20.121  0.00  0.00    +0.000 A 
ATOM      9  C   UNL     1       1.559   9.304  18.896  0.00  0.00    +0.000 A 
ATOM     10  F   UNL     1       1.620  10.187  17.889  0.00  0.00    +0.000 F 
ATOM     11  C   UNL     1       2.101   8.035  18.670  0.00  0.00    +0.000 A 
BRANCH   8  12
ATOM     12  N   UNL     1       0.381  10.893  20.356  0.00  0.00    +0.000 N 
ATOM     13  C   UNL     1      -0.779  11.426  19.844  0.00  0.00    +0.000 A 
ATOM     14  N   UNL     1      -0.985  12.633  20.321  0.00  0.00    +0.000 NA
ATOM     15  C   UNL     1       0.077  12.812  21.151  0.00  0.00    +0.000 A 
ATOM     16  N   UNL     1       0.926  11.787  21.224  0.00  0.00    +0.000 NA
ENDBRANCH   8  12
ENDBRANCH   3   5
BRANCH   2  17
ATOM     17  C   UNL     1       3.207   3.436  19.644  0.00  0.00    +0.000 C 
BRANCH  17  18
ATOM     18  N   UNL     1       4.252   3.833  18.719  0.00  0.00    +0.000 N 
ATOM     19  C   UNL     1       5.469   4.255  19.196  0.00  0.00    +0.000 A 
ATOM     20  N   UNL     1       6.466   4.604  18.456  0.00  0.00    +0.000 NA
ATOM     21  C   UNL     1       6.299   4.539  17.066  0.00  0.00    +0.000 A 
ATOM     22  C   UNL     1       7.388   4.833  16.241  0.00  0.00    +0.000 A 
ATOM     23  C   UNL     1       7.266   4.756  14.851  0.00  0.00    +0.000 A 
ATOM     24  C   UNL     1       6.050   4.394  14.272  0.00  0.00    +0.000 A 
ATOM     25  C   UNL     1       4.952   4.108  15.082  0.00  0.00    +0.000 A 
ATOM     26  C   UNL     1       5.087   4.180  16.472  0.00  0.00    +0.000 A 
ATOM     27  C   UNL     1       3.960   3.847  17.365  0.00  0.00    +0.000 A 
ATOM     28  O   UNL     1       2.841   3.608  16.915  0.00  0.00    +0.000 OA
ENDBRANCH  17  18
ENDBRANCH   2  17
TORSDOF 4
ENDMDL
MODEL 5
REMARK VINA RESULT:      -7.8      1.440      2.094
REMARK  Name = 
REMARK  4 active torsions:
REMARK  status: ('A' for Active; 'I' for Inactive)
REMARK    1  A    between atoms: C_2  and  C_3
REMARK    2  A    between atoms: C_3  and  N_4
REMARK    3  A    between atoms: N_15  and  C_16
REMARK    4  A    between atoms: C_19  and  N_20
REMARK                            x       y       z     vdW  Elec       q    Type
REMARK                         _______ _______ _______ _____ _____    ______ ____
ROOT
ATOM      1  O   UNL     1       1.137   4.755  20.159  0.00  0.00    +0.000 OA
ATOM      2  C   UNL     1       2.309   5.096  20.014  0.00  0.00    +0.000 C 
ATOM      3  N   UNL     1       2.778   6.395  19.898  0.00  0.00    +0.000 N 
ATOM      4  H   UNL     1       3.776   6.515  19.735  0.00  0.00    +0.000 HD
ENDROOT
BRANCH   3   5
ATOM      5  C   UNL     1       1.987   7.564  19.918  0.00  0.00    +0.000 A 
ATOM      6  C   UNL     1       1.843   8.407  18.814  0.00  0.00    +0.000 A 
ATOM      7  C   UNL     1       1.097   9.587  18.903  0.00  0.00    +0.000 A 
ATOM      8  C   UNL     1       0.492   9.952  20.113  0.00  0.00    +0.000 A 
ATOM      9  C   UNL     1       0.599   9.084  21.198  0.00  0.00    +0.000 A 
ATOM     10  F   UNL     1       0.011   9.354  22.373  0.00  0.00    +0.000 F 
ATOM     11  C   UNL     1       1.323   7.892  21.102  0.00  0.00    +0.000 A 
BRANCH   8  12
ATOM     12  N   UNL     1      -0.191  11.187  20.201  0.00  0.00    +0.000 N 
ATOM     13  C   UNL     1       0.137  12.328  20.896  0.00  0.00    +0.000 A 
ATOM     14  N   UNL     1      -0.770  13.261  20.709  0.00  0.00    +0.000 NA
ATOM     15  C   UNL     1      -1.651  12.658  19.868  0.00  0.00    +0.000 A 
ATOM     16  N   UNL     1      -1.343  11.411  19.513  0.00  0.00    +0.000 NA
ENDBRANCH   8  12
ENDBRANCH   3   5
BRANCH   2  17
ATOM     17  C   UNL     1       3.403   4.035  20.012  0.00  0.00    +0.000 C 
BRANCH  17  18
ATOM     18  N   UNL     1       4.356   4.369  18.970  0.00  0.00    +0.000 N 
ATOM     19  C   UNL     1       5.494   5.075  19.280  0.00  0.00    +0.000 A 
ATOM     20  N   UNL     1       6.409   5.398  18.433  0.00  0.00    +0.000 NA
ATOM     21  C   UNL     1       6.238   4.992  17.102  0.00  0.00    +0.000 A 
ATOM     22  C   UNL     1       7.253   5.258  16.179  0.00  0.00    +0.000 A 
ATOM     23  C   UNL     1       7.128   4.847  14.849  0.00  0.00    +0.000 A 
ATOM     24  C   UNL     1       5.981   4.176  14.427  0.00  0.00    +0.000 A 
ATOM     25  C   UNL     1       4.955   3.913  15.334  0.00  0.00    +0.000 A 
ATOM     26  C   UNL     1       5.094   4.321  16.664  0.00  0.00    +0.000 A 
ATOM     27  C   UNL     1       4.048   4.028  17.664  0.00  0.00    +0.000 A 
ATOM     28  O   UNL     1       2.979   3.519  17.335  0.00  0.00    +0.000 OA
ENDBRANCH  17  18
ENDBRANCH   2  17
TORSDOF 4
ENDMDL
MODEL 6
REMARK VINA RESULT:      -7.8      2.059      3.136
REMARK  Name = 
REMARK  4 active torsions:
REMARK  status: ('A' for Active; 'I' for Inactive)
REMARK    1  A    between atoms: C_2  and  C_3
REMARK    2  A    between atoms: C_3  and  N_4
REMARK    3  A    between atoms: N_15  and  C_16
REMARK    4  A    between atoms: C_19  and  N_20
REMARK                            x       y       z     vdW  Elec       q    Type
REMARK                         _______ _______ _______ _____ _____    ______ ____
ROOT
ATOM      1  O   UNL     1       5.444   5.923  19.775  0.00  0.00    +0.000 OA
ATOM      2  C   UNL     1       4.870   5.288  18.892  0.00  0.00    +0.000 C 
ATOM      3  N   UNL     1       3.669   5.626  18.287  0.00  0.00    +0.000 N 
ATOM      4  H   UNL     1       3.294   4.973  17.603  0.00  0.00    +0.000 HD
ENDROOT
BRANCH   3   5
ATOM      5  C   UNL     1       2.886   6.763  18.584  0.00  0.00    +0.000 A 
ATOM      6  C   UNL     1       2.707   7.821  17.690  0.00  0.00    +0.000 A 
ATOM      7  C   UNL     1       1.972   8.953  18.054  0.00  0.00    +0.000 A 
ATOM      8  C   UNL     1       1.412   9.052  19.335  0.00  0.00    +0.000 A 
ATOM      9  C   UNL     1       1.553   7.973  20.207  0.00  0.00    +0.000 A 
ATOM     10  F   UNL     1       1.009   7.986  21.432  0.00  0.00    +0.000 F 
ATOM     11  C   UNL     1       2.266   6.830  19.834  0.00  0.00    +0.000 A 
BRANCH   8  12
ATOM     12  N   UNL     1       0.740  10.239  19.708  0.00  0.00    +0.000 N 
ATOM     13  C   UNL     1       1.122  11.232  20.580  0.00  0.00    +0.000 A 
ATOM     14  N   UNL     1       0.205  12.171  20.644  0.00  0.00    +0.000 NA
ATOM     15  C   UNL     1      -0.740  11.726  19.773  0.00  0.00    +0.000 A 
ATOM     16  N   UNL     1      -0.462  10.573  19.166  0.00  0.00    +0.000 NA
ENDBRANCH   8  12
ENDBRANCH   3   5
BRANCH   2  17
ATOM     17  C   UNL     1       5.519   4.029  18.331  0.00  0.00    +0.000 C 
BRANCH  17  18
ATOM     18  N   UNL     1       6.024   4.332  17.005  0.00  0.00    +0.000 N 
ATOM     19  C   UNL     1       7.104   5.168  16.855  0.00  0.00    +0.000 A 
ATOM     20  N   UNL     1       7.640   5.478  15.724  0.00  0.00    +0.000 NA
ATOM     21  C   UNL     1       7.088   4.915  14.566  0.00  0.00    +0.000 A 
ATOM     22  C   UNL     1       7.698   5.169  13.335  0.00  0.00    +0.000 A 
ATOM     23  C   UNL     1       7.189   4.606  12.161  0.00  0.00    +0.000 A 
ATOM     24  C   UNL     1       6.058   3.792  12.206  0.00  0.00    +0.000 A 
ATOM     25  C   UNL     1       5.432   3.538  13.426  0.00  0.00    +0.000 A 
ATOM     26  C   UNL     1       5.954   4.099  14.595  0.00  0.00    +0.000 A 
ATOM     27  C   UNL     1       5.344   3.825  15.911  0.00  0.00    +0.000 A 
ATOM     28  O   UNL     1       4.296   3.188  16.006  0.00  0.00    +0.000 OA
ENDBRANCH  17  18
ENDBRANCH   2  17
TORSDOF 4
ENDMDL
MODEL 7
REMARK VINA RESULT:      -7.5      5.959      7.702
REMARK  Name = 
REMARK  4 active torsions:
REMARK  status: ('A' for Active; 'I' for Inactive)
REMARK    1  A    between atoms: C_2  and  C_3
REMARK    2  A    between atoms: C_3  and  N_4
REMARK    3  A    between atoms: N_15  and  C_16
REMARK    4  A    between atoms: C_19  and  N_20
REMARK                            x       y       z     vdW  Elec       q    Type
REMARK                         _______ _______ _______ _____ _____    ______ ____
ROOT
ATOM      1  O   UNL     1       8.243   6.771  18.759  0.00  0.00    +0.000 OA
ATOM      2  C   UNL     1       7.581   7.213  17.823  0.00  0.00    +0.000 C 
ATOM      3  N   UNL     1       7.540   8.531  17.397  0.00  0.00    +0.000 N 
ATOM      4  H   UNL     1       6.904   8.753  16.634  0.00  0.00    +0.000 HD
ENDROOT
BRANCH   3   5
ATOM      5  C   UNL     1       8.252   9.607  17.970  0.00  0.00    +0.000 A 
ATOM      6  C   UNL     1       9.069   9.469  19.095  0.00  0.00    +0.000 A 
ATOM      7  C   UNL     1       9.705  10.578  19.662  0.00  0.00    +0.000 A 
ATOM      8  C   UNL     1       9.518  11.856  19.118  0.00  0.00    +0.000 A 
ATOM      9  C   UNL     1       8.741  11.982  17.967  0.00  0.00    +0.000 A 
ATOM     10  F   UNL     1       8.555  13.169  17.373  0.00  0.00    +0.000 F 
ATOM     11  C   UNL     1       8.126  10.869  17.385  0.00  0.00    +0.000 A 
BRANCH   8  12
ATOM     12  N   UNL     1      10.107  12.973  19.754  0.00  0.00    +0.000 N 
ATOM     13  C   UNL     1      11.166  13.757  19.358  0.00  0.00    +0.000 A 
ATOM     14  N   UNL     1      11.398  14.703  20.240  0.00  0.00    +0.000 NA
ATOM     15  C   UNL     1      10.439  14.480  21.178  0.00  0.00    +0.000 A 
ATOM     16  N   UNL     1       9.620  13.459  20.927  0.00  0.00    +0.000 NA
ENDBRANCH   8  12
ENDBRANCH   3   5
BRANCH   2  17
ATOM     17  C   UNL     1       6.747   6.258  16.978  0.00  0.00    +0.000 C 
BRANCH  17  18
ATOM     18  N   UNL     1       5.765   5.628  17.840  0.00  0.00    +0.000 N 
ATOM     19  C   UNL     1       6.002   4.375  18.351  0.00  0.00    +0.000 A 
ATOM     20  N   UNL     1       5.205   3.743  19.143  0.00  0.00    +0.000 NA
ATOM     21  C   UNL     1       4.016   4.384  19.518  0.00  0.00    +0.000 A 
ATOM     22  C   UNL     1       3.172   3.758  20.438  0.00  0.00    +0.000 A 
ATOM     23  C   UNL     1       1.990   4.377  20.854  0.00  0.00    +0.000 A 
ATOM     24  C   UNL     1       1.635   5.625  20.344  0.00  0.00    +0.000 A 
ATOM     25  C   UNL     1       2.462   6.258  19.416  0.00  0.00    +0.000 A 
ATOM     26  C   UNL     1       3.646   5.634  19.014  0.00  0.00    +0.000 A 
ATOM     27  C   UNL     1       4.568   6.287  18.063  0.00  0.00    +0.000 A 
ATOM     28  O   UNL     1       4.268   7.344  17.513  0.00  0.00    +0.000 OA
ENDBRANCH  17  18
ENDBRANCH   2  17
TORSDOF 4
ENDMDL
MODEL 8
REMARK VINA RESULT:      -7.5      3.383     10.119
REMARK  Name = 
REMARK  4 active torsions:
REMARK  status: ('A' for Active; 'I' for Inactive)
REMARK    1  A    between atoms: C_2  and  C_3
REMARK    2  A    between atoms: C_3  and  N_4
REMARK    3  A    between atoms: N_15  and  C_16
REMARK    4  A    between atoms: C_19  and  N_20
REMARK                            x       y       z     vdW  Elec       q    Type
REMARK                         _______ _______ _______ _____ _____    ______ ____
ROOT
ATOM      1  O   UNL     1      -1.271  10.169  18.832  0.00  0.00    +0.000 OA
ATOM      2  C   UNL     1      -0.401  10.895  19.309  0.00  0.00    +0.000 C 
ATOM      3  N   UNL     1       0.923  10.552  19.533  0.00  0.00    +0.000 N 
ATOM      4  H   UNL     1       1.515  11.249  19.981  0.00  0.00    +0.000 HD
ENDROOT
BRANCH   3   5
ATOM      5  C   UNL     1       1.509   9.297  19.258  0.00  0.00    +0.000 A 
ATOM      6  C   UNL     1       2.117   8.990  18.039  0.00  0.00    +0.000 A 
ATOM      7  C   UNL     1       2.629   7.712  17.792  0.00  0.00    +0.000 A 
ATOM      8  C   UNL     1       2.524   6.708  18.765  0.00  0.00    +0.000 A 
ATOM      9  C   UNL     1       1.959   7.032  19.997  0.00  0.00    +0.000 A 
ATOM     10  F   UNL     1       1.864   6.130  20.984  0.00  0.00    +0.000 F 
ATOM     11  C   UNL     1       1.471   8.318  20.253  0.00  0.00    +0.000 A 
BRANCH   8  12
ATOM     12  N   UNL     1       2.977   5.402  18.465  0.00  0.00    +0.000 N 
ATOM     13  C   UNL     1       2.370   4.403  17.740  0.00  0.00    +0.000 A 
ATOM     14  N   UNL     1       3.134   3.334  17.695  0.00  0.00    +0.000 NA
ATOM     15  C   UNL     1       4.229   3.719  18.402  0.00  0.00    +0.000 A 
ATOM     16  N   UNL     1       4.197   4.964  18.875  0.00  0.00    +0.000 NA
ENDBRANCH   8  12
ENDBRANCH   3   5
BRANCH   2  17
ATOM     17  C   UNL     1      -0.737  12.341  19.656  0.00  0.00    +0.000 C 
BRANCH  17  18
ATOM     18  N   UNL     1      -1.596  12.339  20.825  0.00  0.00    +0.000 N 
ATOM     19  C   UNL     1      -1.067  12.078  22.066  0.00  0.00    +0.000 A 
ATOM     20  N   UNL     1      -1.741  12.077  23.165  0.00  0.00    +0.000 NA
ATOM     21  C   UNL     1      -3.109  12.373  23.090  0.00  0.00    +0.000 A 
ATOM     22  C   UNL     1      -3.847  12.458  24.273  0.00  0.00    +0.000 A 
ATOM     23  C   UNL     1      -5.208  12.774  24.240  0.00  0.00    +0.000 A 
ATOM     24  C   UNL     1      -5.847  12.996  23.020  0.00  0.00    +0.000 A 
ATOM     25  C   UNL     1      -5.126  12.904  21.830  0.00  0.00    +0.000 A 
ATOM     26  C   UNL     1      -3.763  12.596  21.876  0.00  0.00    +0.000 A 
ATOM     27  C   UNL     1      -2.955  12.526  20.642  0.00  0.00    +0.000 A 
ATOM     28  O   UNL     1      -3.478  12.625  19.534  0.00  0.00    +0.000 OA
ENDBRANCH  17  18
ENDBRANCH   2  17
TORSDOF 4
ENDMDL
MODEL 9
REMARK VINA RESULT:      -7.5      6.027      7.562
REMARK  Name = 
REMARK  4 active torsions:
REMARK  status: ('A' for Active; 'I' for Inactive)
REMARK    1  A    between atoms: C_2  and  C_3
REMARK    2  A    between atoms: C_3  and  N_4
REMARK    3  A    between atoms: N_15  and  C_16
REMARK    4  A    between atoms: C_19  and  N_20
REMARK                            x       y       z     vdW  Elec       q    Type
REMARK                         _______ _______ _______ _____ _____    ______ ____
ROOT
ATOM      1  O   UNL     1       8.361   6.897  18.907  0.00  0.00    +0.000 OA
ATOM      2  C   UNL     1       7.800   7.313  17.896  0.00  0.00    +0.000 C 
ATOM      3  N   UNL     1       7.781   8.625  17.449  0.00  0.00    +0.000 N 
ATOM      4  H   UNL     1       7.232   8.824  16.615  0.00  0.00    +0.000 HD
ENDROOT
BRANCH   3   5
ATOM      5  C   UNL     1       8.400   9.723  18.085  0.00  0.00    +0.000 A 
ATOM      6  C   UNL     1       9.053   9.625  19.315  0.00  0.00    +0.000 A 
ATOM      7  C   UNL     1       9.597  10.755  19.934  0.00  0.00    +0.000 A 
ATOM      8  C   UNL     1       9.482  12.016  19.332  0.00  0.00    +0.000 A 
ATOM      9  C   UNL     1       8.872  12.102  18.081  0.00  0.00    +0.000 A 
ATOM     10  F   UNL     1       8.764  13.270  17.433  0.00  0.00    +0.000 F 
ATOM     11  C   UNL     1       8.350  10.967  17.451  0.00  0.00    +0.000 A 
BRANCH   8  12
ATOM     12  N   UNL     1       9.970  13.155  20.011  0.00  0.00    +0.000 N 
ATOM     13  C   UNL     1      11.035  13.972  19.711  0.00  0.00    +0.000 A 
ATOM     14  N   UNL     1      11.150  14.931  20.603  0.00  0.00    +0.000 NA
ATOM     15  C   UNL     1      10.114  14.680  21.447  0.00  0.00    +0.000 A 
ATOM     16  N   UNL     1       9.357  13.631  21.129  0.00  0.00    +0.000 NA
ENDBRANCH   8  12
ENDBRANCH   3   5
BRANCH   2  17
ATOM     17  C   UNL     1       7.088   6.331  16.974  0.00  0.00    +0.000 C 
BRANCH  17  18
ATOM     18  N   UNL     1       5.815   5.985  17.577  0.00  0.00    +0.000 N 
ATOM     19  C   UNL     1       4.743   6.836  17.455  0.00  0.00    +0.000 A 
ATOM     20  N   UNL     1       3.567   6.607  17.933  0.00  0.00    +0.000 NA
ATOM     21  C   UNL     1       3.366   5.400  18.616  0.00  0.00    +0.000 A 
ATOM     22  C   UNL     1       2.083   5.090  19.074  0.00  0.00    +0.000 A 
ATOM     23  C   UNL     1       1.838   3.885  19.739  0.00  0.00    +0.000 A 
ATOM     24  C   UNL     1       2.878   2.983  19.962  0.00  0.00    +0.000 A 
ATOM     25  C   UNL     1       4.166   3.284  19.521  0.00  0.00    +0.000 A 
ATOM     26  C   UNL     1       4.398   4.488  18.849  0.00  0.00    +0.000 A 
ATOM     27  C   UNL     1       5.739   4.827  18.333  0.00  0.00    +0.000 A 
ATOM     28  O   UNL     1       6.711   4.116  18.575  0.00  0.00    +0.000 OA
ENDBRANCH  17  18
ENDBRANCH   2  17
TORSDOF 4
ENDMDL
