MODEL 1
REMARK VINA RESULT:      -8.1      0.000      0.000
REMARK  Name = 
REMARK  5 active torsions:
REMARK  status: ('A' for Active; 'I' for Inactive)
REMARK    1  A    between atoms: C_1  and  C_2
REMARK    2  A    between atoms: C_4  and  C_5
REMARK    3  A    between atoms: C_10  and  C_11
REMARK    4  A    between atoms: N_13  and  C_14
REMARK    5  A    between atoms: N_22  and  C_23
REMARK                            x       y       z     vdW  Elec       q    Type
REMARK                         _______ _______ _______ _____ _____    ______ ____
ROOT
ATOM      1  C   UNL     1       7.776   8.174  18.085  0.00  0.00    +0.000 C 
ATOM      2  O   UNL     1       8.355   7.320  18.749  0.00  0.00    +0.000 OA
ATOM      3  N   UNL     1       6.665   7.973  17.280  0.00  0.00    +0.000 N 
ATOM      4  H   UNL     1       6.404   8.699  16.625  0.00  0.00    +0.000 HD
ENDROOT
BRANCH   1  14
ATOM      5  C   UNL     1      10.326  16.734  18.187  0.00  0.00    +0.000 C 
ATOM      6  C   UNL     1      10.618  15.317  18.510  0.00  0.00    +0.000 A 
ATOM      7  C   UNL     1      11.673  14.812  19.292  0.00  0.00    +0.000 A 
ATOM      8  C   UNL     1      11.494  13.447  19.312  0.00  0.00    +0.000 A 
ATOM      9  C   UNL     1      12.327  12.393  19.949  0.00  0.00    +0.000 C 
ATOM     10  N   UNL     1      10.328  13.197  18.597  0.00  0.00    +0.000 N 
ATOM     11  C   UNL     1       9.662  11.940  18.416  0.00  0.00    +0.000 A 
ATOM     12  C   UNL     1       8.522  11.869  17.611  0.00  0.00    +0.000 A 
ATOM     13  C   UNL     1       7.882  10.634  17.439  0.00  0.00    +0.000 A 
ATOM     14  C   UNL     1       8.387   9.516  18.099  0.00  0.00    +0.000 A 
ATOM     15  C   UNL     1       9.507   9.683  18.905  0.00  0.00    +0.000 A 
ATOM     16  N   UNL     1      10.159  10.853  19.060  0.00  0.00    +0.000 NA
ATOM     17  N   UNL     1       9.827  14.343  18.052  0.00  0.00    +0.000 NA
ENDBRANCH   1  14
BRANCH   3  18
ATOM     18  C   UNL     1       5.990   6.727  17.171  0.00  0.00    +0.000 A 
ATOM     19  C   UNL     1       6.280   5.820  16.149  0.00  0.00    +0.000 A 
ATOM     20  C   UNL     1       5.605   4.606  16.035  0.00  0.00    +0.000 A 
ATOM     21  C   UNL     1       4.607   4.279  16.947  0.00  0.00    +0.000 A 
ATOM     22  C   UNL     1       4.307   5.173  17.987  0.00  0.00    +0.000 A 
ATOM     23  C   UNL     1       5.010   6.389  18.112  0.00  0.00    +0.000 A 
ATOM     24  C   UNL     1       3.235   4.825  18.972  0.00  0.00    +0.000 C 
ATOM     25  O   UNL     1       3.087   5.524  19.972  0.00  0.00    +0.000 OA
ATOM     26  N   UNL     1       2.455   3.703  18.690  0.00  0.00    +0.000 N 
ATOM     27  C   UNL     1       1.338   3.363  19.549  0.00  0.00    +0.000 C 
ATOM     28  C   UNL     1       2.479   3.104  17.360  0.00  0.00    +0.000 C 
ATOM     29  C   UNL     1       3.902   2.958  16.850  0.00  0.00    +0.000 C 
ENDBRANCH   3  18
TORSDOF 2
ENDMDL
MODEL 2
REMARK VINA RESULT:      -8.0      8.201     11.226
REMARK  Name = 
REMARK  5 active torsions:
REMARK  status: ('A' for Active; 'I' for Inactive)
REMARK    1  A    between atoms: C_1  and  C_2
REMARK    2  A    between atoms: C_4  and  C_5
REMARK    3  A    between atoms: C_10  and  C_11
REMARK    4  A    between atoms: N_13  and  C_14
REMARK    5  A    between atoms: N_22  and  C_23
REMARK                            x       y       z     vdW  Elec       q    Type
REMARK                         _______ _______ _______ _____ _____    ______ ____
ROOT
ATOM      1  C   UNL     1       0.431  10.946  19.785  0.00  0.00    +0.000 C 
ATOM      2  O   UNL     1       0.405  11.848  18.952  0.00  0.00    +0.000 OA
ATOM      3  N   UNL     1      -0.040  11.019  21.087  0.00  0.00    +0.000 N 
ATOM      4  H   UNL     1       0.220  10.290  21.738  0.00  0.00    +0.000 HD
ENDROOT
BRANCH   1  14
ATOM      5  C   UNL     1       5.309   4.154  16.647  0.00  0.00    +0.000 C 
ATOM      6  C   UNL     1       4.383   4.685  17.677  0.00  0.00    +0.000 A 
ATOM      7  C   UNL     1       4.021   4.088  18.898  0.00  0.00    +0.000 A 
ATOM      8  C   UNL     1       3.164   4.982  19.502  0.00  0.00    +0.000 A 
ATOM      9  C   UNL     1       2.435   4.867  20.792  0.00  0.00    +0.000 C 
ATOM     10  N   UNL     1       3.090   6.083  18.656  0.00  0.00    +0.000 N 
ATOM     11  C   UNL     1       2.406   7.322  18.887  0.00  0.00    +0.000 A 
ATOM     12  C   UNL     1       2.394   8.303  17.891  0.00  0.00    +0.000 A 
ATOM     13  C   UNL     1       1.719   9.508  18.127  0.00  0.00    +0.000 A 
ATOM     14  C   UNL     1       1.101   9.704  19.360  0.00  0.00    +0.000 A 
ATOM     15  C   UNL     1       1.190   8.688  20.305  0.00  0.00    +0.000 A 
ATOM     16  N   UNL     1       1.805   7.508  20.089  0.00  0.00    +0.000 NA
ATOM     17  N   UNL     1       3.791   5.870  17.505  0.00  0.00    +0.000 NA
ENDBRANCH   1  14
BRANCH   3  18
ATOM     18  C   UNL     1      -0.696  12.162  21.622  0.00  0.00    +0.000 A 
ATOM     19  C   UNL     1       0.008  13.314  21.981  0.00  0.00    +0.000 A 
ATOM     20  C   UNL     1      -0.636  14.426  22.520  0.00  0.00    +0.000 A 
ATOM     21  C   UNL     1      -2.012  14.400  22.723  0.00  0.00    +0.000 A 
ATOM     22  C   UNL     1      -2.739  13.255  22.360  0.00  0.00    +0.000 A 
ATOM     23  C   UNL     1      -2.085  12.142  21.792  0.00  0.00    +0.000 A 
ATOM     24  C   UNL     1      -4.219  13.223  22.576  0.00  0.00    +0.000 C 
ATOM     25  O   UNL     1      -4.875  12.295  22.108  0.00  0.00    +0.000 OA
ATOM     26  N   UNL     1      -4.777  14.274  23.305  0.00  0.00    +0.000 N 
ATOM     27  C   UNL     1      -6.189  14.258  23.634  0.00  0.00    +0.000 C 
ATOM     28  C   UNL     1      -3.923  15.168  24.079  0.00  0.00    +0.000 C 
ATOM     29  C   UNL     1      -2.714  15.608  23.270  0.00  0.00    +0.000 C 
ENDBRANCH   3  18
TORSDOF 2
ENDMDL
MODEL 3
REMARK VINA RESULT:      -8.0      6.521      9.994
REMARK  Name = 
REMARK  5 active torsions:
REMARK  status: ('A' for Active; 'I' for Inactive)
REMARK    1  A    between atoms: C_1  and  C_2
REMARK    2  A    between atoms: C_4  and  C_5
REMARK    3  A    between atoms: C_10  and  C_11
REMARK    4  A    between atoms: N_13  and  C_14
REMARK    5  A    between atoms: N_22  and  C_23
REMARK                            x       y       z     vdW  Elec       q    Type
REMARK                         _______ _______ _______ _____ _____    ______ ____
ROOT
ATOM      1  C   UNL     1       1.488   8.080  20.208  0.00  0.00    +0.000 C 
ATOM      2  O   UNL     1       1.272   7.403  21.209  0.00  0.00    +0.000 OA
ATOM      3  N   UNL     1       0.968   9.337  19.941  0.00  0.00    +0.000 N 
ATOM      4  H   UNL     1       1.048   9.706  19.002  0.00  0.00    +0.000 HD
ENDROOT
BRANCH   1  14
ATOM      5  C   UNL     1       7.229   5.203  14.000  0.00  0.00    +0.000 C 
ATOM      6  C   UNL     1       6.238   4.889  15.058  0.00  0.00    +0.000 A 
ATOM      7  C   UNL     1       5.952   3.634  15.625  0.00  0.00    +0.000 A 
ATOM      8  C   UNL     1       4.983   3.873  16.574  0.00  0.00    +0.000 A 
ATOM      9  C   UNL     1       4.271   2.914  17.459  0.00  0.00    +0.000 C 
ATOM     10  N   UNL     1       4.768   5.246  16.574  0.00  0.00    +0.000 N 
ATOM     11  C   UNL     1       3.927   6.003  17.454  0.00  0.00    +0.000 A 
ATOM     12  C   UNL     1       3.789   7.381  17.268  0.00  0.00    +0.000 A 
ATOM     13  C   UNL     1       2.961   8.109  18.132  0.00  0.00    +0.000 A 
ATOM     14  C   UNL     1       2.318   7.440  19.172  0.00  0.00    +0.000 A 
ATOM     15  C   UNL     1       2.536   6.073  19.303  0.00  0.00    +0.000 A 
ATOM     16  N   UNL     1       3.302   5.347  18.464  0.00  0.00    +0.000 NA
ATOM     17  N   UNL     1       5.496   5.861  15.596  0.00  0.00    +0.000 NA
ENDBRANCH   1  14
BRANCH   3  18
ATOM     18  C   UNL     1       0.147  10.057  20.851  0.00  0.00    +0.000 A 
ATOM     19  C   UNL     1       0.021   9.676  22.189  0.00  0.00    +0.000 A 
ATOM     20  C   UNL     1      -0.797  10.374  23.075  0.00  0.00    +0.000 A 
ATOM     21  C   UNL     1      -1.522  11.475  22.629  0.00  0.00    +0.000 A 
ATOM     22  C   UNL     1      -1.402  11.880  21.290  0.00  0.00    +0.000 A 
ATOM     23  C   UNL     1      -0.553  11.184  20.405  0.00  0.00    +0.000 A 
ATOM     24  C   UNL     1      -2.179  13.064  20.805  0.00  0.00    +0.000 C 
ATOM     25  O   UNL     1      -1.948  13.518  19.687  0.00  0.00    +0.000 OA
ATOM     26  N   UNL     1      -3.134  13.594  21.673  0.00  0.00    +0.000 N 
ATOM     27  C   UNL     1      -3.989  14.680  21.234  0.00  0.00    +0.000 C 
ATOM     28  C   UNL     1      -3.565  12.838  22.844  0.00  0.00    +0.000 C 
ATOM     29  C   UNL     1      -2.377  12.252  23.587  0.00  0.00    +0.000 C 
ENDBRANCH   3  18
TORSDOF 2
ENDMDL
MODEL 4
REMARK VINA RESULT:      -7.9      7.582      9.442
REMARK  Name = 
REMARK  5 active torsions:
REMARK  status: ('A' for Active; 'I' for Inactive)
REMARK    1  A    between atoms: C_1  and  C_2
REMARK    2  A    between atoms: C_4  and  C_5
REMARK    3  A    between atoms: C_10  and  C_11
REMARK    4  A    between atoms: N_13  and  C_14
REMARK    5  A    between atoms: N_22  and  C_23
REMARK                            x       y       z     vdW  Elec       q    Type
REMARK                         _______ _______ _______ _____ _____    ______ ____
ROOT
ATOM      1  C   UNL     1       0.565   9.603  19.421  0.00  0.00    +0.000 C 
ATOM      2  O   UNL     1       0.324   9.725  18.223  0.00  0.00    +0.000 OA
ATOM      3  N   UNL     1       1.413   8.669  19.996  0.00  0.00    +0.000 N 
ATOM      4  H   UNL     1       1.373   8.530  20.997  0.00  0.00    +0.000 HD
ENDROOT
BRANCH   1  14
ATOM      5  C   UNL     1      -2.937  15.287  25.353  0.00  0.00    +0.000 C 
ATOM      6  C   UNL     1      -3.023  14.612  24.036  0.00  0.00    +0.000 A 
ATOM      7  C   UNL     1      -3.915  14.889  22.985  0.00  0.00    +0.000 A 
ATOM      8  C   UNL     1      -3.576  14.012  21.978  0.00  0.00    +0.000 A 
ATOM      9  C   UNL     1      -4.202  13.818  20.643  0.00  0.00    +0.000 C 
ATOM     10  N   UNL     1      -2.480  13.293  22.440  0.00  0.00    +0.000 N 
ATOM     11  C   UNL     1      -1.697  12.330  21.723  0.00  0.00    +0.000 A 
ATOM     12  C   UNL     1      -0.656  11.660  22.372  0.00  0.00    +0.000 A 
ATOM     13  C   UNL     1       0.099  10.717  21.662  0.00  0.00    +0.000 A 
ATOM     14  C   UNL     1      -0.193  10.495  20.317  0.00  0.00    +0.000 A 
ATOM     15  C   UNL     1      -1.224  11.228  19.742  0.00  0.00    +0.000 A 
ATOM     16  N   UNL     1      -1.986  12.115  20.414  0.00  0.00    +0.000 NA
ATOM     17  N   UNL     1      -2.182  13.621  23.730  0.00  0.00    +0.000 NA
ENDBRANCH   1  14
BRANCH   3  18
ATOM     18  C   UNL     1       2.191   7.747  19.244  0.00  0.00    +0.000 A 
ATOM     19  C   UNL     1       2.896   8.136  18.103  0.00  0.00    +0.000 A 
ATOM     20  C   UNL     1       3.644   7.227  17.359  0.00  0.00    +0.000 A 
ATOM     21  C   UNL     1       3.693   5.890  17.743  0.00  0.00    +0.000 A 
ATOM     22  C   UNL     1       2.999   5.480  18.893  0.00  0.00    +0.000 A 
ATOM     23  C   UNL     1       2.263   6.411  19.655  0.00  0.00    +0.000 A 
ATOM     24  C   UNL     1       3.049   4.044  19.311  0.00  0.00    +0.000 C 
ATOM     25  O   UNL     1       2.584   3.718  20.401  0.00  0.00    +0.000 OA
ATOM     26  N   UNL     1       3.637   3.144  18.421  0.00  0.00    +0.000 N 
ATOM     27  C   UNL     1       3.634   1.725  18.718  0.00  0.00    +0.000 C 
ATOM     28  C   UNL     1       3.891   3.536  17.039  0.00  0.00    +0.000 C 
ATOM     29  C   UNL     1       4.527   4.913  16.967  0.00  0.00    +0.000 C 
ENDBRANCH   3  18
TORSDOF 2
ENDMDL
MODEL 5
REMARK VINA RESULT:      -7.9      6.576      8.116
REMARK  Name = 
REMARK  5 active torsions:
REMARK  status: ('A' for Active; 'I' for Inactive)
REMARK    1  A    between atoms: C_1  and  C_2
REMARK    2  A    between atoms: C_4  and  C_5
REMARK    3  A    between atoms: C_10  and  C_11
REMARK    4  A    between atoms: N_13  and  C_14
REMARK    5  A    between atoms: N_22  and  C_23
REMARK                            x       y       z     vdW  Elec       q    Type
REMARK                         _______ _______ _______ _____ _____    ______ ____
ROOT
ATOM      1  C   UNL     1       1.459   8.957  18.826  0.00  0.00    +0.000 C 
ATOM      2  O   UNL     1       1.262   9.017  17.615  0.00  0.00    +0.000 OA
ATOM      3  N   UNL     1       2.064   7.912  19.506  0.00  0.00    +0.000 N 
ATOM      4  H   UNL     1       1.986   7.880  20.514  0.00  0.00    +0.000 HD
ENDROOT
BRANCH   1  14
ATOM      5  C   UNL     1      -1.346  15.166  24.600  0.00  0.00    +0.000 C 
ATOM      6  C   UNL     1      -0.913  14.811  23.228  0.00  0.00    +0.000 A 
ATOM      7  C   UNL     1      -0.615  15.683  22.166  0.00  0.00    +0.000 A 
ATOM      8  C   UNL     1      -0.240  14.871  21.118  0.00  0.00    +0.000 A 
ATOM      9  C   UNL     1       0.144  15.237  19.730  0.00  0.00    +0.000 C 
ATOM     10  N   UNL     1      -0.277  13.569  21.603  0.00  0.00    +0.000 N 
ATOM     11  C   UNL     1       0.124  12.370  20.928  0.00  0.00    +0.000 A 
ATOM     12  C   UNL     1      -0.038  11.132  21.556  0.00  0.00    +0.000 A 
ATOM     13  C   UNL     1       0.354   9.967  20.884  0.00  0.00    +0.000 A 
ATOM     14  C   UNL     1       0.921  10.078  19.617  0.00  0.00    +0.000 A 
ATOM     15  C   UNL     1       1.075  11.351  19.079  0.00  0.00    +0.000 A 
ATOM     16  N   UNL     1       0.675  12.483  19.692  0.00  0.00    +0.000 NA
ATOM     17  N   UNL     1      -0.752  13.530  22.881  0.00  0.00    +0.000 NA
ENDBRANCH   1  14
BRANCH   3  18
ATOM     18  C   UNL     1       2.614   6.769  18.863  0.00  0.00    +0.000 A 
ATOM     19  C   UNL     1       2.276   5.471  19.252  0.00  0.00    +0.000 A 
ATOM     20  C   UNL     1       2.828   4.354  18.630  0.00  0.00    +0.000 A 
ATOM     21  C   UNL     1       3.750   4.517  17.600  0.00  0.00    +0.000 A 
ATOM     22  C   UNL     1       4.096   5.814  17.188  0.00  0.00    +0.000 A 
ATOM     23  C   UNL     1       3.515   6.940  17.805  0.00  0.00    +0.000 A 
ATOM     24  C   UNL     1       5.086   5.995  16.080  0.00  0.00    +0.000 C 
ATOM     25  O   UNL     1       5.262   7.116  15.609  0.00  0.00    +0.000 OA
ATOM     26  N   UNL     1       5.759   4.855  15.638  0.00  0.00    +0.000 N 
ATOM     27  C   UNL     1       6.799   4.972  14.636  0.00  0.00    +0.000 C 
ATOM     28  C   UNL     1       5.729   3.629  16.428  0.00  0.00    +0.000 C 
ATOM     29  C   UNL     1       4.320   3.317  16.903  0.00  0.00    +0.000 C 
ENDBRANCH   3  18
TORSDOF 2
ENDMDL
MODEL 6
REMARK VINA RESULT:      -7.9      8.183     11.294
REMARK  Name = 
REMARK  5 active torsions:
REMARK  status: ('A' for Active; 'I' for Inactive)
REMARK    1  A    between atoms: C_1  and  C_2
REMARK    2  A    between atoms: C_4  and  C_5
REMARK    3  A    between atoms: C_10  and  C_11
REMARK    4  A    between atoms: N_13  and  C_14
REMARK    5  A    between atoms: N_22  and  C_23
REMARK                            x       y       z     vdW  Elec       q    Type
REMARK                         _______ _______ _______ _____ _____    ______ ____
ROOT
ATOM      1  C   UNL     1       0.502  10.663  20.460  0.00  0.00    +0.000 C 
ATOM      2  O   UNL     1       0.842  10.942  21.606  0.00  0.00    +0.000 OA
ATOM      3  N   UNL     1      -0.434  11.341  19.695  0.00  0.00    +0.000 N 
ATOM      4  H   UNL     1      -0.780  10.903  18.851  0.00  0.00    +0.000 HD
ENDROOT
BRANCH   1  14
ATOM      5  C   UNL     1       4.916   4.019  16.442  0.00  0.00    +0.000 C 
ATOM      6  C   UNL     1       4.107   4.496  17.589  0.00  0.00    +0.000 A 
ATOM      7  C   UNL     1       3.856   3.829  18.802  0.00  0.00    +0.000 A 
ATOM      8  C   UNL     1       3.080   4.694  19.542  0.00  0.00    +0.000 A 
ATOM      9  C   UNL     1       2.480   4.507  20.889  0.00  0.00    +0.000 C 
ATOM     10  N   UNL     1       2.944   5.846  18.776  0.00  0.00    +0.000 N 
ATOM     11  C   UNL     1       2.310   7.077  19.149  0.00  0.00    +0.000 A 
ATOM     12  C   UNL     1       2.218   8.118  18.222  0.00  0.00    +0.000 A 
ATOM     13  C   UNL     1       1.593   9.315  18.596  0.00  0.00    +0.000 A 
ATOM     14  C   UNL     1       1.104   9.442  19.895  0.00  0.00    +0.000 A 
ATOM     15  C   UNL     1       1.267   8.368  20.762  0.00  0.00    +0.000 A 
ATOM     16  N   UNL     1       1.835   7.195  20.415  0.00  0.00    +0.000 NA
ATOM     17  N   UNL     1       3.524   5.697  17.550  0.00  0.00    +0.000 NA
ENDBRANCH   1  14
BRANCH   3  18
ATOM     18  C   UNL     1      -1.093  12.524  20.127  0.00  0.00    +0.000 A 
ATOM     19  C   UNL     1      -0.596  13.795  19.829  0.00  0.00    +0.000 A 
ATOM     20  C   UNL     1      -1.236  14.952  20.268  0.00  0.00    +0.000 A 
ATOM     21  C   UNL     1      -2.395  14.858  21.032  0.00  0.00    +0.000 A 
ATOM     22  C   UNL     1      -2.916  13.589  21.334  0.00  0.00    +0.000 A 
ATOM     23  C   UNL     1      -2.277  12.422  20.867  0.00  0.00    +0.000 A 
ATOM     24  C   UNL     1      -4.163  13.481  22.155  0.00  0.00    +0.000 C 
ATOM     25  O   UNL     1      -4.709  12.388  22.278  0.00  0.00    +0.000 OA
ATOM     26  N   UNL     1      -4.642  14.655  22.738  0.00  0.00    +0.000 N 
ATOM     27  C   UNL     1      -5.789  14.608  23.624  0.00  0.00    +0.000 C 
ATOM     28  C   UNL     1      -3.796  15.842  22.805  0.00  0.00    +0.000 C 
ATOM     29  C   UNL     1      -3.108  16.101  21.476  0.00  0.00    +0.000 C 
ENDBRANCH   3  18
TORSDOF 2
ENDMDL
MODEL 7
REMARK VINA RESULT:      -7.8      6.700      8.418
REMARK  Name = 
REMARK  5 active torsions:
REMARK  status: ('A' for Active; 'I' for Inactive)
REMARK    1  A    between atoms: C_1  and  C_2
REMARK    2  A    between atoms: C_4  and  C_5
REMARK    3  A    between atoms: C_10  and  C_11
REMARK    4  A    between atoms: N_13  and  C_14
REMARK    5  A    between atoms: N_22  and  C_23
REMARK                            x       y       z     vdW  Elec       q    Type
REMARK                         _______ _______ _______ _____ _____    ______ ____
ROOT
ATOM      1  C   UNL     1       1.427   9.047  18.796  0.00  0.00    +0.000 C 
ATOM      2  O   UNL     1       1.074   9.039  17.620  0.00  0.00    +0.000 OA
ATOM      3  N   UNL     1       2.139   8.050  19.444  0.00  0.00    +0.000 N 
ATOM      4  H   UNL     1       2.192   8.071  20.454  0.00  0.00    +0.000 HD
ENDROOT
BRANCH   1  14
ATOM      5  C   UNL     1      -1.187  16.699  22.589  0.00  0.00    +0.000 C 
ATOM      6  C   UNL     1      -1.240  15.218  22.548  0.00  0.00    +0.000 A 
ATOM      7  C   UNL     1      -2.107  14.368  23.257  0.00  0.00    +0.000 A 
ATOM      8  C   UNL     1      -1.776  13.091  22.858  0.00  0.00    +0.000 A 
ATOM      9  C   UNL     1      -2.332  11.788  23.307  0.00  0.00    +0.000 C 
ATOM     10  N   UNL     1      -0.776  13.229  21.903  0.00  0.00    +0.000 N 
ATOM     11  C   UNL     1      -0.169  12.198  21.114  0.00  0.00    +0.000 A 
ATOM     12  C   UNL     1       0.870  12.518  20.235  0.00  0.00    +0.000 A 
ATOM     13  C   UNL     1       1.459  11.501  19.472  0.00  0.00    +0.000 A 
ATOM     14  C   UNL     1       0.971  10.201  19.592  0.00  0.00    +0.000 A 
ATOM     15  C   UNL     1      -0.087   9.978  20.466  0.00  0.00    +0.000 A 
ATOM     16  N   UNL     1      -0.646  10.933  21.234  0.00  0.00    +0.000 NA
ATOM     17  N   UNL     1      -0.405  14.534  21.761  0.00  0.00    +0.000 NA
ENDBRANCH   1  14
BRANCH   3  18
ATOM     18  C   UNL     1       2.626   6.883  18.794  0.00  0.00    +0.000 A 
ATOM     19  C   UNL     1       2.172   5.607  19.134  0.00  0.00    +0.000 A 
ATOM     20  C   UNL     1       2.663   4.464  18.506  0.00  0.00    +0.000 A 
ATOM     21  C   UNL     1       3.639   4.579  17.521  0.00  0.00    +0.000 A 
ATOM     22  C   UNL     1       4.102   5.854  17.158  0.00  0.00    +0.000 A 
ATOM     23  C   UNL     1       3.583   7.008  17.780  0.00  0.00    +0.000 A 
ATOM     24  C   UNL     1       5.151   5.983  16.098  0.00  0.00    +0.000 C 
ATOM     25  O   UNL     1       5.434   7.097  15.665  0.00  0.00    +0.000 OA
ATOM     26  N   UNL     1       5.752   4.805  15.654  0.00  0.00    +0.000 N 
ATOM     27  C   UNL     1       6.842   4.862  14.700  0.00  0.00    +0.000 C 
ATOM     28  C   UNL     1       5.593   3.567  16.409  0.00  0.00    +0.000 C 
ATOM     29  C   UNL     1       4.145   3.354  16.816  0.00  0.00    +0.000 C 
ENDBRANCH   3  18
TORSDOF 2
ENDMDL
MODEL 8
REMARK VINA RESULT:      -7.8      7.176     10.279
REMARK  Name = 
REMARK  5 active torsions:
REMARK  status: ('A' for Active; 'I' for Inactive)
REMARK    1  A    between atoms: C_1  and  C_2
REMARK    2  A    between atoms: C_4  and  C_5
REMARK    3  A    between atoms: C_10  and  C_11
REMARK    4  A    between atoms: N_13  and  C_14
REMARK    5  A    between atoms: N_22  and  C_23
REMARK                            x       y       z     vdW  Elec       q    Type
REMARK                         _______ _______ _______ _____ _____    ______ ____
ROOT
ATOM      1  C   UNL     1       0.870   9.092  20.198  0.00  0.00    +0.000 C 
ATOM      2  O   UNL     1       0.491   8.584  21.249  0.00  0.00    +0.000 OA
ATOM      3  N   UNL     1       0.491  10.331  19.704  0.00  0.00    +0.000 N 
ATOM      4  H   UNL     1       0.702  10.553  18.739  0.00  0.00    +0.000 HD
ENDROOT
BRANCH   1  14
ATOM      5  C   UNL     1       6.717   5.058  14.785  0.00  0.00    +0.000 C 
ATOM      6  C   UNL     1       5.849   5.002  15.985  0.00  0.00    +0.000 A 
ATOM      7  C   UNL     1       5.816   4.006  16.978  0.00  0.00    +0.000 A 
ATOM      8  C   UNL     1       4.868   4.424  17.885  0.00  0.00    +0.000 A 
ATOM      9  C   UNL     1       4.378   3.752  19.117  0.00  0.00    +0.000 C 
ATOM     10  N   UNL     1       4.415   5.659  17.434  0.00  0.00    +0.000 N 
ATOM     11  C   UNL     1       3.498   6.548  18.084  0.00  0.00    +0.000 A 
ATOM     12  C   UNL     1       3.112   7.732  17.450  0.00  0.00    +0.000 A 
ATOM     13  C   UNL     1       2.212   8.591  18.094  0.00  0.00    +0.000 A 
ATOM     14  C   UNL     1       1.748   8.252  19.363  0.00  0.00    +0.000 A 
ATOM     15  C   UNL     1       2.208   7.071  19.933  0.00  0.00    +0.000 A 
ATOM     16  N   UNL     1       3.048   6.213  19.320  0.00  0.00    +0.000 NA
ATOM     17  N   UNL     1       4.975   5.982  16.232  0.00  0.00    +0.000 NA
ENDBRANCH   1  14
BRANCH   3  18
ATOM     18  C   UNL     1      -0.358  11.230  20.404  0.00  0.00    +0.000 A 
ATOM     19  C   UNL     1       0.048  11.858  21.584  0.00  0.00    +0.000 A 
ATOM     20  C   UNL     1      -0.792  12.727  22.277  0.00  0.00    +0.000 A 
ATOM     21  C   UNL     1      -2.075  12.978  21.802  0.00  0.00    +0.000 A 
ATOM     22  C   UNL     1      -2.500  12.363  20.612  0.00  0.00    +0.000 A 
ATOM     23  C   UNL     1      -1.635  11.505  19.902  0.00  0.00    +0.000 A 
ATOM     24  C   UNL     1      -3.878  12.631  20.095  0.00  0.00    +0.000 C 
ATOM     25  O   UNL     1      -4.189  12.230  18.977  0.00  0.00    +0.000 OA
ATOM     26  N   UNL     1      -4.743  13.338  20.932  0.00  0.00    +0.000 N 
ATOM     27  C   UNL     1      -6.122  13.549  20.537  0.00  0.00    +0.000 C 
ATOM     28  C   UNL     1      -4.419  13.518  22.343  0.00  0.00    +0.000 C 
ATOM     29  C   UNL     1      -2.972  13.940  22.524  0.00  0.00    +0.000 C 
ENDBRANCH   3  18
TORSDOF 2
ENDMDL
MODEL 9
REMARK VINA RESULT:      -7.8      8.431     11.557
REMARK  Name = 
REMARK  5 active torsions:
REMARK  status: ('A' for Active; 'I' for Inactive)
REMARK    1  A    between atoms: C_1  and  C_2
REMARK    2  A    between atoms: C_4  and  C_5
REMARK    3  A    between atoms: C_10  and  C_11
REMARK    4  A    between atoms: N_13  and  C_14
REMARK    5  A    between atoms: N_22  and  C_23
REMARK                            x       y       z     vdW  Elec       q    Type
REMARK                         _______ _______ _______ _____ _____    ______ ____
ROOT
ATOM      1  C   UNL     1      -0.077  10.589  20.520  0.00  0.00    +0.000 C 
ATOM      2  O   UNL     1      -0.597  11.035  19.501  0.00  0.00    +0.000 OA
ATOM      3  N   UNL     1      -0.134  11.155  21.784  0.00  0.00    +0.000 N 
ATOM      4  H   UNL     1       0.499  10.815  22.497  0.00  0.00    +0.000 HD
ENDROOT
BRANCH   1  14
ATOM      5  C   UNL     1       3.969   2.648  19.943  0.00  0.00    +0.000 C 
ATOM      6  C   UNL     1       3.792   4.025  19.422  0.00  0.00    +0.000 A 
ATOM      7  C   UNL     1       4.297   4.564  18.225  0.00  0.00    +0.000 A 
ATOM      8  C   UNL     1       3.838   5.862  18.186  0.00  0.00    +0.000 A 
ATOM      9  C   UNL     1       4.088   6.922  17.174  0.00  0.00    +0.000 C 
ATOM     10  N   UNL     1       3.047   6.029  19.316  0.00  0.00    +0.000 N 
ATOM     11  C   UNL     1       2.263   7.174  19.677  0.00  0.00    +0.000 A 
ATOM     12  C   UNL     1       1.569   7.186  20.890  0.00  0.00    +0.000 A 
ATOM     13  C   UNL     1       0.809   8.312  21.233  0.00  0.00    +0.000 A 
ATOM     14  C   UNL     1       0.745   9.379  20.339  0.00  0.00    +0.000 A 
ATOM     15  C   UNL     1       1.441   9.270  19.141  0.00  0.00    +0.000 A 
ATOM     16  N   UNL     1       2.204   8.212  18.804  0.00  0.00    +0.000 NA
ATOM     17  N   UNL     1       3.072   4.918  20.107  0.00  0.00    +0.000 NA
ENDBRANCH   1  14
BRANCH   3  18
ATOM     18  C   UNL     1      -0.881  12.326  22.088  0.00  0.00    +0.000 A 
ATOM     19  C   UNL     1      -0.275  13.580  22.196  0.00  0.00    +0.000 A 
ATOM     20  C   UNL     1      -1.008  14.722  22.509  0.00  0.00    +0.000 A 
ATOM     21  C   UNL     1      -2.378  14.627  22.735  0.00  0.00    +0.000 A 
ATOM     22  C   UNL     1      -3.008  13.377  22.623  0.00  0.00    +0.000 A 
ATOM     23  C   UNL     1      -2.264  12.229  22.281  0.00  0.00    +0.000 A 
ATOM     24  C   UNL     1      -4.481  13.270  22.864  0.00  0.00    +0.000 C 
ATOM     25  O   UNL     1      -5.058  12.217  22.604  0.00  0.00    +0.000 OA
ATOM     26  N   UNL     1      -5.124  14.398  23.375  0.00  0.00    +0.000 N 
ATOM     27  C   UNL     1      -6.530  14.336  23.723  0.00  0.00    +0.000 C 
ATOM     28  C   UNL     1      -4.346  15.497  23.938  0.00  0.00    +0.000 C 
ATOM     29  C   UNL     1      -3.178  15.860  23.038  0.00  0.00    +0.000 C 
ENDBRANCH   3  18
TORSDOF 2
ENDMDL
