MODEL 1
REMARK VINA RESULT:      -8.3      0.000      0.000
REMARK  Name = 
REMARK  5 active torsions:
REMARK  status: ('A' for Active; 'I' for Inactive)
REMARK    1  A    between atoms: C_1  and  C_2
REMARK    2  A    between atoms: C_2  and  C_3
REMARK    3  A    between atoms: C_3  and  C_4
REMARK    4  A    between atoms: N_13  and  C_14
REMARK    5  A    between atoms: C_14  and  C_15
REMARK                            x       y       z     vdW  Elec       q    Type
REMARK                         _______ _______ _______ _____ _____    ______ ____
ROOT
ATOM      1  C   UNL     1       6.438   5.221  17.241  0.00  0.00    +0.000 C 
ATOM      2  N   UNL     1       6.564   4.173  18.238  0.00  0.00    +0.000 N 
ATOM      3  C   UNL     1       5.373   3.833  18.821  0.00  0.00    +0.000 C 
ATOM      4  O   UNL     1       5.269   3.033  19.729  0.00  0.00    +0.000 OA
ATOM      5  N   UNL     1       4.365   4.506  18.197  0.00  0.00    +0.000 N 
ATOM      6  C   UNL     1       4.881   5.331  17.238  0.00  0.00    +0.000 C 
ATOM      7  O   UNL     1       4.199   6.043  16.511  0.00  0.00    +0.000 OA
ATOM      8  H   UNL     1       7.433   3.844  18.636  0.00  0.00    +0.000 HD
ENDROOT
BRANCH   1   9
ATOM      9  C   UNL     1       7.172   6.468  17.742  0.00  0.00    +0.000 A 
ATOM     10  C   UNL     1       7.991   6.463  18.882  0.00  0.00    +0.000 A 
ATOM     11  C   UNL     1       8.682   7.613  19.275  0.00  0.00    +0.000 A 
ATOM     12  C   UNL     1       8.557   8.794  18.550  0.00  0.00    +0.000 A 
ATOM     13  C   UNL     1       7.722   8.836  17.440  0.00  0.00    +0.000 A 
ATOM     14  C   UNL     1       7.033   7.688  17.043  0.00  0.00    +0.000 A 
ENDBRANCH   1   9
BRANCH   1  16
ATOM     15  C   UNL     1       6.141   3.773  15.101  0.00  0.00    +0.000 C 
ATOM     16  C   UNL     1       6.995   4.777  15.870  0.00  0.00    +0.000 C 
ENDBRANCH   1  16
BRANCH   5  17
ATOM     17  C   UNL     1       2.964   4.222  18.426  0.00  0.00    +0.000 C 
BRANCH  17  18
ATOM     18  C   UNL     1       2.236   5.230  19.318  0.00  0.00    +0.000 C 
ATOM     19  O   UNL     1       1.350   4.863  20.094  0.00  0.00    +0.000 OA
ATOM     20  N   UNL     1       2.520   6.557  19.062  0.00  0.00    +0.000 N 
ATOM     21  C   UNL     1       1.838   7.557  19.721  0.00  0.00    +0.000 A 
ATOM     22  N   UNL     1       1.497   8.709  19.194  0.00  0.00    +0.000 NA
ATOM     23  C   UNL     1       0.885   9.412  20.208  0.00  0.00    +0.000 A 
ATOM     24  C   UNL     1       0.272  10.676  20.194  0.00  0.00    +0.000 A 
ATOM     25  C   UNL     1      -0.153  11.239  21.406  0.00  0.00    +0.000 A 
ATOM     26  C   UNL     1       0.020  10.548  22.608  0.00  0.00    +0.000 A 
ATOM     27  C   UNL     1       0.557   9.254  22.635  0.00  0.00    +0.000 A 
ATOM     28  C   UNL     1       0.956   8.711  21.408  0.00  0.00    +0.000 A 
ATOM     29  N   UNL     1       1.463   7.487  21.044  0.00  0.00    +0.000 N 
ATOM     30  H   UNL     1       2.906   6.817  18.158  0.00  0.00    +0.000 HD
ATOM     31  H   UNL     1       1.597   6.686  21.640  0.00  0.00    +0.000 HD
ENDBRANCH  17  18
ENDBRANCH   5  17
TORSDOF 4
ENDMDL
MODEL 2
REMARK VINA RESULT:      -8.0      3.149      6.800
REMARK  Name = 
REMARK  5 active torsions:
REMARK  status: ('A' for Active; 'I' for Inactive)
REMARK    1  A    between atoms: C_1  and  C_2
REMARK    2  A    between atoms: C_2  and  C_3
REMARK    3  A    between atoms: C_3  and  C_4
REMARK    4  A    between atoms: N_13  and  C_14
REMARK    5  A    between atoms: C_14  and  C_15
REMARK                            x       y       z     vdW  Elec       q    Type
REMARK                         _______ _______ _______ _____ _____    ______ ____
ROOT
ATOM      1  C   UNL     1       3.587   5.766  18.092  0.00  0.00    +0.000 C 
ATOM      2  N   UNL     1       3.785   6.101  16.693  0.00  0.00    +0.000 N 
ATOM      3  C   UNL     1       5.088   6.379  16.381  0.00  0.00    +0.000 C 
ATOM      4  O   UNL     1       5.456   6.752  15.285  0.00  0.00    +0.000 OA
ATOM      5  N   UNL     1       5.868   6.138  17.472  0.00  0.00    +0.000 N 
ATOM      6  C   UNL     1       5.087   5.752  18.525  0.00  0.00    +0.000 C 
ATOM      7  O   UNL     1       5.528   5.456  19.629  0.00  0.00    +0.000 OA
ATOM      8  H   UNL     1       3.050   6.315  16.032  0.00  0.00    +0.000 HD
ENDROOT
BRANCH   1   9
ATOM      9  C   UNL     1       2.738   6.861  18.745  0.00  0.00    +0.000 A 
ATOM     10  C   UNL     1       2.299   6.791  20.075  0.00  0.00    +0.000 A 
ATOM     11  C   UNL     1       1.568   7.837  20.647  0.00  0.00    +0.000 A 
ATOM     12  C   UNL     1       1.247   8.965  19.898  0.00  0.00    +0.000 A 
ATOM     13  C   UNL     1       1.638   9.042  18.566  0.00  0.00    +0.000 A 
ATOM     14  C   UNL     1       2.371   8.000  17.994  0.00  0.00    +0.000 A 
ENDBRANCH   1   9
BRANCH   1  16
ATOM     15  C   UNL     1       1.524   4.243  17.657  0.00  0.00    +0.000 C 
ATOM     16  C   UNL     1       2.917   4.384  18.262  0.00  0.00    +0.000 C 
ENDBRANCH   1  16
BRANCH   5  17
ATOM     17  C   UNL     1       7.315   6.131  17.425  0.00  0.00    +0.000 C 
BRANCH  17  18
ATOM     18  C   UNL     1       7.992   7.305  18.136  0.00  0.00    +0.000 C 
ATOM     19  O   UNL     1       8.336   7.215  19.317  0.00  0.00    +0.000 OA
ATOM     20  N   UNL     1       8.024   8.487  17.423  0.00  0.00    +0.000 N 
ATOM     21  C   UNL     1       8.503   9.641  18.004  0.00  0.00    +0.000 A 
ATOM     22  N   UNL     1       8.033  10.846  17.784  0.00  0.00    +0.000 NA
ATOM     23  C   UNL     1       8.829  11.694  18.523  0.00  0.00    +0.000 A 
ATOM     24  C   UNL     1       8.746  13.083  18.710  0.00  0.00    +0.000 A 
ATOM     25  C   UNL     1       9.775  13.739  19.400  0.00  0.00    +0.000 A 
ATOM     26  C   UNL     1      10.861  13.019  19.905  0.00  0.00    +0.000 A 
ATOM     27  C   UNL     1      10.925  11.624  19.797  0.00  0.00    +0.000 A 
ATOM     28  C   UNL     1       9.875  10.995  19.118  0.00  0.00    +0.000 A 
ATOM     29  N   UNL     1       9.575   9.677  18.867  0.00  0.00    +0.000 N 
ATOM     30  H   UNL     1       7.365   8.625  16.661  0.00  0.00    +0.000 HD
ATOM     31  H   UNL     1      10.076   8.870  19.200  0.00  0.00    +0.000 HD
ENDBRANCH  17  18
ENDBRANCH   5  17
TORSDOF 4
ENDMDL
MODEL 3
REMARK VINA RESULT:      -7.7      2.686      6.563
REMARK  Name = 
REMARK  5 active torsions:
REMARK  status: ('A' for Active; 'I' for Inactive)
REMARK    1  A    between atoms: C_1  and  C_2
REMARK    2  A    between atoms: C_2  and  C_3
REMARK    3  A    between atoms: C_3  and  C_4
REMARK    4  A    between atoms: N_13  and  C_14
REMARK    5  A    between atoms: C_14  and  C_15
REMARK                            x       y       z     vdW  Elec       q    Type
REMARK                         _______ _______ _______ _____ _____    ______ ____
ROOT
ATOM      1  C   UNL     1       3.968   3.951  18.894  0.00  0.00    +0.000 C 
ATOM      2  N   UNL     1       3.756   3.863  17.460  0.00  0.00    +0.000 N 
ATOM      3  C   UNL     1       4.833   4.282  16.727  0.00  0.00    +0.000 C 
ATOM      4  O   UNL     1       4.837   4.359  15.514  0.00  0.00    +0.000 OA
ATOM      5  N   UNL     1       5.868   4.554  17.571  0.00  0.00    +0.000 N 
ATOM      6  C   UNL     1       5.472   4.370  18.865  0.00  0.00    +0.000 C 
ATOM      7  O   UNL     1       6.207   4.527  19.833  0.00  0.00    +0.000 OA
ATOM      8  H   UNL     1       2.865   3.711  17.008  0.00  0.00    +0.000 HD
ENDROOT
BRANCH   1   9
ATOM      9  C   UNL     1       3.017   5.005  19.469  0.00  0.00    +0.000 A 
ATOM     10  C   UNL     1       2.119   4.731  20.512  0.00  0.00    +0.000 A 
ATOM     11  C   UNL     1       1.303   5.736  21.040  0.00  0.00    +0.000 A 
ATOM     12  C   UNL     1       1.356   7.029  20.529  0.00  0.00    +0.000 A 
ATOM     13  C   UNL     1       2.210   7.318  19.471  0.00  0.00    +0.000 A 
ATOM     14  C   UNL     1       3.027   6.316  18.943  0.00  0.00    +0.000 A 
ENDBRANCH   1   9
BRANCH   1  16
ATOM     15  C   UNL     1       2.979   1.548  18.788  0.00  0.00    +0.000 C 
ATOM     16  C   UNL     1       3.754   2.588  19.590  0.00  0.00    +0.000 C 
ENDBRANCH   1  16
BRANCH   5  17
ATOM     17  C   UNL     1       7.215   4.818  17.112  0.00  0.00    +0.000 C 
BRANCH  17  18
ATOM     18  C   UNL     1       7.593   6.299  17.030  0.00  0.00    +0.000 C 
ATOM     19  O   UNL     1       7.875   6.820  15.949  0.00  0.00    +0.000 OA
ATOM     20  N   UNL     1       7.758   6.934  18.246  0.00  0.00    +0.000 N 
ATOM     21  C   UNL     1       8.211   8.234  18.300  0.00  0.00    +0.000 A 
ATOM     22  N   UNL     1       9.001   8.718  19.229  0.00  0.00    +0.000 NA
ATOM     23  C   UNL     1       9.156  10.052  18.923  0.00  0.00    +0.000 A 
ATOM     24  C   UNL     1       9.942  11.039  19.540  0.00  0.00    +0.000 A 
ATOM     25  C   UNL     1       9.812  12.371  19.123  0.00  0.00    +0.000 A 
ATOM     26  C   UNL     1       8.924  12.710  18.099  0.00  0.00    +0.000 A 
ATOM     27  C   UNL     1       8.189  11.731  17.417  0.00  0.00    +0.000 A 
ATOM     28  C   UNL     1       8.352  10.408  17.844  0.00  0.00    +0.000 A 
ATOM     29  N   UNL     1       7.853   9.209  17.396  0.00  0.00    +0.000 N 
ATOM     30  H   UNL     1       7.938   6.376  19.077  0.00  0.00    +0.000 HD
ATOM     31  H   UNL     1       7.276   9.060  16.584  0.00  0.00    +0.000 HD
ENDBRANCH  17  18
ENDBRANCH   5  17
TORSDOF 4
ENDMDL
MODEL 4
REMARK VINA RESULT:      -7.7      2.981      7.081
REMARK  Name = 
REMARK  5 active torsions:
REMARK  status: ('A' for Active; 'I' for Inactive)
REMARK    1  A    between atoms: C_1  and  C_2
REMARK    2  A    between atoms: C_2  and  C_3
REMARK    3  A    between atoms: C_3  and  C_4
REMARK    4  A    between atoms: N_13  and  C_14
REMARK    5  A    between atoms: C_14  and  C_15
REMARK                            x       y       z     vdW  Elec       q    Type
REMARK                         _______ _______ _______ _____ _____    ______ ____
ROOT
ATOM      1  C   UNL     1       3.660   5.571  18.762  0.00  0.00    +0.000 C 
ATOM      2  N   UNL     1       4.597   5.419  19.861  0.00  0.00    +0.000 N 
ATOM      3  C   UNL     1       5.900   5.316  19.452  0.00  0.00    +0.000 C 
ATOM      4  O   UNL     1       6.830   5.110  20.205  0.00  0.00    +0.000 OA
ATOM      5  N   UNL     1       5.960   5.512  18.104  0.00  0.00    +0.000 N 
ATOM      6  C   UNL     1       4.701   5.693  17.605  0.00  0.00    +0.000 C 
ATOM      7  O   UNL     1       4.460   5.906  16.423  0.00  0.00    +0.000 OA
ATOM      8  H   UNL     1       4.350   5.206  20.817  0.00  0.00    +0.000 HD
ENDROOT
BRANCH   1   9
ATOM      9  C   UNL     1       2.770   4.326  18.700  0.00  0.00    +0.000 A 
ATOM     10  C   UNL     1       3.047   3.234  17.863  0.00  0.00    +0.000 A 
ATOM     11  C   UNL     1       2.234   2.096  17.875  0.00  0.00    +0.000 A 
ATOM     12  C   UNL     1       1.122   2.031  18.708  0.00  0.00    +0.000 A 
ATOM     13  C   UNL     1       0.804   3.115  19.519  0.00  0.00    +0.000 A 
ATOM     14  C   UNL     1       1.616   4.251  19.511  0.00  0.00    +0.000 A 
ENDBRANCH   1   9
BRANCH   1  16
ATOM     15  C   UNL     1       2.952   7.882  17.802  0.00  0.00    +0.000 C 
ATOM     16  C   UNL     1       2.802   6.846  18.912  0.00  0.00    +0.000 C 
ENDBRANCH   1  16
BRANCH   5  17
ATOM     17  C   UNL     1       7.204   5.676  17.383  0.00  0.00    +0.000 C 
BRANCH  17  18
ATOM     18  C   UNL     1       7.710   7.117  17.283  0.00  0.00    +0.000 C 
ATOM     19  O   UNL     1       8.023   7.602  16.194  0.00  0.00    +0.000 OA
ATOM     20  N   UNL     1       7.945   7.745  18.490  0.00  0.00    +0.000 N 
ATOM     21  C   UNL     1       8.511   9.000  18.526  0.00  0.00    +0.000 A 
ATOM     22  N   UNL     1       9.352   9.421  19.442  0.00  0.00    +0.000 NA
ATOM     23  C   UNL     1       9.621  10.733  19.121  0.00  0.00    +0.000 A 
ATOM     24  C   UNL     1      10.497  11.653  19.720  0.00  0.00    +0.000 A 
ATOM     25  C   UNL     1      10.481  12.987  19.291  0.00  0.00    +0.000 A 
ATOM     26  C   UNL     1       9.613  13.394  18.275  0.00  0.00    +0.000 A 
ATOM     27  C   UNL     1       8.786  12.479  17.611  0.00  0.00    +0.000 A 
ATOM     28  C   UNL     1       8.838  11.150  18.049  0.00  0.00    +0.000 A 
ATOM     29  N   UNL     1       8.229   9.995  17.618  0.00  0.00    +0.000 N 
ATOM     30  H   UNL     1       8.086   7.180  19.324  0.00  0.00    +0.000 HD
ATOM     31  H   UNL     1       7.631   9.891  16.815  0.00  0.00    +0.000 HD
ENDBRANCH  17  18
ENDBRANCH   5  17
TORSDOF 4
ENDMDL
MODEL 5
REMARK VINA RESULT:      -7.7      3.070      6.718
REMARK  Name = 
REMARK  5 active torsions:
REMARK  status: ('A' for Active; 'I' for Inactive)
REMARK    1  A    between atoms: C_1  and  C_2
REMARK    2  A    between atoms: C_2  and  C_3
REMARK    3  A    between atoms: C_3  and  C_4
REMARK    4  A    between atoms: N_13  and  C_14
REMARK    5  A    between atoms: C_14  and  C_15
REMARK                            x       y       z     vdW  Elec       q    Type
REMARK                         _______ _______ _______ _____ _____    ______ ____
ROOT
ATOM      1  C   UNL     1       4.119   4.676  18.115  0.00  0.00    +0.000 C 
ATOM      2  N   UNL     1       3.996   5.343  16.831  0.00  0.00    +0.000 N 
ATOM      3  C   UNL     1       5.133   6.004  16.452  0.00  0.00    +0.000 C 
ATOM      4  O   UNL     1       5.216   6.686  15.450  0.00  0.00    +0.000 OA
ATOM      5  N   UNL     1       6.121   5.742  17.352  0.00  0.00    +0.000 N 
ATOM      6  C   UNL     1       5.637   4.952  18.356  0.00  0.00    +0.000 C 
ATOM      7  O   UNL     1       6.314   4.547  19.294  0.00  0.00    +0.000 OA
ATOM      8  H   UNL     1       3.130   5.500  16.333  0.00  0.00    +0.000 HD
ENDROOT
BRANCH   1   9
ATOM      9  C   UNL     1       3.174   5.351  19.113  0.00  0.00    +0.000 A 
ATOM     10  C   UNL     1       2.851   6.715  19.051  0.00  0.00    +0.000 A 
ATOM     11  C   UNL     1       1.944   7.280  19.953  0.00  0.00    +0.000 A 
ATOM     12  C   UNL     1       1.355   6.500  20.944  0.00  0.00    +0.000 A 
ATOM     13  C   UNL     1       1.688   5.154  21.050  0.00  0.00    +0.000 A 
ATOM     14  C   UNL     1       2.591   4.587  20.148  0.00  0.00    +0.000 A 
ENDBRANCH   1   9
BRANCH   1  16
ATOM     15  C   UNL     1       2.564   2.798  17.207  0.00  0.00    +0.000 C 
ATOM     16  C   UNL     1       3.810   3.166  18.009  0.00  0.00    +0.000 C 
ENDBRANCH   1  16
BRANCH   5  17
ATOM     17  C   UNL     1       7.504   6.113  17.141  0.00  0.00    +0.000 C 
BRANCH  17  18
ATOM     18  C   UNL     1       8.007   7.263  18.017  0.00  0.00    +0.000 C 
ATOM     19  O   UNL     1       8.053   7.149  19.244  0.00  0.00    +0.000 OA
ATOM     20  N   UNL     1       8.230   8.454  17.355  0.00  0.00    +0.000 N 
ATOM     21  C   UNL     1       8.571   9.590  18.057  0.00  0.00    +0.000 A 
ATOM     22  N   UNL     1       8.188  10.807  17.753  0.00  0.00    +0.000 NA
ATOM     23  C   UNL     1       8.794  11.628  18.679  0.00  0.00    +0.000 A 
ATOM     24  C   UNL     1       8.690  13.016  18.867  0.00  0.00    +0.000 A 
ATOM     25  C   UNL     1       9.531  13.641  19.798  0.00  0.00    +0.000 A 
ATOM     26  C   UNL     1      10.451  12.893  20.536  0.00  0.00    +0.000 A 
ATOM     27  C   UNL     1      10.518  11.498  20.420  0.00  0.00    +0.000 A 
ATOM     28  C   UNL     1       9.653  10.900  19.496  0.00  0.00    +0.000 A 
ATOM     29  N   UNL     1       9.403   9.593  19.154  0.00  0.00    +0.000 N 
ATOM     30  H   UNL     1       7.777   8.617  16.459  0.00  0.00    +0.000 HD
ATOM     31  H   UNL     1       9.795   8.770  19.583  0.00  0.00    +0.000 HD
ENDBRANCH  17  18
ENDBRANCH   5  17
TORSDOF 4
ENDMDL
MODEL 6
REMARK VINA RESULT:      -7.7      3.603      8.666
REMARK  Name = 
REMARK  5 active torsions:
REMARK  status: ('A' for Active; 'I' for Inactive)
REMARK    1  A    between atoms: C_1  and  C_2
REMARK    2  A    between atoms: C_2  and  C_3
REMARK    3  A    between atoms: C_3  and  C_4
REMARK    4  A    between atoms: N_13  and  C_14
REMARK    5  A    between atoms: C_14  and  C_15
REMARK                            x       y       z     vdW  Elec       q    Type
REMARK                         _______ _______ _______ _____ _____    ______ ____
ROOT
ATOM      1  C   UNL     1      -0.592  11.657  19.174  0.00  0.00    +0.000 C 
ATOM      2  N   UNL     1      -1.075  11.800  20.536  0.00  0.00    +0.000 N 
ATOM      3  C   UNL     1      -0.514  10.904  21.406  0.00  0.00    +0.000 C 
ATOM      4  O   UNL     1      -0.835  10.805  22.574  0.00  0.00    +0.000 OA
ATOM      5  N   UNL     1       0.450  10.195  20.755  0.00  0.00    +0.000 N 
ATOM      6  C   UNL     1       0.502  10.576  19.444  0.00  0.00    +0.000 C 
ATOM      7  O   UNL     1       1.291  10.113  18.629  0.00  0.00    +0.000 OA
ATOM      8  H   UNL     1      -1.877  12.345  20.819  0.00  0.00    +0.000 HD
ENDROOT
BRANCH   1   9
ATOM      9  C   UNL     1      -1.751  11.194  18.287  0.00  0.00    +0.000 A 
ATOM     10  C   UNL     1      -3.041  11.738  18.375  0.00  0.00    +0.000 A 
ATOM     11  C   UNL     1      -4.058  11.321  17.511  0.00  0.00    +0.000 A 
ATOM     12  C   UNL     1      -3.813  10.341  16.553  0.00  0.00    +0.000 A 
ATOM     13  C   UNL     1      -2.553   9.758  16.471  0.00  0.00    +0.000 A 
ATOM     14  C   UNL     1      -1.535  10.177  17.331  0.00  0.00    +0.000 A 
ENDBRANCH   1   9
BRANCH   1  16
ATOM     15  C   UNL     1      -0.309  14.228  19.447  0.00  0.00    +0.000 C 
ATOM     16  C   UNL     1       0.010  12.975  18.638  0.00  0.00    +0.000 C 
ENDBRANCH   1  16
BRANCH   5  17
ATOM     17  C   UNL     1       1.377   9.314  21.432  0.00  0.00    +0.000 C 
BRANCH  17  18
ATOM     18  C   UNL     1       1.361   7.861  20.949  0.00  0.00    +0.000 C 
ATOM     19  O   UNL     1       0.532   7.060  21.385  0.00  0.00    +0.000 OA
ATOM     20  N   UNL     1       2.425   7.494  20.149  0.00  0.00    +0.000 N 
ATOM     21  C   UNL     1       2.580   6.184  19.750  0.00  0.00    +0.000 A 
ATOM     22  N   UNL     1       3.732   5.573  19.603  0.00  0.00    +0.000 NA
ATOM     23  C   UNL     1       3.424   4.310  19.150  0.00  0.00    +0.000 A 
ATOM     24  C   UNL     1       4.260   3.213  18.881  0.00  0.00    +0.000 A 
ATOM     25  C   UNL     1       3.712   2.071  18.282  0.00  0.00    +0.000 A 
ATOM     26  C   UNL     1       2.352   2.019  17.967  0.00  0.00    +0.000 A 
ATOM     27  C   UNL     1       1.486   3.069  18.297  0.00  0.00    +0.000 A 
ATOM     28  C   UNL     1       2.059   4.190  18.910  0.00  0.00    +0.000 A 
ATOM     29  N   UNL     1       1.533   5.357  19.411  0.00  0.00    +0.000 N 
ATOM     30  H   UNL     1       3.280   8.044  20.175  0.00  0.00    +0.000 HD
ATOM     31  H   UNL     1       0.559   5.604  19.473  0.00  0.00    +0.000 HD
ENDBRANCH  17  18
ENDBRANCH   5  17
TORSDOF 4
ENDMDL
MODEL 7
REMARK VINA RESULT:      -7.7      3.143      7.086
REMARK  Name = 
REMARK  5 active torsions:
REMARK  status: ('A' for Active; 'I' for Inactive)
REMARK    1  A    between atoms: C_1  and  C_2
REMARK    2  A    between atoms: C_2  and  C_3
REMARK    3  A    between atoms: C_3  and  C_4
REMARK    4  A    between atoms: N_13  and  C_14
REMARK    5  A    between atoms: C_14  and  C_15
REMARK                            x       y       z     vdW  Elec       q    Type
REMARK                         _______ _______ _______ _____ _____    ______ ____
ROOT
ATOM      1  C   UNL     1       3.602   5.725  18.341  0.00  0.00    +0.000 C 
ATOM      2  N   UNL     1       3.858   6.062  16.951  0.00  0.00    +0.000 N 
ATOM      3  C   UNL     1       5.168   6.367  16.700  0.00  0.00    +0.000 C 
ATOM      4  O   UNL     1       5.579   6.748  15.622  0.00  0.00    +0.000 OA
ATOM      5  N   UNL     1       5.901   6.145  17.828  0.00  0.00    +0.000 N 
ATOM      6  C   UNL     1       5.080   5.743  18.843  0.00  0.00    +0.000 C 
ATOM      7  O   UNL     1       5.474   5.458  19.968  0.00  0.00    +0.000 OA
ATOM      8  H   UNL     1       3.151   6.260  16.257  0.00  0.00    +0.000 HD
ENDROOT
BRANCH   1   9
ATOM      9  C   UNL     1       2.701   6.802  18.951  0.00  0.00    +0.000 A 
ATOM     10  C   UNL     1       2.188   6.716  20.254  0.00  0.00    +0.000 A 
ATOM     11  C   UNL     1       1.410   7.748  20.789  0.00  0.00    +0.000 A 
ATOM     12  C   UNL     1       1.114   8.876  20.030  0.00  0.00    +0.000 A 
ATOM     13  C   UNL     1       1.578   8.968  18.723  0.00  0.00    +0.000 A 
ATOM     14  C   UNL     1       2.359   7.941  18.188  0.00  0.00    +0.000 A 
ENDBRANCH   1   9
BRANCH   1  16
ATOM     15  C   UNL     1       1.710   4.086  17.633  0.00  0.00    +0.000 C 
ATOM     16  C   UNL     1       2.954   4.329  18.482  0.00  0.00    +0.000 C 
ENDBRANCH   1  16
BRANCH   5  17
ATOM     17  C   UNL     1       7.348   6.168  17.849  0.00  0.00    +0.000 C 
BRANCH  17  18
ATOM     18  C   UNL     1       7.976   7.554  17.685  0.00  0.00    +0.000 C 
ATOM     19  O   UNL     1       8.413   7.925  16.593  0.00  0.00    +0.000 OA
ATOM     20  N   UNL     1       8.166   8.257  18.858  0.00  0.00    +0.000 N 
ATOM     21  C   UNL     1       8.829   9.465  18.849  0.00  0.00    +0.000 A 
ATOM     22  N   UNL     1       9.627   9.894  19.799  0.00  0.00    +0.000 NA
ATOM     23  C   UNL     1      10.027  11.152  19.405  0.00  0.00    +0.000 A 
ATOM     24  C   UNL     1      10.926  12.048  20.007  0.00  0.00    +0.000 A 
ATOM     25  C   UNL     1      11.053  13.341  19.480  0.00  0.00    +0.000 A 
ATOM     26  C   UNL     1      10.304  13.729  18.367  0.00  0.00    +0.000 A 
ATOM     27  C   UNL     1       9.460  12.828  17.705  0.00  0.00    +0.000 A 
ATOM     28  C   UNL     1       9.367  11.539  18.243  0.00  0.00    +0.000 A 
ATOM     29  N   UNL     1       8.702  10.403  17.849  0.00  0.00    +0.000 N 
ATOM     30  H   UNL     1       8.194   7.753  19.741  0.00  0.00    +0.000 HD
ATOM     31  H   UNL     1       8.162  10.279  17.007  0.00  0.00    +0.000 HD
ENDBRANCH  17  18
ENDBRANCH   5  17
TORSDOF 4
ENDMDL
MODEL 8
REMARK VINA RESULT:      -7.6      4.115      9.616
REMARK  Name = 
REMARK  5 active torsions:
REMARK  status: ('A' for Active; 'I' for Inactive)
REMARK    1  A    between atoms: C_1  and  C_2
REMARK    2  A    between atoms: C_2  and  C_3
REMARK    3  A    between atoms: C_3  and  C_4
REMARK    4  A    between atoms: N_13  and  C_14
REMARK    5  A    between atoms: C_14  and  C_15
REMARK                            x       y       z     vdW  Elec       q    Type
REMARK                         _______ _______ _______ _____ _____    ______ ____
ROOT
ATOM      1  C   UNL     1      -2.438  11.479  17.443  0.00  0.00    +0.000 C 
ATOM      2  N   UNL     1      -1.522  12.596  17.590  0.00  0.00    +0.000 N 
ATOM      3  C   UNL     1      -0.474  12.331  18.431  0.00  0.00    +0.000 C 
ATOM      4  O   UNL     1       0.363  13.153  18.747  0.00  0.00    +0.000 OA
ATOM      5  N   UNL     1      -0.524  11.022  18.805  0.00  0.00    +0.000 N 
ATOM      6  C   UNL     1      -1.626  10.425  18.262  0.00  0.00    +0.000 C 
ATOM      7  O   UNL     1      -1.912   9.244  18.420  0.00  0.00    +0.000 OA
ATOM      8  H   UNL     1      -1.701  13.544  17.289  0.00  0.00    +0.000 HD
ENDROOT
BRANCH   1   9
ATOM      9  C   UNL     1      -3.788  11.866  18.052  0.00  0.00    +0.000 A 
ATOM     10  C   UNL     1      -3.935  12.257  19.392  0.00  0.00    +0.000 A 
ATOM     11  C   UNL     1      -5.179  12.651  19.893  0.00  0.00    +0.000 A 
ATOM     12  C   UNL     1      -6.304  12.649  19.074  0.00  0.00    +0.000 A 
ATOM     13  C   UNL     1      -6.192  12.231  17.753  0.00  0.00    +0.000 A 
ATOM     14  C   UNL     1      -4.950  11.839  17.249  0.00  0.00    +0.000 A 
ENDBRANCH   1   9
BRANCH   1  16
ATOM     15  C   UNL     1      -2.796   9.573  15.710  0.00  0.00    +0.000 C 
ATOM     16  C   UNL     1      -2.606  11.065  15.964  0.00  0.00    +0.000 C 
ENDBRANCH   1  16
BRANCH   5  17
ATOM     17  C   UNL     1       0.547  10.362  19.521  0.00  0.00    +0.000 C 
BRANCH  17  18
ATOM     18  C   UNL     1       1.466   9.495  18.657  0.00  0.00    +0.000 C 
ATOM     19  O   UNL     1       1.720   9.809  17.493  0.00  0.00    +0.000 OA
ATOM     20  N   UNL     1       1.829   8.285  19.214  0.00  0.00    +0.000 N 
ATOM     21  C   UNL     1       2.557   7.370  18.485  0.00  0.00    +0.000 A 
ATOM     22  N   UNL     1       2.418   6.067  18.557  0.00  0.00    +0.000 NA
ATOM     23  C   UNL     1       3.367   5.547  17.705  0.00  0.00    +0.000 A 
ATOM     24  C   UNL     1       3.630   4.215  17.344  0.00  0.00    +0.000 A 
ATOM     25  C   UNL     1       4.759   3.932  16.562  0.00  0.00    +0.000 A 
ATOM     26  C   UNL     1       5.603   4.962  16.137  0.00  0.00    +0.000 A 
ATOM     27  C   UNL     1       5.316   6.304  16.420  0.00  0.00    +0.000 A 
ATOM     28  C   UNL     1       4.173   6.556  17.188  0.00  0.00    +0.000 A 
ATOM     29  N   UNL     1       3.562   7.713  17.609  0.00  0.00    +0.000 N 
ATOM     30  H   UNL     1       1.262   7.892  19.962  0.00  0.00    +0.000 HD
ATOM     31  H   UNL     1       3.826   8.656  17.374  0.00  0.00    +0.000 HD
ENDBRANCH  17  18
ENDBRANCH   5  17
TORSDOF 4
ENDMDL
MODEL 9
REMARK VINA RESULT:      -7.6      5.363      8.594
REMARK  Name = 
REMARK  5 active torsions:
REMARK  status: ('A' for Active; 'I' for Inactive)
REMARK    1  A    between atoms: C_1  and  C_2
REMARK    2  A    between atoms: C_2  and  C_3
REMARK    3  A    between atoms: C_3  and  C_4
REMARK    4  A    between atoms: N_13  and  C_14
REMARK    5  A    between atoms: C_14  and  C_15
REMARK                            x       y       z     vdW  Elec       q    Type
REMARK                         _______ _______ _______ _____ _____    ______ ____
ROOT
ATOM      1  C   UNL     1       0.379   9.735  20.611  0.00  0.00    +0.000 C 
ATOM      2  N   UNL     1       1.211  10.750  21.234  0.00  0.00    +0.000 N 
ATOM      3  C   UNL     1       0.919  12.021  20.817  0.00  0.00    +0.000 C 
ATOM      4  O   UNL     1       1.545  13.005  21.158  0.00  0.00    +0.000 OA
ATOM      5  N   UNL     1      -0.177  11.983  20.008  0.00  0.00    +0.000 N 
ATOM      6  C   UNL     1      -0.587  10.690  19.841  0.00  0.00    +0.000 C 
ATOM      7  O   UNL     1      -1.561  10.363  19.174  0.00  0.00    +0.000 OA
ATOM      8  H   UNL     1       2.053  10.573  21.764  0.00  0.00    +0.000 HD
ENDROOT
BRANCH   1   9
ATOM      9  C   UNL     1       1.260   8.854  19.721  0.00  0.00    +0.000 A 
ATOM     10  C   UNL     1       1.591   9.197  18.401  0.00  0.00    +0.000 A 
ATOM     11  C   UNL     1       2.440   8.387  17.641  0.00  0.00    +0.000 A 
ATOM     12  C   UNL     1       2.963   7.214  18.175  0.00  0.00    +0.000 A 
ATOM     13  C   UNL     1       2.621   6.833  19.468  0.00  0.00    +0.000 A 
ATOM     14  C   UNL     1       1.775   7.642  20.230  0.00  0.00    +0.000 A 
ENDBRANCH   1   9
BRANCH   1  16
ATOM     15  C   UNL     1      -0.288   9.381  23.100  0.00  0.00    +0.000 C 
ATOM     16  C   UNL     1      -0.362   8.878  21.662  0.00  0.00    +0.000 C 
ENDBRANCH   1  16
BRANCH   5  17
ATOM     17  C   UNL     1      -0.875  13.171  19.564  0.00  0.00    +0.000 C 
BRANCH  17  18
ATOM     18  C   UNL     1      -1.960  13.679  20.517  0.00  0.00    +0.000 C 
ATOM     19  O   UNL     1      -1.729  14.600  21.304  0.00  0.00    +0.000 OA
ATOM     20  N   UNL     1      -3.119  12.930  20.543  0.00  0.00    +0.000 N 
ATOM     21  C   UNL     1      -4.120  13.221  21.445  0.00  0.00    +0.000 A 
ATOM     22  N   UNL     1      -4.883  12.333  22.036  0.00  0.00    +0.000 NA
ATOM     23  C   UNL     1      -5.765  13.058  22.807  0.00  0.00    +0.000 A 
ATOM     24  C   UNL     1      -6.764  12.624  23.694  0.00  0.00    +0.000 A 
ATOM     25  C   UNL     1      -7.635  13.570  24.253  0.00  0.00    +0.000 A 
ATOM     26  C   UNL     1      -7.504  14.926  23.941  0.00  0.00    +0.000 A 
ATOM     27  C   UNL     1      -6.467  15.389  23.120  0.00  0.00    +0.000 A 
ATOM     28  C   UNL     1      -5.602  14.423  22.591  0.00  0.00    +0.000 A 
ATOM     29  N   UNL     1      -4.473  14.500  21.811  0.00  0.00    +0.000 N 
ATOM     30  H   UNL     1      -3.097  11.967  20.216  0.00  0.00    +0.000 HD
ATOM     31  H   UNL     1      -4.008  15.339  21.504  0.00  0.00    +0.000 HD
ENDBRANCH  17  18
ENDBRANCH   5  17
TORSDOF 4
ENDMDL
