MODEL 1
REMARK VINA RESULT:      -9.2      0.000      0.000
REMARK  Name = 
REMARK  5 active torsions:
REMARK  status: ('A' for Active; 'I' for Inactive)
REMARK    1  A    between atoms: C_6  and  S_7
REMARK    2  A    between atoms: S_7  and  C_8
REMARK    3  A    between atoms: C_11  and  C_12
REMARK    4  A    between atoms: N_14  and  C_15
REMARK    5  A    between atoms: C_15  and  C_16
REMARK                            x       y       z     vdW  Elec       q    Type
REMARK                         _______ _______ _______ _____ _____    ______ ____
ROOT
ATOM      1  C   UNL     1       2.464   6.420  19.079  0.00  0.00    +0.000 A 
ATOM      2  N   UNL     1       3.347   6.780  18.189  0.00  0.00    +0.000 NA
ATOM      3  N   UNL     1       3.953   5.819  17.398  0.00  0.00    +0.000 N 
ATOM      4  C   UNL     1       3.650   4.464  17.447  0.00  0.00    +0.000 A 
ATOM      5  O   UNL     1       4.176   3.609  16.738  0.00  0.00    +0.000 OA
ATOM      6  C   UNL     1       2.657   4.051  18.451  0.00  0.00    +0.000 A 
ATOM      7  C   UNL     1       2.353   2.687  18.596  0.00  0.00    +0.000 A 
ATOM      8  C   UNL     1       1.447   2.270  19.569  0.00  0.00    +0.000 A 
ATOM      9  C   UNL     1       0.824   3.214  20.376  0.00  0.00    +0.000 A 
ATOM     10  C   UNL     1       1.111   4.573  20.216  0.00  0.00    +0.000 A 
ATOM     11  C   UNL     1       2.056   5.002  19.269  0.00  0.00    +0.000 A 
ENDROOT
BRANCH   1  15
ATOM     12  C   UNL     1       0.972   9.268  20.541  0.00  0.00    +0.000 A 
ATOM     13  N   UNL     1       1.242   8.596  21.641  0.00  0.00    +0.000 NA
ATOM     14  N   UNL     1       1.860   7.433  21.253  0.00  0.00    +0.000 NA
ATOM     15  C   UNL     1       1.906   7.450  19.934  0.00  0.00    +0.000 A 
ATOM     16  O   UNL     1       1.379   8.605  19.412  0.00  0.00    +0.000 OA
BRANCH  12  17
ATOM     17  S   UNL     1       0.232  10.836  20.519  0.00  0.00    +0.000 S 
BRANCH  17  23
ATOM     18  O   UNL     1       0.422  13.358  18.570  0.00  0.00    +0.000 OA
ATOM     19  C   UNL     1      -0.326  12.424  18.335  0.00  0.00    +0.000 C 
ATOM     20  N   UNL     1      -1.475  12.536  17.569  0.00  0.00    +0.000 N 
ATOM     21  C   UNL     1      -2.066  11.263  17.297  0.00  0.00    +0.000 C 
ATOM     22  C   UNL     1      -1.548  10.383  18.418  0.00  0.00    +0.000 C 
ATOM     23  C   UNL     1      -0.170  10.974  18.749  0.00  0.00    +0.000 C 
ATOM     24  H   UNL     1      -1.695  13.405  17.099  0.00  0.00    +0.000 HD
ENDBRANCH  17  23
ENDBRANCH  12  17
ENDBRANCH   1  15
BRANCH   3  25
ATOM     25  C   UNL     1       5.035   6.268  16.517  0.00  0.00    +0.000 C 
BRANCH  25  26
ATOM     26  C   UNL     1       6.277   6.671  17.273  0.00  0.00    +0.000 A 
ATOM     27  C   UNL     1       6.839   5.804  18.220  0.00  0.00    +0.000 A 
ATOM     28  C   UNL     1       7.942   6.201  18.976  0.00  0.00    +0.000 A 
ATOM     29  C   UNL     1       8.497   7.467  18.791  0.00  0.00    +0.000 A 
ATOM     30  C   UNL     1       7.965   8.327  17.832  0.00  0.00    +0.000 A 
ATOM     31  C   UNL     1       6.861   7.931  17.075  0.00  0.00    +0.000 A 
ENDBRANCH  25  26
ENDBRANCH   3  25
TORSDOF 5
ENDMDL
MODEL 2
REMARK VINA RESULT:      -8.9      1.142      1.272
REMARK  Name = 
REMARK  5 active torsions:
REMARK  status: ('A' for Active; 'I' for Inactive)
REMARK    1  A    between atoms: C_6  and  S_7
REMARK    2  A    between atoms: S_7  and  C_8
REMARK    3  A    between atoms: C_11  and  C_12
REMARK    4  A    between atoms: N_14  and  C_15
REMARK    5  A    between atoms: C_15  and  C_16
REMARK                            x       y       z     vdW  Elec       q    Type
REMARK                         _______ _______ _______ _____ _____    ______ ____
ROOT
ATOM      1  C   UNL     1       2.600   6.197  18.720  0.00  0.00    +0.000 A 
ATOM      2  N   UNL     1       3.574   6.369  17.869  0.00  0.00    +0.000 NA
ATOM      3  N   UNL     1       4.205   5.267  17.317  0.00  0.00    +0.000 N 
ATOM      4  C   UNL     1       3.840   3.951  17.571  0.00  0.00    +0.000 A 
ATOM      5  O   UNL     1       4.389   2.971  17.074  0.00  0.00    +0.000 OA
ATOM      6  C   UNL     1       2.745   3.750  18.533  0.00  0.00    +0.000 A 
ATOM      7  C   UNL     1       2.370   2.442  18.883  0.00  0.00    +0.000 A 
ATOM      8  C   UNL     1       1.365   2.228  19.824  0.00  0.00    +0.000 A 
ATOM      9  C   UNL     1       0.714   3.317  20.392  0.00  0.00    +0.000 A 
ATOM     10  C   UNL     1       1.073   4.617  20.027  0.00  0.00    +0.000 A 
ATOM     11  C   UNL     1       2.116   4.846  19.113  0.00  0.00    +0.000 A 
ENDROOT
BRANCH   1  15
ATOM     12  C   UNL     1       1.213   9.342  19.532  0.00  0.00    +0.000 A 
ATOM     13  N   UNL     1       1.166   8.787  20.726  0.00  0.00    +0.000 NA
ATOM     14  N   UNL     1       1.700   7.528  20.599  0.00  0.00    +0.000 NA
ATOM     15  C   UNL     1       2.015   7.377  19.326  0.00  0.00    +0.000 A 
ATOM     16  O   UNL     1       1.755   8.505  18.590  0.00  0.00    +0.000 OA
BRANCH  12  17
ATOM     17  S   UNL     1       0.696  10.961  19.194  0.00  0.00    +0.000 S 
BRANCH  17  23
ATOM     18  O   UNL     1      -1.472   9.800  17.158  0.00  0.00    +0.000 OA
ATOM     19  C   UNL     1      -1.782  10.569  18.050  0.00  0.00    +0.000 C 
ATOM     20  N   UNL     1      -2.894  11.395  18.000  0.00  0.00    +0.000 N 
ATOM     21  C   UNL     1      -3.129  12.058  19.244  0.00  0.00    +0.000 C 
ATOM     22  C   UNL     1      -1.769  12.051  19.914  0.00  0.00    +0.000 C 
ATOM     23  C   UNL     1      -1.103  10.770  19.392  0.00  0.00    +0.000 C 
ATOM     24  H   UNL     1      -3.550  11.324  17.231  0.00  0.00    +0.000 HD
ENDBRANCH  17  23
ENDBRANCH  12  17
ENDBRANCH   1  15
BRANCH   3  25
ATOM     25  C   UNL     1       5.379   5.524  16.478  0.00  0.00    +0.000 C 
BRANCH  25  26
ATOM     26  C   UNL     1       6.490   6.223  17.223  0.00  0.00    +0.000 A 
ATOM     27  C   UNL     1       7.136   5.582  18.288  0.00  0.00    +0.000 A 
ATOM     28  C   UNL     1       8.111   6.251  19.028  0.00  0.00    +0.000 A 
ATOM     29  C   UNL     1       8.453   7.564  18.709  0.00  0.00    +0.000 A 
ATOM     30  C   UNL     1       7.838   8.202  17.633  0.00  0.00    +0.000 A 
ATOM     31  C   UNL     1       6.861   7.535  16.891  0.00  0.00    +0.000 A 
ENDBRANCH  25  26
ENDBRANCH   3  25
TORSDOF 5
ENDMDL
MODEL 3
REMARK VINA RESULT:      -8.7      1.959      2.126
REMARK  Name = 
REMARK  5 active torsions:
REMARK  status: ('A' for Active; 'I' for Inactive)
REMARK    1  A    between atoms: C_6  and  S_7
REMARK    2  A    between atoms: S_7  and  C_8
REMARK    3  A    between atoms: C_11  and  C_12
REMARK    4  A    between atoms: N_14  and  C_15
REMARK    5  A    between atoms: C_15  and  C_16
REMARK                            x       y       z     vdW  Elec       q    Type
REMARK                         _______ _______ _______ _____ _____    ______ ____
ROOT
ATOM      1  C   UNL     1       2.593   6.348  18.776  0.00  0.00    +0.000 A 
ATOM      2  N   UNL     1       3.547   6.564  17.913  0.00  0.00    +0.000 NA
ATOM      3  N   UNL     1       4.195   5.490  17.324  0.00  0.00    +0.000 N 
ATOM      4  C   UNL     1       3.866   4.160  17.554  0.00  0.00    +0.000 A 
ATOM      5  O   UNL     1       4.429   3.205  17.025  0.00  0.00    +0.000 OA
ATOM      6  C   UNL     1       2.793   3.910  18.530  0.00  0.00    +0.000 A 
ATOM      7  C   UNL     1       2.455   2.586  18.855  0.00  0.00    +0.000 A 
ATOM      8  C   UNL     1       1.472   2.326  19.807  0.00  0.00    +0.000 A 
ATOM      9  C   UNL     1       0.806   3.385  20.412  0.00  0.00    +0.000 A 
ATOM     10  C   UNL     1       1.127   4.702  20.071  0.00  0.00    +0.000 A 
ATOM     11  C   UNL     1       2.148   4.978  19.146  0.00  0.00    +0.000 A 
ENDROOT
BRANCH   1  15
ATOM     12  C   UNL     1       1.287   8.804  20.953  0.00  0.00    +0.000 A 
ATOM     13  N   UNL     1       1.022   9.392  19.805  0.00  0.00    +0.000 NA
ATOM     14  N   UNL     1       1.457   8.544  18.816  0.00  0.00    +0.000 NA
ATOM     15  C   UNL     1       1.991   7.499  19.420  0.00  0.00    +0.000 A 
ATOM     16  O   UNL     1       1.895   7.586  20.786  0.00  0.00    +0.000 OA
BRANCH  12  17
ATOM     17  S   UNL     1       0.875   9.467  22.500  0.00  0.00    +0.000 S 
BRANCH  17  23
ATOM     18  O   UNL     1       1.139  12.378  21.217  0.00  0.00    +0.000 OA
ATOM     19  C   UNL     1       0.145  12.041  21.835  0.00  0.00    +0.000 C 
ATOM     20  N   UNL     1      -0.701  12.934  22.475  0.00  0.00    +0.000 N 
ATOM     21  C   UNL     1      -1.884  12.298  22.965  0.00  0.00    +0.000 C 
ATOM     22  C   UNL     1      -1.474  10.846  23.108  0.00  0.00    +0.000 C 
ATOM     23  C   UNL     1      -0.422  10.645  22.007  0.00  0.00    +0.000 C 
ATOM     24  H   UNL     1      -0.560  13.932  22.378  0.00  0.00    +0.000 HD
ENDBRANCH  17  23
ENDBRANCH  12  17
ENDBRANCH   1  15
BRANCH   3  25
ATOM     25  C   UNL     1       5.347   5.795  16.472  0.00  0.00    +0.000 C 
BRANCH  25  26
ATOM     26  C   UNL     1       6.486   6.431  17.231  0.00  0.00    +0.000 A 
ATOM     27  C   UNL     1       7.133   5.723  18.254  0.00  0.00    +0.000 A 
ATOM     28  C   UNL     1       8.135   6.332  19.009  0.00  0.00    +0.000 A 
ATOM     29  C   UNL     1       8.504   7.651  18.748  0.00  0.00    +0.000 A 
ATOM     30  C   UNL     1       7.888   8.355  17.714  0.00  0.00    +0.000 A 
ATOM     31  C   UNL     1       6.885   7.747  16.958  0.00  0.00    +0.000 A 
ENDBRANCH  25  26
ENDBRANCH   3  25
TORSDOF 5
ENDMDL
MODEL 4
REMARK VINA RESULT:      -8.6      2.053      2.671
REMARK  Name = 
REMARK  5 active torsions:
REMARK  status: ('A' for Active; 'I' for Inactive)
REMARK    1  A    between atoms: C_6  and  S_7
REMARK    2  A    between atoms: S_7  and  C_8
REMARK    3  A    between atoms: C_11  and  C_12
REMARK    4  A    between atoms: N_14  and  C_15
REMARK    5  A    between atoms: C_15  and  C_16
REMARK                            x       y       z     vdW  Elec       q    Type
REMARK                         _______ _______ _______ _____ _____    ______ ____
ROOT
ATOM      1  C   UNL     1       3.335   6.203  18.602  0.00  0.00    +0.000 A 
ATOM      2  N   UNL     1       4.489   6.033  18.018  0.00  0.00    +0.000 NA
ATOM      3  N   UNL     1       5.196   4.861  18.225  0.00  0.00    +0.000 N 
ATOM      4  C   UNL     1       4.736   3.799  18.993  0.00  0.00    +0.000 A 
ATOM      5  O   UNL     1       5.354   2.752  19.170  0.00  0.00    +0.000 OA
ATOM      6  C   UNL     1       3.437   3.986  19.658  0.00  0.00    +0.000 A 
ATOM      7  C   UNL     1       2.944   2.975  20.501  0.00  0.00    +0.000 A 
ATOM      8  C   UNL     1       1.736   3.149  21.173  0.00  0.00    +0.000 A 
ATOM      9  C   UNL     1       1.006   4.315  20.982  0.00  0.00    +0.000 A 
ATOM     10  C   UNL     1       1.486   5.311  20.126  0.00  0.00    +0.000 A 
ATOM     11  C   UNL     1       2.724   5.167  19.477  0.00  0.00    +0.000 A 
ENDROOT
BRANCH   1  15
ATOM     12  C   UNL     1       1.494   9.210  18.828  0.00  0.00    +0.000 A 
ATOM     13  N   UNL     1       1.899   9.315  17.579  0.00  0.00    +0.000 NA
ATOM     14  N   UNL     1       2.636   8.190  17.305  0.00  0.00    +0.000 NA
ATOM     15  C   UNL     1       2.662   7.474  18.414  0.00  0.00    +0.000 A 
ATOM     16  O   UNL     1       1.933   8.053  19.421  0.00  0.00    +0.000 OA
BRANCH  12  17
ATOM     17  S   UNL     1       0.483  10.372  19.622  0.00  0.00    +0.000 S 
BRANCH  17  23
ATOM     18  O   UNL     1      -0.341  13.299  18.649  0.00  0.00    +0.000 OA
ATOM     19  C   UNL     1      -1.020  12.324  18.382  0.00  0.00    +0.000 C 
ATOM     20  N   UNL     1      -2.379  12.384  18.115  0.00  0.00    +0.000 N 
ATOM     21  C   UNL     1      -2.893  11.132  17.655  0.00  0.00    +0.000 C 
ATOM     22  C   UNL     1      -1.902  10.120  18.195  0.00  0.00    +0.000 C 
ATOM     23  C   UNL     1      -0.570  10.883  18.228  0.00  0.00    +0.000 C 
ATOM     24  H   UNL     1      -2.849  13.279  18.052  0.00  0.00    +0.000 HD
ENDBRANCH  17  23
ENDBRANCH  12  17
ENDBRANCH   1  15
BRANCH   3  25
ATOM     25  C   UNL     1       6.544   4.788  17.656  0.00  0.00    +0.000 C 
BRANCH  25  26
ATOM     26  C   UNL     1       6.539   4.644  16.154  0.00  0.00    +0.000 A 
ATOM     27  C   UNL     1       5.620   3.788  15.531  0.00  0.00    +0.000 A 
ATOM     28  C   UNL     1       5.660   3.593  14.151  0.00  0.00    +0.000 A 
ATOM     29  C   UNL     1       6.615   4.253  13.378  0.00  0.00    +0.000 A 
ATOM     30  C   UNL     1       7.515   5.128  13.982  0.00  0.00    +0.000 A 
ATOM     31  C   UNL     1       7.477   5.325  15.364  0.00  0.00    +0.000 A 
ENDBRANCH  25  26
ENDBRANCH   3  25
TORSDOF 5
ENDMDL
MODEL 5
REMARK VINA RESULT:      -8.5      1.400      1.527
REMARK  Name = 
REMARK  5 active torsions:
REMARK  status: ('A' for Active; 'I' for Inactive)
REMARK    1  A    between atoms: C_6  and  S_7
REMARK    2  A    between atoms: S_7  and  C_8
REMARK    3  A    between atoms: C_11  and  C_12
REMARK    4  A    between atoms: N_14  and  C_15
REMARK    5  A    between atoms: C_15  and  C_16
REMARK                            x       y       z     vdW  Elec       q    Type
REMARK                         _______ _______ _______ _____ _____    ______ ____
ROOT
ATOM      1  C   UNL     1       2.581   6.265  18.799  0.00  0.00    +0.000 A 
ATOM      2  N   UNL     1       3.534   6.487  17.937  0.00  0.00    +0.000 NA
ATOM      3  N   UNL     1       4.167   5.419  17.323  0.00  0.00    +0.000 N 
ATOM      4  C   UNL     1       3.823   4.089  17.526  0.00  0.00    +0.000 A 
ATOM      5  O   UNL     1       4.373   3.138  16.975  0.00  0.00    +0.000 OA
ATOM      6  C   UNL     1       2.752   3.830  18.501  0.00  0.00    +0.000 A 
ATOM      7  C   UNL     1       2.399   2.503  18.800  0.00  0.00    +0.000 A 
ATOM      8  C   UNL     1       1.417   2.235  19.750  0.00  0.00    +0.000 A 
ATOM      9  C   UNL     1       0.765   3.289  20.380  0.00  0.00    +0.000 A 
ATOM     10  C   UNL     1       1.101   4.609  20.066  0.00  0.00    +0.000 A 
ATOM     11  C   UNL     1       2.121   4.892  19.142  0.00  0.00    +0.000 A 
ENDROOT
BRANCH   1  15
ATOM     12  C   UNL     1       1.207   9.365  19.788  0.00  0.00    +0.000 A 
ATOM     13  N   UNL     1       1.131   8.735  20.941  0.00  0.00    +0.000 NA
ATOM     14  N   UNL     1       1.655   7.481  20.743  0.00  0.00    +0.000 NA
ATOM     15  C   UNL     1       1.995   7.409  19.470  0.00  0.00    +0.000 A 
ATOM     16  O   UNL     1       1.760   8.585  18.804  0.00  0.00    +0.000 OA
BRANCH  12  17
ATOM     17  S   UNL     1       0.713  11.008  19.545  0.00  0.00    +0.000 S 
BRANCH  17  23
ATOM     18  O   UNL     1      -2.187  11.879  18.530  0.00  0.00    +0.000 OA
ATOM     19  C   UNL     1      -1.903  11.865  19.715  0.00  0.00    +0.000 C 
ATOM     20  N   UNL     1      -2.537  12.650  20.666  0.00  0.00    +0.000 N 
ATOM     21  C   UNL     1      -2.141  12.308  21.996  0.00  0.00    +0.000 C 
ATOM     22  C   UNL     1      -0.788  11.651  21.808  0.00  0.00    +0.000 C 
ATOM     23  C   UNL     1      -0.882  10.995  20.423  0.00  0.00    +0.000 C 
ATOM     24  H   UNL     1      -3.334  13.218  20.411  0.00  0.00    +0.000 HD
ENDBRANCH  17  23
ENDBRANCH  12  17
ENDBRANCH   1  15
BRANCH   3  25
ATOM     25  C   UNL     1       5.319   5.728  16.473  0.00  0.00    +0.000 C 
BRANCH  25  26
ATOM     26  C   UNL     1       6.457   6.363  17.235  0.00  0.00    +0.000 A 
ATOM     27  C   UNL     1       7.086   5.663  18.274  0.00  0.00    +0.000 A 
ATOM     28  C   UNL     1       8.087   6.272  19.031  0.00  0.00    +0.000 A 
ATOM     29  C   UNL     1       8.472   7.583  18.756  0.00  0.00    +0.000 A 
ATOM     30  C   UNL     1       7.874   8.279  17.707  0.00  0.00    +0.000 A 
ATOM     31  C   UNL     1       6.872   7.671  16.948  0.00  0.00    +0.000 A 
ENDBRANCH  25  26
ENDBRANCH   3  25
TORSDOF 5
ENDMDL
MODEL 6
REMARK VINA RESULT:      -8.4      1.714      2.027
REMARK  Name = 
REMARK  5 active torsions:
REMARK  status: ('A' for Active; 'I' for Inactive)
REMARK    1  A    between atoms: C_6  and  S_7
REMARK    2  A    between atoms: S_7  and  C_8
REMARK    3  A    between atoms: C_11  and  C_12
REMARK    4  A    between atoms: N_14  and  C_15
REMARK    5  A    between atoms: C_15  and  C_16
REMARK                            x       y       z     vdW  Elec       q    Type
REMARK                         _______ _______ _______ _____ _____    ______ ____
ROOT
ATOM      1  C   UNL     1       2.579   6.347  18.789  0.00  0.00    +0.000 A 
ATOM      2  N   UNL     1       3.529   6.559  17.920  0.00  0.00    +0.000 NA
ATOM      3  N   UNL     1       4.190   5.483  17.351  0.00  0.00    +0.000 N 
ATOM      4  C   UNL     1       3.878   4.153  17.606  0.00  0.00    +0.000 A 
ATOM      5  O   UNL     1       4.453   3.196  17.094  0.00  0.00    +0.000 OA
ATOM      6  C   UNL     1       2.810   3.908  18.588  0.00  0.00    +0.000 A 
ATOM      7  C   UNL     1       2.489   2.585  18.938  0.00  0.00    +0.000 A 
ATOM      8  C   UNL     1       1.510   2.331  19.896  0.00  0.00    +0.000 A 
ATOM      9  C   UNL     1       0.831   3.393  20.482  0.00  0.00    +0.000 A 
ATOM     10  C   UNL     1       1.135   4.707  20.117  0.00  0.00    +0.000 A 
ATOM     11  C   UNL     1       2.152   4.978  19.185  0.00  0.00    +0.000 A 
ENDROOT
BRANCH   1  15
ATOM     12  C   UNL     1       1.026   9.405  19.633  0.00  0.00    +0.000 A 
ATOM     13  N   UNL     1       1.146   8.901  20.843  0.00  0.00    +0.000 NA
ATOM     14  N   UNL     1       1.766   7.683  20.704  0.00  0.00    +0.000 NA
ATOM     15  C   UNL     1       1.962   7.502  19.412  0.00  0.00    +0.000 A 
ATOM     16  O   UNL     1       1.537   8.574  18.668  0.00  0.00    +0.000 OA
BRANCH  12  17
ATOM     17  S   UNL     1       0.346  10.963  19.294  0.00  0.00    +0.000 S 
BRANCH  17  23
ATOM     18  O   UNL     1      -1.076  11.389  22.121  0.00  0.00    +0.000 OA
ATOM     19  C   UNL     1      -0.235  12.167  21.706  0.00  0.00    +0.000 C 
ATOM     20  N   UNL     1      -0.160  13.495  22.094  0.00  0.00    +0.000 N 
ATOM     21  C   UNL     1       1.021  14.133  21.604  0.00  0.00    +0.000 C 
ATOM     22  C   UNL     1       1.407  13.295  20.402  0.00  0.00    +0.000 C 
ATOM     23  C   UNL     1       0.914  11.884  20.758  0.00  0.00    +0.000 C 
ATOM     24  H   UNL     1      -0.772  13.853  22.818  0.00  0.00    +0.000 HD
ENDBRANCH  17  23
ENDBRANCH  12  17
ENDBRANCH   1  15
BRANCH   3  25
ATOM     25  C   UNL     1       5.337   5.786  16.492  0.00  0.00    +0.000 C 
BRANCH  25  26
ATOM     26  C   UNL     1       6.480   6.425  17.243  0.00  0.00    +0.000 A 
ATOM     27  C   UNL     1       7.123   5.726  18.274  0.00  0.00    +0.000 A 
ATOM     28  C   UNL     1       8.129   6.339  19.021  0.00  0.00    +0.000 A 
ATOM     29  C   UNL     1       8.504   7.652  18.745  0.00  0.00    +0.000 A 
ATOM     30  C   UNL     1       7.892   8.347  17.704  0.00  0.00    +0.000 A 
ATOM     31  C   UNL     1       6.884   7.736  16.954  0.00  0.00    +0.000 A 
ENDBRANCH  25  26
ENDBRANCH   3  25
TORSDOF 5
ENDMDL
MODEL 7
REMARK VINA RESULT:      -8.3      1.576      2.052
REMARK  Name = 
REMARK  5 active torsions:
REMARK  status: ('A' for Active; 'I' for Inactive)
REMARK    1  A    between atoms: C_6  and  S_7
REMARK    2  A    between atoms: S_7  and  C_8
REMARK    3  A    between atoms: C_11  and  C_12
REMARK    4  A    between atoms: N_14  and  C_15
REMARK    5  A    between atoms: C_15  and  C_16
REMARK                            x       y       z     vdW  Elec       q    Type
REMARK                         _______ _______ _______ _____ _____    ______ ____
ROOT
ATOM      1  C   UNL     1       2.559   6.442  18.831  0.00  0.00    +0.000 A 
ATOM      2  N   UNL     1       3.519   6.687  17.982  0.00  0.00    +0.000 NA
ATOM      3  N   UNL     1       4.198   5.634  17.394  0.00  0.00    +0.000 N 
ATOM      4  C   UNL     1       3.897   4.295  17.608  0.00  0.00    +0.000 A 
ATOM      5  O   UNL     1       4.489   3.357  17.079  0.00  0.00    +0.000 OA
ATOM      6  C   UNL     1       2.819   4.012  18.568  0.00  0.00    +0.000 A 
ATOM      7  C   UNL     1       2.507   2.677  18.878  0.00  0.00    +0.000 A 
ATOM      8  C   UNL     1       1.519   2.387  19.815  0.00  0.00    +0.000 A 
ATOM      9  C   UNL     1       0.820   3.426  20.420  0.00  0.00    +0.000 A 
ATOM     10  C   UNL     1       1.115   4.753  20.095  0.00  0.00    +0.000 A 
ATOM     11  C   UNL     1       2.141   5.059  19.184  0.00  0.00    +0.000 A 
ENDROOT
BRANCH   1  15
ATOM     12  C   UNL     1       0.965   9.462  19.736  0.00  0.00    +0.000 A 
ATOM     13  N   UNL     1       1.070   8.923  20.934  0.00  0.00    +0.000 NA
ATOM     14  N   UNL     1       1.703   7.716  20.771  0.00  0.00    +0.000 NA
ATOM     15  C   UNL     1       1.922   7.574  19.477  0.00  0.00    +0.000 A 
ATOM     16  O   UNL     1       1.499   8.662  18.757  0.00  0.00    +0.000 OA
BRANCH  12  17
ATOM     17  S   UNL     1       0.277  11.023  19.431  0.00  0.00    +0.000 S 
BRANCH  17  23
ATOM     18  O   UNL     1       0.982  13.196  21.661  0.00  0.00    +0.000 OA
ATOM     19  C   UNL     1       1.495  13.226  20.556  0.00  0.00    +0.000 C 
ATOM     20  N   UNL     1       1.993  14.380  19.972  0.00  0.00    +0.000 N 
ATOM     21  C   UNL     1       2.702  14.107  18.761  0.00  0.00    +0.000 C 
ATOM     22  C   UNL     1       2.132  12.777  18.306  0.00  0.00    +0.000 C 
ATOM     23  C   UNL     1       1.757  12.066  19.615  0.00  0.00    +0.000 C 
ATOM     24  H   UNL     1       2.020  15.247  20.493  0.00  0.00    +0.000 HD
ENDBRANCH  17  23
ENDBRANCH  12  17
ENDBRANCH   1  15
BRANCH   3  25
ATOM     25  C   UNL     1       5.354   5.972  16.558  0.00  0.00    +0.000 C 
BRANCH  25  26
ATOM     26  C   UNL     1       6.452   6.663  17.329  0.00  0.00    +0.000 A 
ATOM     27  C   UNL     1       6.791   7.991  17.037  0.00  0.00    +0.000 A 
ATOM     28  C   UNL     1       7.854   8.610  17.694  0.00  0.00    +0.000 A 
ATOM     29  C   UNL     1       8.587   7.910  18.651  0.00  0.00    +0.000 A 
ATOM     30  C   UNL     1       8.242   6.599  18.971  0.00  0.00    +0.000 A 
ATOM     31  C   UNL     1       7.178   5.977  18.315  0.00  0.00    +0.000 A 
ENDBRANCH  25  26
ENDBRANCH   3  25
TORSDOF 5
ENDMDL
MODEL 8
REMARK VINA RESULT:      -8.2      3.129      8.270
REMARK  Name = 
REMARK  5 active torsions:
REMARK  status: ('A' for Active; 'I' for Inactive)
REMARK    1  A    between atoms: C_6  and  S_7
REMARK    2  A    between atoms: S_7  and  C_8
REMARK    3  A    between atoms: C_11  and  C_12
REMARK    4  A    between atoms: N_14  and  C_15
REMARK    5  A    between atoms: C_15  and  C_16
REMARK                            x       y       z     vdW  Elec       q    Type
REMARK                         _______ _______ _______ _____ _____    ______ ____
ROOT
ATOM      1  C   UNL     1       0.688  10.595  18.960  0.00  0.00    +0.000 A 
ATOM      2  N   UNL     1       1.273  11.558  19.617  0.00  0.00    +0.000 NA
ATOM      3  N   UNL     1       0.577  12.724  19.890  0.00  0.00    +0.000 N 
ATOM      4  C   UNL     1      -0.753  12.935  19.549  0.00  0.00    +0.000 A 
ATOM      5  O   UNL     1      -1.378  13.963  19.800  0.00  0.00    +0.000 OA
ATOM      6  C   UNL     1      -1.418  11.855  18.804  0.00  0.00    +0.000 A 
ATOM      7  C   UNL     1      -2.743  12.031  18.373  0.00  0.00    +0.000 A 
ATOM      8  C   UNL     1      -3.378  11.038  17.630  0.00  0.00    +0.000 A 
ATOM      9  C   UNL     1      -2.702   9.858  17.343  0.00  0.00    +0.000 A 
ATOM     10  C   UNL     1      -1.391   9.674  17.791  0.00  0.00    +0.000 A 
ATOM     11  C   UNL     1      -0.725  10.686  18.503  0.00  0.00    +0.000 A 
ENDROOT
BRANCH   1  15
ATOM     12  C   UNL     1       2.442   7.532  18.836  0.00  0.00    +0.000 A 
ATOM     13  N   UNL     1       2.706   7.963  17.620  0.00  0.00    +0.000 NA
ATOM     14  N   UNL     1       2.100   9.189  17.495  0.00  0.00    +0.000 NA
ATOM     15  C   UNL     1       1.476   9.422  18.634  0.00  0.00    +0.000 A 
ATOM     16  O   UNL     1       1.671   8.416  19.547  0.00  0.00    +0.000 OA
BRANCH  12  17
ATOM     17  S   UNL     1       3.038   6.040  19.486  0.00  0.00    +0.000 S 
BRANCH  17  23
ATOM     18  O   UNL     1       0.689   3.995  20.194  0.00  0.00    +0.000 OA
ATOM     19  C   UNL     1       1.427   3.815  19.241  0.00  0.00    +0.000 C 
ATOM     20  N   UNL     1       1.687   2.567  18.698  0.00  0.00    +0.000 N 
ATOM     21  C   UNL     1       2.434   2.654  17.482  0.00  0.00    +0.000 C 
ATOM     22  C   UNL     1       3.130   3.997  17.588  0.00  0.00    +0.000 C 
ATOM     23  C   UNL     1       2.163   4.854  18.417  0.00  0.00    +0.000 C 
ATOM     24  H   UNL     1       1.195   1.749  19.035  0.00  0.00    +0.000 HD
ENDBRANCH  17  23
ENDBRANCH  12  17
ENDBRANCH   1  15
BRANCH   3  25
ATOM     25  C   UNL     1       1.330  13.819  20.506  0.00  0.00    +0.000 C 
BRANCH  25  26
ATOM     26  C   UNL     1       1.969  14.736  19.490  0.00  0.00    +0.000 A 
ATOM     27  C   UNL     1       1.427  16.005  19.248  0.00  0.00    +0.000 A 
ATOM     28  C   UNL     1       1.967  16.826  18.259  0.00  0.00    +0.000 A 
ATOM     29  C   UNL     1       3.054  16.389  17.503  0.00  0.00    +0.000 A 
ATOM     30  C   UNL     1       3.619  15.140  17.754  0.00  0.00    +0.000 A 
ATOM     31  C   UNL     1       3.080  14.317  18.745  0.00  0.00    +0.000 A 
ENDBRANCH  25  26
ENDBRANCH   3  25
TORSDOF 5
ENDMDL
MODEL 9
REMARK VINA RESULT:      -8.2      2.185      2.815
REMARK  Name = 
REMARK  5 active torsions:
REMARK  status: ('A' for Active; 'I' for Inactive)
REMARK    1  A    between atoms: C_6  and  S_7
REMARK    2  A    between atoms: S_7  and  C_8
REMARK    3  A    between atoms: C_11  and  C_12
REMARK    4  A    between atoms: N_14  and  C_15
REMARK    5  A    between atoms: C_15  and  C_16
REMARK                            x       y       z     vdW  Elec       q    Type
REMARK                         _______ _______ _______ _____ _____    ______ ____
ROOT
ATOM      1  C   UNL     1       3.261   6.065  18.923  0.00  0.00    +0.000 A 
ATOM      2  N   UNL     1       4.416   5.972  18.323  0.00  0.00    +0.000 NA
ATOM      3  N   UNL     1       5.166   4.816  18.457  0.00  0.00    +0.000 N 
ATOM      4  C   UNL     1       4.751   3.694  19.164  0.00  0.00    +0.000 A 
ATOM      5  O   UNL     1       5.408   2.662  19.275  0.00  0.00    +0.000 OA
ATOM      6  C   UNL     1       3.451   3.794  19.846  0.00  0.00    +0.000 A 
ATOM      7  C   UNL     1       3.002   2.718  20.630  0.00  0.00    +0.000 A 
ATOM      8  C   UNL     1       1.794   2.808  21.318  0.00  0.00    +0.000 A 
ATOM      9  C   UNL     1       1.021   3.956  21.200  0.00  0.00    +0.000 A 
ATOM     10  C   UNL     1       1.458   5.018  20.402  0.00  0.00    +0.000 A 
ATOM     11  C   UNL     1       2.695   4.957  19.739  0.00  0.00    +0.000 A 
ENDROOT
BRANCH   1  15
ATOM     12  C   UNL     1       1.394   9.031  19.362  0.00  0.00    +0.000 A 
ATOM     13  N   UNL     1       1.639   9.137  18.072  0.00  0.00    +0.000 NA
ATOM     14  N   UNL     1       2.362   8.026  17.714  0.00  0.00    +0.000 NA
ATOM     15  C   UNL     1       2.541   7.319  18.814  0.00  0.00    +0.000 A 
ATOM     16  O   UNL     1       1.928   7.888  19.901  0.00  0.00    +0.000 OA
BRANCH  12  17
ATOM     17  S   UNL     1       0.461  10.175  20.269  0.00  0.00    +0.000 S 
BRANCH  17  23
ATOM     18  O   UNL     1       2.048  12.806  21.136  0.00  0.00    +0.000 OA
ATOM     19  C   UNL     1       1.221  12.826  20.242  0.00  0.00    +0.000 C 
ATOM     20  N   UNL     1       0.521  13.962  19.868  0.00  0.00    +0.000 N 
ATOM     21  C   UNL     1      -0.247  13.755  18.680  0.00  0.00    +0.000 C 
ATOM     22  C   UNL     1      -0.450  12.253  18.645  0.00  0.00    +0.000 C 
ATOM     23  C   UNL     1       0.808  11.691  19.323  0.00  0.00    +0.000 C 
ATOM     24  H   UNL     1       0.740  14.859  20.285  0.00  0.00    +0.000 HD
ENDBRANCH  17  23
ENDBRANCH  12  17
ENDBRANCH   1  15
BRANCH   3  25
ATOM     25  C   UNL     1       6.512   4.826  17.877  0.00  0.00    +0.000 C 
BRANCH  25  26
ATOM     26  C   UNL     1       6.503   4.684  16.374  0.00  0.00    +0.000 A 
ATOM     27  C   UNL     1       5.587   3.825  15.752  0.00  0.00    +0.000 A 
ATOM     28  C   UNL     1       5.624   3.633  14.371  0.00  0.00    +0.000 A 
ATOM     29  C   UNL     1       6.573   4.299  13.598  0.00  0.00    +0.000 A 
ATOM     30  C   UNL     1       7.470   5.178  14.201  0.00  0.00    +0.000 A 
ATOM     31  C   UNL     1       7.435   5.372  15.583  0.00  0.00    +0.000 A 
ENDBRANCH  25  26
ENDBRANCH   3  25
TORSDOF 5
ENDMDL
