MODEL 1
REMARK VINA RESULT:      -8.4      0.000      0.000
REMARK  Name = 
REMARK  10 active torsions:
REMARK  status: ('A' for Active; 'I' for Inactive)
REMARK    1  A    between atoms: C_1  and  C_2
REMARK    2  A    between atoms: C_4  and  N_5
REMARK    3  A    between atoms: C_10  and  C_11
REMARK    4  A    between atoms: C_11  and  C_12
REMARK    5  A    between atoms: C_12  and  O_13
REMARK    6  A    between atoms: O_13  and  C_14
REMARK    7  A    between atoms: C_14  and  C_15
REMARK    8  A    between atoms: C_15  and  C_16
REMARK    9  A    between atoms: N_20  and  C_21
REMARK   10  A    between atoms: C_23  and  C_24
REMARK                            x       y       z     vdW  Elec       q    Type
REMARK                         _______ _______ _______ _____ _____    ______ ____
ROOT
ATOM      1  N   UNL     1       4.595   4.865  17.411  0.00  0.00    +0.000 N 
ATOM      2  C   UNL     1       4.018   3.854  18.284  0.00  0.00    +0.000 C 
ATOM      3  C   UNL     1       3.090   4.641  19.149  0.00  0.00    +0.000 A 
ATOM      4  C   UNL     1       3.131   5.977  18.762  0.00  0.00    +0.000 A 
ATOM      5  C   UNL     1       2.413   6.966  19.393  0.00  0.00    +0.000 A 
ATOM      6  C   UNL     1       1.599   6.592  20.464  0.00  0.00    +0.000 A 
ATOM      7  C   UNL     1       1.529   5.231  20.851  0.00  0.00    +0.000 A 
ATOM      8  C   UNL     1       2.285   4.230  20.203  0.00  0.00    +0.000 A 
ATOM      9  C   UNL     1       4.070   6.129  17.649  0.00  0.00    +0.000 C 
ATOM     10  O   UNL     1       4.296   7.198  17.113  0.00  0.00    +0.000 OA
ENDROOT
BRANCH   1  14
ATOM     11  C   UNL     1       6.134   3.607  12.625  0.00  0.00    +0.000 C 
ATOM     12  C   UNL     1       6.453   3.954  14.071  0.00  0.00    +0.000 C 
ATOM     13  C   UNL     1       7.057   4.611  16.809  0.00  0.00    +0.000 C 
ATOM     14  C   UNL     1       5.589   4.567  16.468  0.00  0.00    +0.000 C 
ATOM     15  C   UNL     1       5.303   4.246  15.113  0.00  0.00    +0.000 C 
ENDBRANCH   1  14
BRANCH   8  16
ATOM     16  C   UNL     1       2.209   2.801  20.670  0.00  0.00    +0.000 C 
ATOM     17  F   UNL     1       1.953   1.912  19.668  0.00  0.00    +0.000 F 
ATOM     18  F   UNL     1       3.367   2.380  21.248  0.00  0.00    +0.000 F 
ATOM     19  F   UNL     1       1.231   2.605  21.595  0.00  0.00    +0.000 F 
ENDBRANCH   8  16
BRANCH   6  20
ATOM     20  C   UNL     1       0.803   7.659  21.182  0.00  0.00    +0.000 C 
BRANCH  20  21
ATOM     21  C   UNL     1       1.572   8.957  21.398  0.00  0.00    +0.000 C 
BRANCH  21  22
ATOM     22  O   UNL     1       1.029  10.009  20.591  0.00  0.00    +0.000 OA
BRANCH  22  23
ATOM     23  C   UNL     1      -0.333   9.717  20.262  0.00  0.00    +0.000 C 
BRANCH  23  24
ATOM     24  C   UNL     1      -1.035  10.960  19.723  0.00  0.00    +0.000 C 
BRANCH  24  25
ATOM     25  C   UNL     1      -1.761  10.645  18.459  0.00  0.00    +0.000 A 
ATOM     26  N   UNL     1      -1.321   9.898  17.467  0.00  0.00    +0.000 NA
ATOM     27  N   UNL     1      -2.292   9.856  16.495  0.00  0.00    +0.000 NA
ATOM     28  C   UNL     1      -3.303  10.576  16.916  0.00  0.00    +0.000 A 
ATOM     29  N   UNL     1      -3.015  11.093  18.140  0.00  0.00    +0.000 N 
ATOM     30  C   UNL     1      -3.870  11.943  18.924  0.00  0.00    +0.000 C 
ENDBRANCH  24  25
ENDBRANCH  23  24
ENDBRANCH  22  23
ENDBRANCH  21  22
ENDBRANCH  20  21
ENDBRANCH   6  20
TORSDOF 8
ENDMDL
MODEL 2
REMARK VINA RESULT:      -8.4      1.662      1.945
REMARK  Name = 
REMARK  10 active torsions:
REMARK  status: ('A' for Active; 'I' for Inactive)
REMARK    1  A    between atoms: C_1  and  C_2
REMARK    2  A    between atoms: C_4  and  N_5
REMARK    3  A    between atoms: C_10  and  C_11
REMARK    4  A    between atoms: C_11  and  C_12
REMARK    5  A    between atoms: C_12  and  O_13
REMARK    6  A    between atoms: O_13  and  C_14
REMARK    7  A    between atoms: C_14  and  C_15
REMARK    8  A    between atoms: C_15  and  C_16
REMARK    9  A    between atoms: N_20  and  C_21
REMARK   10  A    between atoms: C_23  and  C_24
REMARK                            x       y       z     vdW  Elec       q    Type
REMARK                         _______ _______ _______ _____ _____    ______ ____
ROOT
ATOM      1  N   UNL     1       4.542   5.032  17.579  0.00  0.00    +0.000 N 
ATOM      2  C   UNL     1       3.924   4.083  18.491  0.00  0.00    +0.000 C 
ATOM      3  C   UNL     1       3.009   4.938  19.304  0.00  0.00    +0.000 A 
ATOM      4  C   UNL     1       3.095   6.252  18.853  0.00  0.00    +0.000 A 
ATOM      5  C   UNL     1       2.399   7.291  19.426  0.00  0.00    +0.000 A 
ATOM      6  C   UNL     1       1.561   6.994  20.502  0.00  0.00    +0.000 A 
ATOM      7  C   UNL     1       1.445   5.656  20.953  0.00  0.00    +0.000 A 
ATOM      8  C   UNL     1       2.179   4.603  20.365  0.00  0.00    +0.000 A 
ATOM      9  C   UNL     1       4.052   6.322  17.748  0.00  0.00    +0.000 C 
ATOM     10  O   UNL     1       4.317   7.356  17.164  0.00  0.00    +0.000 OA
ENDROOT
BRANCH   1  14
ATOM     11  C   UNL     1       6.119   3.619  12.849  0.00  0.00    +0.000 C 
ATOM     12  C   UNL     1       6.423   3.963  14.298  0.00  0.00    +0.000 C 
ATOM     13  C   UNL     1       6.998   4.614  17.044  0.00  0.00    +0.000 C 
ATOM     14  C   UNL     1       5.539   4.660  16.665  0.00  0.00    +0.000 C 
ATOM     15  C   UNL     1       5.268   4.341  15.307  0.00  0.00    +0.000 C 
ENDBRANCH   1  14
BRANCH   8  16
ATOM     16  C   UNL     1       2.054   3.201  20.899  0.00  0.00    +0.000 C 
ATOM     17  F   UNL     1       1.593   2.306  19.981  0.00  0.00    +0.000 F 
ATOM     18  F   UNL     1       3.243   2.703  21.334  0.00  0.00    +0.000 F 
ATOM     19  F   UNL     1       1.201   3.119  21.956  0.00  0.00    +0.000 F 
ENDBRANCH   8  16
BRANCH   6  20
ATOM     20  C   UNL     1       0.787   8.117  21.156  0.00  0.00    +0.000 C 
BRANCH  20  21
ATOM     21  C   UNL     1       1.629   8.974  22.096  0.00  0.00    +0.000 C 
BRANCH  21  22
ATOM     22  O   UNL     1       0.831   9.477  23.175  0.00  0.00    +0.000 OA
BRANCH  22  23
ATOM     23  C   UNL     1      -0.527   9.628  22.748  0.00  0.00    +0.000 C 
BRANCH  23  24
ATOM     24  C   UNL     1      -1.016  11.050  23.004  0.00  0.00    +0.000 C 
BRANCH  24  25
ATOM     25  C   UNL     1      -1.460  11.689  21.732  0.00  0.00    +0.000 A 
ATOM     26  N   UNL     1      -0.839  11.640  20.571  0.00  0.00    +0.000 NA
ATOM     27  N   UNL     1      -1.578  12.353  19.656  0.00  0.00    +0.000 NA
ATOM     28  C   UNL     1      -2.633  12.819  20.279  0.00  0.00    +0.000 A 
ATOM     29  N   UNL     1      -2.601  12.432  21.582  0.00  0.00    +0.000 N 
ATOM     30  C   UNL     1      -3.578  12.753  22.586  0.00  0.00    +0.000 C 
ENDBRANCH  24  25
ENDBRANCH  23  24
ENDBRANCH  22  23
ENDBRANCH  21  22
ENDBRANCH  20  21
ENDBRANCH   6  20
TORSDOF 8
ENDMDL
MODEL 3
REMARK VINA RESULT:      -8.3      0.833      1.498
REMARK  Name = 
REMARK  10 active torsions:
REMARK  status: ('A' for Active; 'I' for Inactive)
REMARK    1  A    between atoms: C_1  and  C_2
REMARK    2  A    between atoms: C_4  and  N_5
REMARK    3  A    between atoms: C_10  and  C_11
REMARK    4  A    between atoms: C_11  and  C_12
REMARK    5  A    between atoms: C_12  and  O_13
REMARK    6  A    between atoms: O_13  and  C_14
REMARK    7  A    between atoms: C_14  and  C_15
REMARK    8  A    between atoms: C_15  and  C_16
REMARK    9  A    between atoms: N_20  and  C_21
REMARK   10  A    between atoms: C_23  and  C_24
REMARK                            x       y       z     vdW  Elec       q    Type
REMARK                         _______ _______ _______ _____ _____    ______ ____
ROOT
ATOM      1  N   UNL     1       4.634   4.946  17.203  0.00  0.00    +0.000 N 
ATOM      2  C   UNL     1       4.011   4.011  18.127  0.00  0.00    +0.000 C 
ATOM      3  C   UNL     1       3.145   4.888  18.968  0.00  0.00    +0.000 A 
ATOM      4  C   UNL     1       3.259   6.201  18.522  0.00  0.00    +0.000 A 
ATOM      5  C   UNL     1       2.610   7.258  19.118  0.00  0.00    +0.000 A 
ATOM      6  C   UNL     1       1.792   6.980  20.215  0.00  0.00    +0.000 A 
ATOM      7  C   UNL     1       1.648   5.643  20.662  0.00  0.00    +0.000 A 
ATOM      8  C   UNL     1       2.333   4.572  20.049  0.00  0.00    +0.000 A 
ATOM      9  C   UNL     1       4.188   6.249  17.391  0.00  0.00    +0.000 C 
ATOM     10  O   UNL     1       4.468   7.278  16.806  0.00  0.00    +0.000 OA
ENDROOT
BRANCH   1  14
ATOM     11  C   UNL     1       6.023   3.401  12.455  0.00  0.00    +0.000 C 
ATOM     12  C   UNL     1       6.384   3.786  13.881  0.00  0.00    +0.000 C 
ATOM     13  C   UNL     1       7.067   4.516  16.582  0.00  0.00    +0.000 C 
ATOM     14  C   UNL     1       5.594   4.550  16.261  0.00  0.00    +0.000 C 
ATOM     15  C   UNL     1       5.269   4.192  14.924  0.00  0.00    +0.000 C 
ENDBRANCH   1  14
BRANCH   8  16
ATOM     16  C   UNL     1       2.181   3.172  20.580  0.00  0.00    +0.000 C 
ATOM     17  F   UNL     1       1.313   3.076  21.627  0.00  0.00    +0.000 F 
ATOM     18  F   UNL     1       1.719   2.305  19.638  0.00  0.00    +0.000 F 
ATOM     19  F   UNL     1       3.356   2.652  21.027  0.00  0.00    +0.000 F 
ENDBRANCH   8  16
BRANCH   6  20
ATOM     20  C   UNL     1       1.071   8.122  20.895  0.00  0.00    +0.000 C 
BRANCH  20  21
ATOM     21  C   UNL     1       1.071   9.415  20.087  0.00  0.00    +0.000 C 
BRANCH  21  22
ATOM     22  O   UNL     1      -0.012  10.264  20.487  0.00  0.00    +0.000 OA
BRANCH  22  23
ATOM     23  C   UNL     1      -1.133  10.062  19.621  0.00  0.00    +0.000 C 
BRANCH  23  24
ATOM     24  C   UNL     1      -1.221  11.180  18.586  0.00  0.00    +0.000 C 
BRANCH  24  25
ATOM     25  C   UNL     1      -2.639  11.417  18.190  0.00  0.00    +0.000 A 
ATOM     26  N   UNL     1      -3.579  11.968  18.930  0.00  0.00    +0.000 NA
ATOM     27  N   UNL     1      -4.741  12.006  18.196  0.00  0.00    +0.000 NA
ATOM     28  C   UNL     1      -4.483  11.478  17.024  0.00  0.00    +0.000 A 
ATOM     29  N   UNL     1      -3.180  11.093  16.974  0.00  0.00    +0.000 N 
ATOM     30  C   UNL     1      -2.523  10.466  15.859  0.00  0.00    +0.000 C 
ENDBRANCH  24  25
ENDBRANCH  23  24
ENDBRANCH  22  23
ENDBRANCH  21  22
ENDBRANCH  20  21
ENDBRANCH   6  20
TORSDOF 8
ENDMDL
MODEL 4
REMARK VINA RESULT:      -8.3      2.543      3.129
REMARK  Name = 
REMARK  10 active torsions:
REMARK  status: ('A' for Active; 'I' for Inactive)
REMARK    1  A    between atoms: C_1  and  C_2
REMARK    2  A    between atoms: C_4  and  N_5
REMARK    3  A    between atoms: C_10  and  C_11
REMARK    4  A    between atoms: C_11  and  C_12
REMARK    5  A    between atoms: C_12  and  O_13
REMARK    6  A    between atoms: O_13  and  C_14
REMARK    7  A    between atoms: C_14  and  C_15
REMARK    8  A    between atoms: C_15  and  C_16
REMARK    9  A    between atoms: N_20  and  C_21
REMARK   10  A    between atoms: C_23  and  C_24
REMARK                            x       y       z     vdW  Elec       q    Type
REMARK                         _______ _______ _______ _____ _____    ______ ____
ROOT
ATOM      1  N   UNL     1       4.588   4.968  17.380  0.00  0.00    +0.000 N 
ATOM      2  C   UNL     1       3.955   4.006  18.269  0.00  0.00    +0.000 C 
ATOM      3  C   UNL     1       3.088   4.859  19.133  0.00  0.00    +0.000 A 
ATOM      4  C   UNL     1       3.212   6.186  18.732  0.00  0.00    +0.000 A 
ATOM      5  C   UNL     1       2.565   7.226  19.359  0.00  0.00    +0.000 A 
ATOM      6  C   UNL     1       1.739   6.917  20.441  0.00  0.00    +0.000 A 
ATOM      7  C   UNL     1       1.585   5.567  20.843  0.00  0.00    +0.000 A 
ATOM      8  C   UNL     1       2.268   4.512  20.198  0.00  0.00    +0.000 A 
ATOM      9  C   UNL     1       4.148   6.266  17.609  0.00  0.00    +0.000 C 
ATOM     10  O   UNL     1       4.438   7.313  17.060  0.00  0.00    +0.000 OA
ENDROOT
BRANCH   1  14
ATOM     11  C   UNL     1       5.989   3.499  12.612  0.00  0.00    +0.000 C 
ATOM     12  C   UNL     1       6.348   3.873  14.041  0.00  0.00    +0.000 C 
ATOM     13  C   UNL     1       7.026   4.584  16.749  0.00  0.00    +0.000 C 
ATOM     14  C   UNL     1       5.552   4.597  16.432  0.00  0.00    +0.000 C 
ATOM     15  C   UNL     1       5.230   4.249  15.092  0.00  0.00    +0.000 C 
ENDBRANCH   1  14
BRANCH   8  16
ATOM     16  C   UNL     1       2.104   3.096  20.681  0.00  0.00    +0.000 C 
ATOM     17  F   UNL     1       1.650   2.241  19.721  0.00  0.00    +0.000 F 
ATOM     18  F   UNL     1       3.273   2.560  21.128  0.00  0.00    +0.000 F 
ATOM     19  F   UNL     1       1.223   2.995  21.713  0.00  0.00    +0.000 F 
ENDBRANCH   8  16
BRANCH   6  20
ATOM     20  C   UNL     1       1.020   8.040  21.155  0.00  0.00    +0.000 C 
BRANCH  20  21
ATOM     21  C   UNL     1       0.623   9.192  20.239  0.00  0.00    +0.000 C 
BRANCH  21  22
ATOM     22  O   UNL     1      -0.353  10.030  20.872  0.00  0.00    +0.000 OA
BRANCH  22  23
ATOM     23  C   UNL     1      -0.392  11.305  20.225  0.00  0.00    +0.000 C 
BRANCH  23  24
ATOM     24  C   UNL     1       0.970  11.649  19.630  0.00  0.00    +0.000 C 
BRANCH  24  25
ATOM     25  C   UNL     1       1.578  12.807  20.346  0.00  0.00    +0.000 A 
ATOM     26  N   UNL     1       1.325  13.185  21.583  0.00  0.00    +0.000 NA
ATOM     27  N   UNL     1       2.092  14.290  21.863  0.00  0.00    +0.000 NA
ATOM     28  C   UNL     1       2.797  14.562  20.791  0.00  0.00    +0.000 A 
ATOM     29  N   UNL     1       2.506  13.662  19.815  0.00  0.00    +0.000 N 
ATOM     30  C   UNL     1       3.070  13.634  18.492  0.00  0.00    +0.000 C 
ENDBRANCH  24  25
ENDBRANCH  23  24
ENDBRANCH  22  23
ENDBRANCH  21  22
ENDBRANCH  20  21
ENDBRANCH   6  20
TORSDOF 8
ENDMDL
MODEL 5
REMARK VINA RESULT:      -8.3      2.394      7.812
REMARK  Name = 
REMARK  10 active torsions:
REMARK  status: ('A' for Active; 'I' for Inactive)
REMARK    1  A    between atoms: C_1  and  C_2
REMARK    2  A    between atoms: C_4  and  N_5
REMARK    3  A    between atoms: C_10  and  C_11
REMARK    4  A    between atoms: C_11  and  C_12
REMARK    5  A    between atoms: C_12  and  O_13
REMARK    6  A    between atoms: O_13  and  C_14
REMARK    7  A    between atoms: C_14  and  C_15
REMARK    8  A    between atoms: C_15  and  C_16
REMARK    9  A    between atoms: N_20  and  C_21
REMARK   10  A    between atoms: C_23  and  C_24
REMARK                            x       y       z     vdW  Elec       q    Type
REMARK                         _______ _______ _______ _____ _____    ______ ____
ROOT
ATOM      1  N   UNL     1       1.730   7.685  20.071  0.00  0.00    +0.000 N 
ATOM      2  C   UNL     1       1.630   6.425  20.790  0.00  0.00    +0.000 C 
ATOM      3  C   UNL     1       2.277   5.450  19.863  0.00  0.00    +0.000 A 
ATOM      4  C   UNL     1       2.726   6.128  18.733  0.00  0.00    +0.000 A 
ATOM      5  C   UNL     1       3.335   5.500  17.671  0.00  0.00    +0.000 A 
ATOM      6  C   UNL     1       3.514   4.118  17.752  0.00  0.00    +0.000 A 
ATOM      7  C   UNL     1       3.084   3.421  18.909  0.00  0.00    +0.000 A 
ATOM      8  C   UNL     1       2.447   4.078  19.984  0.00  0.00    +0.000 A 
ATOM      9  C   UNL     1       2.399   7.549  18.861  0.00  0.00    +0.000 C 
ATOM     10  O   UNL     1       2.683   8.373  18.011  0.00  0.00    +0.000 OA
ENDROOT
BRANCH   1  14
ATOM     11  C   UNL     1      -1.023  12.034  19.472  0.00  0.00    +0.000 C 
ATOM     12  C   UNL     1      -0.220  11.085  20.347  0.00  0.00    +0.000 C 
ATOM     13  C   UNL     1       1.303   9.287  22.004  0.00  0.00    +0.000 C 
ATOM     14  C   UNL     1       1.177   8.877  20.559  0.00  0.00    +0.000 C 
ATOM     15  C   UNL     1       0.420   9.770  19.752  0.00  0.00    +0.000 C 
ENDBRANCH   1  14
BRANCH   8  16
ATOM     16  C   UNL     1       1.973   3.293  21.178  0.00  0.00    +0.000 C 
ATOM     17  F   UNL     1       2.270   3.882  22.371  0.00  0.00    +0.000 F 
ATOM     18  F   UNL     1       0.624   3.115  21.181  0.00  0.00    +0.000 F 
ATOM     19  F   UNL     1       2.519   2.048  21.235  0.00  0.00    +0.000 F 
ENDBRANCH   8  16
BRANCH   6  20
ATOM     20  C   UNL     1       4.174   3.398  16.597  0.00  0.00    +0.000 C 
BRANCH  20  21
ATOM     21  C   UNL     1       4.852   4.333  15.601  0.00  0.00    +0.000 C 
BRANCH  21  22
ATOM     22  O   UNL     1       6.032   3.726  15.059  0.00  0.00    +0.000 OA
BRANCH  22  23
ATOM     23  C   UNL     1       7.123   4.651  15.113  0.00  0.00    +0.000 C 
BRANCH  23  24
ATOM     24  C   UNL     1       6.742   5.885  15.926  0.00  0.00    +0.000 C 
BRANCH  24  25
ATOM     25  C   UNL     1       7.269   5.779  17.317  0.00  0.00    +0.000 A 
ATOM     26  N   UNL     1       7.370   4.679  18.036  0.00  0.00    +0.000 NA
ATOM     27  N   UNL     1       7.906   5.010  19.258  0.00  0.00    +0.000 NA
ATOM     28  C   UNL     1       8.122   6.303  19.257  0.00  0.00    +0.000 A 
ATOM     29  N   UNL     1       7.736   6.828  18.063  0.00  0.00    +0.000 N 
ATOM     30  C   UNL     1       7.807   8.213  17.683  0.00  0.00    +0.000 C 
ENDBRANCH  24  25
ENDBRANCH  23  24
ENDBRANCH  22  23
ENDBRANCH  21  22
ENDBRANCH  20  21
ENDBRANCH   6  20
TORSDOF 8
ENDMDL
MODEL 6
REMARK VINA RESULT:      -8.2      1.567      1.993
REMARK  Name = 
REMARK  10 active torsions:
REMARK  status: ('A' for Active; 'I' for Inactive)
REMARK    1  A    between atoms: C_1  and  C_2
REMARK    2  A    between atoms: C_4  and  N_5
REMARK    3  A    between atoms: C_10  and  C_11
REMARK    4  A    between atoms: C_11  and  C_12
REMARK    5  A    between atoms: C_12  and  O_13
REMARK    6  A    between atoms: O_13  and  C_14
REMARK    7  A    between atoms: C_14  and  C_15
REMARK    8  A    between atoms: C_15  and  C_16
REMARK    9  A    between atoms: N_20  and  C_21
REMARK   10  A    between atoms: C_23  and  C_24
REMARK                            x       y       z     vdW  Elec       q    Type
REMARK                         _______ _______ _______ _____ _____    ______ ____
ROOT
ATOM      1  N   UNL     1       4.645   4.832  17.351  0.00  0.00    +0.000 N 
ATOM      2  C   UNL     1       4.102   3.803  18.224  0.00  0.00    +0.000 C 
ATOM      3  C   UNL     1       3.194   4.568  19.129  0.00  0.00    +0.000 A 
ATOM      4  C   UNL     1       3.213   5.911  18.762  0.00  0.00    +0.000 A 
ATOM      5  C   UNL     1       2.506   6.884  19.430  0.00  0.00    +0.000 A 
ATOM      6  C   UNL     1       1.728   6.486  20.519  0.00  0.00    +0.000 A 
ATOM      7  C   UNL     1       1.681   5.119  20.886  0.00  0.00    +0.000 A 
ATOM      8  C   UNL     1       2.424   4.134  20.200  0.00  0.00    +0.000 A 
ATOM      9  C   UNL     1       4.117   6.088  17.625  0.00  0.00    +0.000 C 
ATOM     10  O   UNL     1       4.318   7.167  17.099  0.00  0.00    +0.000 OA
ENDROOT
BRANCH   1  14
ATOM     11  C   UNL     1       6.045   3.505  12.541  0.00  0.00    +0.000 C 
ATOM     12  C   UNL     1       6.406   3.914  13.960  0.00  0.00    +0.000 C 
ATOM     13  C   UNL     1       7.089   4.690  16.648  0.00  0.00    +0.000 C 
ATOM     14  C   UNL     1       5.612   4.557  16.374  0.00  0.00    +0.000 C 
ATOM     15  C   UNL     1       5.287   4.178  15.043  0.00  0.00    +0.000 C 
ENDBRANCH   1  14
BRANCH   8  16
ATOM     16  C   UNL     1       2.374   2.698  20.646  0.00  0.00    +0.000 C 
ATOM     17  F   UNL     1       1.495   2.473  21.664  0.00  0.00    +0.000 F 
ATOM     18  F   UNL     1       2.003   1.854  19.645  0.00  0.00    +0.000 F 
ATOM     19  F   UNL     1       3.578   2.248  21.093  0.00  0.00    +0.000 F 
ENDBRANCH   8  16
BRANCH   6  20
ATOM     20  C   UNL     1       0.945   7.535  21.278  0.00  0.00    +0.000 C 
BRANCH  20  21
ATOM     21  C   UNL     1       1.260   8.963  20.849  0.00  0.00    +0.000 C 
BRANCH  21  22
ATOM     22  O   UNL     1       1.176   9.858  21.965  0.00  0.00    +0.000 OA
BRANCH  22  23
ATOM     23  C   UNL     1       0.025  10.698  21.831  0.00  0.00    +0.000 C 
BRANCH  23  24
ATOM     24  C   UNL     1      -0.439  10.746  20.378  0.00  0.00    +0.000 C 
BRANCH  24  25
ATOM     25  C   UNL     1      -0.206  12.100  19.799  0.00  0.00    +0.000 A 
ATOM     26  N   UNL     1       0.632  13.013  20.247  0.00  0.00    +0.000 NA
ATOM     27  N   UNL     1       0.547  14.116  19.432  0.00  0.00    +0.000 NA
ATOM     28  C   UNL     1      -0.340  13.852  18.503  0.00  0.00    +0.000 A 
ATOM     29  N   UNL     1      -0.841  12.602  18.694  0.00  0.00    +0.000 N 
ATOM     30  C   UNL     1      -1.841  11.958  17.886  0.00  0.00    +0.000 C 
ENDBRANCH  24  25
ENDBRANCH  23  24
ENDBRANCH  22  23
ENDBRANCH  21  22
ENDBRANCH  20  21
ENDBRANCH   6  20
TORSDOF 8
ENDMDL
MODEL 7
REMARK VINA RESULT:      -8.2      1.058      1.722
REMARK  Name = 
REMARK  10 active torsions:
REMARK  status: ('A' for Active; 'I' for Inactive)
REMARK    1  A    between atoms: C_1  and  C_2
REMARK    2  A    between atoms: C_4  and  N_5
REMARK    3  A    between atoms: C_10  and  C_11
REMARK    4  A    between atoms: C_11  and  C_12
REMARK    5  A    between atoms: C_12  and  O_13
REMARK    6  A    between atoms: O_13  and  C_14
REMARK    7  A    between atoms: C_14  and  C_15
REMARK    8  A    between atoms: C_15  and  C_16
REMARK    9  A    between atoms: N_20  and  C_21
REMARK   10  A    between atoms: C_23  and  C_24
REMARK                            x       y       z     vdW  Elec       q    Type
REMARK                         _______ _______ _______ _____ _____    ______ ____
ROOT
ATOM      1  N   UNL     1       4.518   4.871  17.209  0.00  0.00    +0.000 N 
ATOM      2  C   UNL     1       3.735   3.833  17.860  0.00  0.00    +0.000 C 
ATOM      3  C   UNL     1       2.878   4.598  18.812  0.00  0.00    +0.000 A 
ATOM      4  C   UNL     1       3.146   5.957  18.673  0.00  0.00    +0.000 A 
ATOM      5  C   UNL     1       2.542   6.926  19.441  0.00  0.00    +0.000 A 
ATOM      6  C   UNL     1       1.609   6.510  20.392  0.00  0.00    +0.000 A 
ATOM      7  C   UNL     1       1.308   5.132  20.524  0.00  0.00    +0.000 A 
ATOM      8  C   UNL     1       1.948   4.148  19.739  0.00  0.00    +0.000 A 
ATOM      9  C   UNL     1       4.173   6.144  17.647  0.00  0.00    +0.000 C 
ATOM     10  O   UNL     1       4.595   7.238  17.322  0.00  0.00    +0.000 OA
ENDROOT
BRANCH   1  14
ATOM     11  C   UNL     1       6.088   3.505  12.462  0.00  0.00    +0.000 C 
ATOM     12  C   UNL     1       6.398   3.920  13.892  0.00  0.00    +0.000 C 
ATOM     13  C   UNL     1       6.986   4.705  16.600  0.00  0.00    +0.000 C 
ATOM     14  C   UNL     1       5.519   4.583  16.270  0.00  0.00    +0.000 C 
ATOM     15  C   UNL     1       5.242   4.199  14.930  0.00  0.00    +0.000 C 
ENDBRANCH   1  14
BRANCH   8  16
ATOM     16  C   UNL     1       1.625   2.692  19.939  0.00  0.00    +0.000 C 
ATOM     17  F   UNL     1       0.901   2.442  21.067  0.00  0.00    +0.000 F 
ATOM     18  F   UNL     1       0.897   2.174  18.912  0.00  0.00    +0.000 F 
ATOM     19  F   UNL     1       2.741   1.919  20.038  0.00  0.00    +0.000 F 
ENDBRANCH   8  16
BRANCH   6  20
ATOM     20  C   UNL     1       0.933   7.552  21.255  0.00  0.00    +0.000 C 
BRANCH  20  21
ATOM     21  C   UNL     1       1.430   8.972  21.004  0.00  0.00    +0.000 C 
BRANCH  21  22
ATOM     22  O   UNL     1       1.255   9.785  22.172  0.00  0.00    +0.000 OA
BRANCH  22  23
ATOM     23  C   UNL     1       0.158  10.683  21.979  0.00  0.00    +0.000 C 
BRANCH  23  24
ATOM     24  C   UNL     1       0.313  11.448  20.668  0.00  0.00    +0.000 C 
BRANCH  24  25
ATOM     25  C   UNL     1      -1.011  11.626  20.005  0.00  0.00    +0.000 A 
ATOM     26  N   UNL     1      -2.012  12.366  20.437  0.00  0.00    +0.000 NA
ATOM     27  N   UNL     1      -3.046  12.262  19.538  0.00  0.00    +0.000 NA
ATOM     28  C   UNL     1      -2.654  11.462  18.577  0.00  0.00    +0.000 A 
ATOM     29  N   UNL     1      -1.387  11.036  18.828  0.00  0.00    +0.000 N 
ATOM     30  C   UNL     1      -0.616  10.141  18.008  0.00  0.00    +0.000 C 
ENDBRANCH  24  25
ENDBRANCH  23  24
ENDBRANCH  22  23
ENDBRANCH  21  22
ENDBRANCH  20  21
ENDBRANCH   6  20
TORSDOF 8
ENDMDL
MODEL 8
REMARK VINA RESULT:      -8.2      1.346      1.884
REMARK  Name = 
REMARK  10 active torsions:
REMARK  status: ('A' for Active; 'I' for Inactive)
REMARK    1  A    between atoms: C_1  and  C_2
REMARK    2  A    between atoms: C_4  and  N_5
REMARK    3  A    between atoms: C_10  and  C_11
REMARK    4  A    between atoms: C_11  and  C_12
REMARK    5  A    between atoms: C_12  and  O_13
REMARK    6  A    between atoms: O_13  and  C_14
REMARK    7  A    between atoms: C_14  and  C_15
REMARK    8  A    between atoms: C_15  and  C_16
REMARK    9  A    between atoms: N_20  and  C_21
REMARK   10  A    between atoms: C_23  and  C_24
REMARK                            x       y       z     vdW  Elec       q    Type
REMARK                         _______ _______ _______ _____ _____    ______ ____
ROOT
ATOM      1  N   UNL     1       4.602   4.963  17.483  0.00  0.00    +0.000 N 
ATOM      2  C   UNL     1       4.023   4.001  18.408  0.00  0.00    +0.000 C 
ATOM      3  C   UNL     1       3.101   4.835  19.233  0.00  0.00    +0.000 A 
ATOM      4  C   UNL     1       3.147   6.149  18.779  0.00  0.00    +0.000 A 
ATOM      5  C   UNL     1       2.434   7.173  19.360  0.00  0.00    +0.000 A 
ATOM      6  C   UNL     1       1.622   6.858  20.451  0.00  0.00    +0.000 A 
ATOM      7  C   UNL     1       1.547   5.519  20.907  0.00  0.00    +0.000 A 
ATOM      8  C   UNL     1       2.296   4.482  20.309  0.00  0.00    +0.000 A 
ATOM      9  C   UNL     1       4.083   6.240  17.657  0.00  0.00    +0.000 C 
ATOM     10  O   UNL     1       4.312   7.279  17.066  0.00  0.00    +0.000 OA
ENDROOT
BRANCH   1  14
ATOM     11  C   UNL     1       6.137   3.602  12.724  0.00  0.00    +0.000 C 
ATOM     12  C   UNL     1       6.455   3.943  14.171  0.00  0.00    +0.000 C 
ATOM     13  C   UNL     1       7.057   4.590  16.912  0.00  0.00    +0.000 C 
ATOM     14  C   UNL     1       5.592   4.613  16.554  0.00  0.00    +0.000 C 
ATOM     15  C   UNL     1       5.308   4.296  15.198  0.00  0.00    +0.000 C 
ENDBRANCH   1  14
BRANCH   8  16
ATOM     16  C   UNL     1       2.216   3.080  20.849  0.00  0.00    +0.000 C 
ATOM     17  F   UNL     1       1.438   2.968  21.963  0.00  0.00    +0.000 F 
ATOM     18  F   UNL     1       1.696   2.204  19.947  0.00  0.00    +0.000 F 
ATOM     19  F   UNL     1       3.434   2.584  21.198  0.00  0.00    +0.000 F 
ENDBRANCH   8  16
BRANCH   6  20
ATOM     20  C   UNL     1       0.832   7.964  21.116  0.00  0.00    +0.000 C 
BRANCH  20  21
ATOM     21  C   UNL     1       1.670   8.850  22.030  0.00  0.00    +0.000 C 
BRANCH  21  22
ATOM     22  O   UNL     1       0.829   9.698  22.824  0.00  0.00    +0.000 OA
BRANCH  22  23
ATOM     23  C   UNL     1      -0.155  10.323  21.994  0.00  0.00    +0.000 C 
BRANCH  23  24
ATOM     24  C   UNL     1       0.450  11.504  21.241  0.00  0.00    +0.000 C 
BRANCH  24  25
ATOM     25  C   UNL     1      -0.371  11.836  20.041  0.00  0.00    +0.000 A 
ATOM     26  N   UNL     1      -1.641  11.540  19.852  0.00  0.00    +0.000 NA
ATOM     27  N   UNL     1      -2.020  12.024  18.623  0.00  0.00    +0.000 NA
ATOM     28  C   UNL     1      -0.973  12.606  18.089  0.00  0.00    +0.000 A 
ATOM     29  N   UNL     1       0.084  12.510  18.939  0.00  0.00    +0.000 N 
ATOM     30  C   UNL     1       1.408  13.019  18.705  0.00  0.00    +0.000 C 
ENDBRANCH  24  25
ENDBRANCH  23  24
ENDBRANCH  22  23
ENDBRANCH  21  22
ENDBRANCH  20  21
ENDBRANCH   6  20
TORSDOF 8
ENDMDL
MODEL 9
REMARK VINA RESULT:      -8.2      2.197      2.638
REMARK  Name = 
REMARK  10 active torsions:
REMARK  status: ('A' for Active; 'I' for Inactive)
REMARK    1  A    between atoms: C_1  and  C_2
REMARK    2  A    between atoms: C_4  and  N_5
REMARK    3  A    between atoms: C_10  and  C_11
REMARK    4  A    between atoms: C_11  and  C_12
REMARK    5  A    between atoms: C_12  and  O_13
REMARK    6  A    between atoms: O_13  and  C_14
REMARK    7  A    between atoms: C_14  and  C_15
REMARK    8  A    between atoms: C_15  and  C_16
REMARK    9  A    between atoms: N_20  and  C_21
REMARK   10  A    between atoms: C_23  and  C_24
REMARK                            x       y       z     vdW  Elec       q    Type
REMARK                         _______ _______ _______ _____ _____    ______ ____
ROOT
ATOM      1  N   UNL     1       4.520   4.842  17.160  0.00  0.00    +0.000 N 
ATOM      2  C   UNL     1       3.636   3.864  17.774  0.00  0.00    +0.000 C 
ATOM      3  C   UNL     1       2.846   4.679  18.743  0.00  0.00    +0.000 A 
ATOM      4  C   UNL     1       3.245   6.009  18.648  0.00  0.00    +0.000 A 
ATOM      5  C   UNL     1       2.728   7.008  19.441  0.00  0.00    +0.000 A 
ATOM      6  C   UNL     1       1.750   6.655  20.373  0.00  0.00    +0.000 A 
ATOM      7  C   UNL     1       1.318   5.308  20.460  0.00  0.00    +0.000 A 
ATOM      8  C   UNL     1       1.869   4.292  19.650  0.00  0.00    +0.000 A 
ATOM      9  C   UNL     1       4.295   6.128  17.636  0.00  0.00    +0.000 C 
ATOM     10  O   UNL     1       4.822   7.187  17.347  0.00  0.00    +0.000 OA
ENDROOT
BRANCH   1  14
ATOM     11  C   UNL     1       5.994   3.418  12.399  0.00  0.00    +0.000 C 
ATOM     12  C   UNL     1       6.331   3.789  13.835  0.00  0.00    +0.000 C 
ATOM     13  C   UNL     1       6.970   4.490  16.555  0.00  0.00    +0.000 C 
ATOM     14  C   UNL     1       5.499   4.488  16.220  0.00  0.00    +0.000 C 
ATOM     15  C   UNL     1       5.196   4.145  14.875  0.00  0.00    +0.000 C 
ENDBRANCH   1  14
BRANCH   8  16
ATOM     16  C   UNL     1       1.407   2.868  19.801  0.00  0.00    +0.000 C 
ATOM     17  F   UNL     1       2.403   1.951  19.639  0.00  0.00    +0.000 F 
ATOM     18  F   UNL     1       0.876   2.621  21.030  0.00  0.00    +0.000 F 
ATOM     19  F   UNL     1       0.445   2.532  18.899  0.00  0.00    +0.000 F 
ENDBRANCH   8  16
BRANCH   6  20
ATOM     20  C   UNL     1       1.169   7.730  21.263  0.00  0.00    +0.000 C 
BRANCH  20  21
ATOM     21  C   UNL     1       0.798   9.008  20.518  0.00  0.00    +0.000 C 
BRANCH  21  22
ATOM     22  O   UNL     1      -0.200   9.743  21.238  0.00  0.00    +0.000 OA
BRANCH  22  23
ATOM     23  C   UNL     1      -0.310  11.066  20.703  0.00  0.00    +0.000 C 
BRANCH  23  24
ATOM     24  C   UNL     1      -0.342  12.099  21.826  0.00  0.00    +0.000 C 
BRANCH  24  25
ATOM     25  C   UNL     1      -1.723  12.242  22.368  0.00  0.00    +0.000 A 
ATOM     26  N   UNL     1      -2.242  11.579  23.382  0.00  0.00    +0.000 NA
ATOM     27  N   UNL     1      -3.535  12.008  23.562  0.00  0.00    +0.000 NA
ATOM     28  C   UNL     1      -3.778  12.923  22.655  0.00  0.00    +0.000 A 
ATOM     29  N   UNL     1      -2.673  13.102  21.883  0.00  0.00    +0.000 N 
ATOM     30  C   UNL     1      -2.550  14.014  20.778  0.00  0.00    +0.000 C 
ENDBRANCH  24  25
ENDBRANCH  23  24
ENDBRANCH  22  23
ENDBRANCH  21  22
ENDBRANCH  20  21
ENDBRANCH   6  20
TORSDOF 8
ENDMDL
