MODEL 1
REMARK VINA RESULT:      -8.3      0.000      0.000
REMARK  Name = 
REMARK  4 active torsions:
REMARK  status: ('A' for Active; 'I' for Inactive)
REMARK    1  A    between atoms: C_1  and  C_2
REMARK    2  A    between atoms: C_2  and  C_3
REMARK    3  A    between atoms: C_5  and  N_6
REMARK    4  A    between atoms: C_7  and  C_9
REMARK                            x       y       z     vdW  Elec       q    Type
REMARK                         _______ _______ _______ _____ _____    ______ ____
ROOT
ATOM      1  N   UNL     1       3.079   6.925  19.281  0.00  0.00    +0.000 N 
ATOM      2  C   UNL     1       2.200   7.618  20.080  0.00  0.00    +0.000 C 
ATOM      3  O   UNL     1       1.971   7.273  21.238  0.00  0.00    +0.000 OA
ATOM      4  H   UNL     1       3.267   7.220  18.332  0.00  0.00    +0.000 HD
ENDROOT
BRANCH   1   9
ATOM      5  C   UNL     1       6.543   4.483  17.519  0.00  0.00    +0.000 C 
ATOM      6  C   UNL     1       5.072   4.763  17.860  0.00  0.00    +0.000 C 
ATOM      7  C   UNL     1       4.469   5.601  16.725  0.00  0.00    +0.000 C 
ATOM      8  C   UNL     1       5.026   5.413  19.246  0.00  0.00    +0.000 C 
ATOM      9  C   UNL     1       3.597   5.635  19.727  0.00  0.00    +0.000 C 
ATOM     10  C   UNL     1       2.699   4.488  19.322  0.00  0.00    +0.000 A 
ATOM     11  C   UNL     1       1.397   4.386  19.851  0.00  0.00    +0.000 A 
ATOM     12  C   UNL     1       0.576   3.310  19.507  0.00  0.00    +0.000 A 
ATOM     13  C   UNL     1       1.060   2.335  18.641  0.00  0.00    +0.000 A 
ATOM     14  F   UNL     1       0.272   1.305  18.303  0.00  0.00    +0.000 F 
ATOM     15  C   UNL     1       2.345   2.408  18.119  0.00  0.00    +0.000 A 
ATOM     16  C   UNL     1       3.156   3.493  18.453  0.00  0.00    +0.000 A 
ATOM     17  O   UNL     1       4.407   3.485  17.890  0.00  0.00    +0.000 OA
ENDBRANCH   1   9
BRANCH   2  18
ATOM     18  C   UNL     1       1.385   8.681  19.400  0.00  0.00    +0.000 A 
ATOM     19  C   UNL     1       1.763   8.819  18.115  0.00  0.00    +0.000 A 
ATOM     20  N   UNL     1       1.922  10.065  17.564  0.00  0.00    +0.000 N 
ATOM     21  C   UNL     1       1.876  11.222  18.337  0.00  0.00    +0.000 A 
ATOM     22  O   UNL     1       2.421  12.255  17.988  0.00  0.00    +0.000 OA
ATOM     23  C   UNL     1       1.085  11.111  19.580  0.00  0.00    +0.000 A 
ATOM     24  C   UNL     1       0.574  12.263  20.178  0.00  0.00    +0.000 A 
ATOM     25  C   UNL     1      -0.418  12.144  21.148  0.00  0.00    +0.000 A 
ATOM     26  C   UNL     1      -0.885  10.879  21.520  0.00  0.00    +0.000 A 
ATOM     27  C   UNL     1      -0.299   9.722  20.988  0.00  0.00    +0.000 A 
ATOM     28  C   UNL     1       0.732   9.834  20.035  0.00  0.00    +0.000 A 
ATOM     29  H   UNL     1       2.424  10.148  16.684  0.00  0.00    +0.000 HD
ENDBRANCH   2  18
TORSDOF 2
ENDMDL
MODEL 2
REMARK VINA RESULT:      -8.0      2.337      3.977
REMARK  Name = 
REMARK  4 active torsions:
REMARK  status: ('A' for Active; 'I' for Inactive)
REMARK    1  A    between atoms: C_1  and  C_2
REMARK    2  A    between atoms: C_2  and  C_3
REMARK    3  A    between atoms: C_5  and  N_6
REMARK    4  A    between atoms: C_7  and  C_9
REMARK                            x       y       z     vdW  Elec       q    Type
REMARK                         _______ _______ _______ _____ _____    ______ ____
ROOT
ATOM      1  N   UNL     1       1.995   6.754  18.803  0.00  0.00    +0.000 N 
ATOM      2  C   UNL     1       1.750   8.069  18.486  0.00  0.00    +0.000 C 
ATOM      3  O   UNL     1       1.758   8.465  17.321  0.00  0.00    +0.000 OA
ATOM      4  H   UNL     1       1.979   6.436  19.762  0.00  0.00    +0.000 HD
ENDROOT
BRANCH   1   9
ATOM      5  C   UNL     1       1.665   2.178  18.662  0.00  0.00    +0.000 C 
ATOM      6  C   UNL     1       2.413   3.515  18.774  0.00  0.00    +0.000 C 
ATOM      7  C   UNL     1       2.422   3.936  20.249  0.00  0.00    +0.000 C 
ATOM      8  C   UNL     1       1.745   4.507  17.817  0.00  0.00    +0.000 C 
ATOM      9  C   UNL     1       2.481   5.842  17.772  0.00  0.00    +0.000 C 
ATOM     10  C   UNL     1       3.978   5.644  17.845  0.00  0.00    +0.000 A 
ATOM     11  C   UNL     1       4.849   6.723  17.599  0.00  0.00    +0.000 A 
ATOM     12  C   UNL     1       6.233   6.538  17.631  0.00  0.00    +0.000 A 
ATOM     13  C   UNL     1       6.743   5.273  17.903  0.00  0.00    +0.000 A 
ATOM     14  F   UNL     1       8.070   5.093  17.942  0.00  0.00    +0.000 F 
ATOM     15  C   UNL     1       5.903   4.191  18.135  0.00  0.00    +0.000 A 
ATOM     16  C   UNL     1       4.522   4.385  18.117  0.00  0.00    +0.000 A 
ATOM     17  O   UNL     1       3.769   3.263  18.359  0.00  0.00    +0.000 OA
ENDBRANCH   1   9
BRANCH   2  18
ATOM     18  C   UNL     1       1.683   9.026  19.641  0.00  0.00    +0.000 A 
ATOM     19  C   UNL     1       1.995   8.402  20.793  0.00  0.00    +0.000 A 
ATOM     20  N   UNL     1       1.256   8.621  21.928  0.00  0.00    +0.000 N 
ATOM     21  C   UNL     1       0.066   9.343  21.903  0.00  0.00    +0.000 A 
ATOM     22  O   UNL     1      -0.800   9.194  22.748  0.00  0.00    +0.000 OA
ATOM     23  C   UNL     1      -0.043  10.327  20.806  0.00  0.00    +0.000 A 
ATOM     24  C   UNL     1      -0.920  11.406  20.931  0.00  0.00    +0.000 A 
ATOM     25  C   UNL     1      -0.798  12.486  20.062  0.00  0.00    +0.000 A 
ATOM     26  C   UNL     1       0.189  12.480  19.071  0.00  0.00    +0.000 A 
ATOM     27  C   UNL     1       1.002  11.353  18.888  0.00  0.00    +0.000 A 
ATOM     28  C   UNL     1       0.858  10.239  19.737  0.00  0.00    +0.000 A 
ATOM     29  H   UNL     1       1.359   7.976  22.708  0.00  0.00    +0.000 HD
ENDBRANCH   2  18
TORSDOF 2
ENDMDL
MODEL 3
REMARK VINA RESULT:      -7.8      2.541      4.049
REMARK  Name = 
REMARK  4 active torsions:
REMARK  status: ('A' for Active; 'I' for Inactive)
REMARK    1  A    between atoms: C_1  and  C_2
REMARK    2  A    between atoms: C_2  and  C_3
REMARK    3  A    between atoms: C_5  and  N_6
REMARK    4  A    between atoms: C_7  and  C_9
REMARK                            x       y       z     vdW  Elec       q    Type
REMARK                         _______ _______ _______ _____ _____    ______ ____
ROOT
ATOM      1  N   UNL     1       2.006   7.211  18.785  0.00  0.00    +0.000 N 
ATOM      2  C   UNL     1       1.739   8.463  18.280  0.00  0.00    +0.000 C 
ATOM      3  O   UNL     1       1.715   8.679  17.070  0.00  0.00    +0.000 OA
ATOM      4  H   UNL     1       2.016   7.041  19.781  0.00  0.00    +0.000 HD
ENDROOT
BRANCH   1   9
ATOM      5  C   UNL     1       1.644   2.665  19.297  0.00  0.00    +0.000 C 
ATOM      6  C   UNL     1       2.402   3.998  19.213  0.00  0.00    +0.000 C 
ATOM      7  C   UNL     1       2.424   4.624  20.614  0.00  0.00    +0.000 C 
ATOM      8  C   UNL     1       1.734   4.850  18.130  0.00  0.00    +0.000 C 
ATOM      9  C   UNL     1       2.479   6.159  17.891  0.00  0.00    +0.000 C 
ATOM     10  C   UNL     1       3.975   5.961  17.983  0.00  0.00    +0.000 A 
ATOM     11  C   UNL     1       4.852   6.987  17.581  0.00  0.00    +0.000 A 
ATOM     12  C   UNL     1       6.234   6.798  17.630  0.00  0.00    +0.000 A 
ATOM     13  C   UNL     1       6.738   5.580  18.076  0.00  0.00    +0.000 A 
ATOM     14  F   UNL     1       8.064   5.397  18.133  0.00  0.00    +0.000 F 
ATOM     15  C   UNL     1       5.892   4.549  18.464  0.00  0.00    +0.000 A 
ATOM     16  C   UNL     1       4.512   4.749  18.427  0.00  0.00    +0.000 A 
ATOM     17  O   UNL     1       3.753   3.679  18.831  0.00  0.00    +0.000 OA
ENDBRANCH   1   9
BRANCH   2  18
ATOM     18  C   UNL     1       1.688   9.582  19.280  0.00  0.00    +0.000 A 
ATOM     19  C   UNL     1       1.265   9.131  20.476  0.00  0.00    +0.000 A 
ATOM     20  N   UNL     1       0.343   9.841  21.204  0.00  0.00    +0.000 N 
ATOM     21  C   UNL     1      -0.318  10.946  20.675  0.00  0.00    +0.000 A 
ATOM     22  O   UNL     1      -1.400  11.316  21.098  0.00  0.00    +0.000 OA
ATOM     23  C   UNL     1       0.410  11.653  19.601  0.00  0.00    +0.000 A 
ATOM     24  C   UNL     1       0.109  12.988  19.327  0.00  0.00    +0.000 A 
ATOM     25  C   UNL     1       0.989  13.739  18.552  0.00  0.00    +0.000 A 
ATOM     26  C   UNL     1       2.156  13.153  18.051  0.00  0.00    +0.000 A 
ATOM     27  C   UNL     1       2.404  11.788  18.248  0.00  0.00    +0.000 A 
ATOM     28  C   UNL     1       1.499  11.011  18.996  0.00  0.00    +0.000 A 
ATOM     29  H   UNL     1      -0.129   9.378  21.976  0.00  0.00    +0.000 HD
ENDBRANCH   2  18
TORSDOF 2
ENDMDL
MODEL 4
REMARK VINA RESULT:      -7.8      5.603      9.028
REMARK  Name = 
REMARK  4 active torsions:
REMARK  status: ('A' for Active; 'I' for Inactive)
REMARK    1  A    between atoms: C_1  and  C_2
REMARK    2  A    between atoms: C_2  and  C_3
REMARK    3  A    between atoms: C_5  and  N_6
REMARK    4  A    between atoms: C_7  and  C_9
REMARK                            x       y       z     vdW  Elec       q    Type
REMARK                         _______ _______ _______ _____ _____    ______ ____
ROOT
ATOM      1  N   UNL     1      -2.264  13.124  22.708  0.00  0.00    +0.000 N 
ATOM      2  C   UNL     1      -2.523  14.080  23.662  0.00  0.00    +0.000 C 
ATOM      3  O   UNL     1      -1.647  14.846  24.062  0.00  0.00    +0.000 OA
ATOM      4  H   UNL     1      -2.991  12.504  22.379  0.00  0.00    +0.000 HD
ENDROOT
BRANCH   1   9
ATOM      5  C   UNL     1      -0.290  13.895  18.636  0.00  0.00    +0.000 C 
ATOM      6  C   UNL     1      -0.829  13.017  19.777  0.00  0.00    +0.000 C 
ATOM      7  C   UNL     1      -2.325  12.780  19.531  0.00  0.00    +0.000 C 
ATOM      8  C   UNL     1      -0.487  13.706  21.100  0.00  0.00    +0.000 C 
ATOM      9  C   UNL     1      -0.886  12.861  22.305  0.00  0.00    +0.000 C 
ATOM     10  C   UNL     1      -0.636  11.392  22.049  0.00  0.00    +0.000 A 
ATOM     11  C   UNL     1      -0.728  10.463  23.103  0.00  0.00    +0.000 A 
ATOM     12  C   UNL     1      -0.465   9.110  22.880  0.00  0.00    +0.000 A 
ATOM     13  C   UNL     1      -0.104   8.689  21.604  0.00  0.00    +0.000 A 
ATOM     14  F   UNL     1       0.141   7.391  21.384  0.00  0.00    +0.000 F 
ATOM     15  C   UNL     1       0.006   9.590  20.552  0.00  0.00    +0.000 A 
ATOM     16  C   UNL     1      -0.273  10.938  20.777  0.00  0.00    +0.000 A 
ATOM     17  O   UNL     1      -0.142  11.755  19.682  0.00  0.00    +0.000 OA
ENDBRANCH   1   9
BRANCH   2  18
ATOM     18  C   UNL     1      -3.863  13.997  24.334  0.00  0.00    +0.000 A 
ATOM     19  C   UNL     1      -4.033  12.791  24.907  0.00  0.00    +0.000 A 
ATOM     20  N   UNL     1      -5.224  12.121  24.784  0.00  0.00    +0.000 N 
ATOM     21  C   UNL     1      -6.232  12.564  23.933  0.00  0.00    +0.000 A 
ATOM     22  O   UNL     1      -7.077  11.809  23.482  0.00  0.00    +0.000 OA
ATOM     23  C   UNL     1      -6.222  14.015  23.656  0.00  0.00    +0.000 A 
ATOM     24  C   UNL     1      -7.394  14.646  23.235  0.00  0.00    +0.000 A 
ATOM     25  C   UNL     1      -7.474  16.035  23.280  0.00  0.00    +0.000 A 
ATOM     26  C   UNL     1      -6.384  16.784  23.735  0.00  0.00    +0.000 A 
ATOM     27  C   UNL     1      -5.177  16.152  24.064  0.00  0.00    +0.000 A 
ATOM     28  C   UNL     1      -5.075  14.750  23.983  0.00  0.00    +0.000 A 
ATOM     29  H   UNL     1      -5.253  11.132  25.018  0.00  0.00    +0.000 HD
ENDBRANCH   2  18
TORSDOF 2
ENDMDL
MODEL 5
REMARK VINA RESULT:      -7.7      2.667      3.658
REMARK  Name = 
REMARK  4 active torsions:
REMARK  status: ('A' for Active; 'I' for Inactive)
REMARK    1  A    between atoms: C_1  and  C_2
REMARK    2  A    between atoms: C_2  and  C_3
REMARK    3  A    between atoms: C_5  and  N_6
REMARK    4  A    between atoms: C_7  and  C_9
REMARK                            x       y       z     vdW  Elec       q    Type
REMARK                         _______ _______ _______ _____ _____    ______ ____
ROOT
ATOM      1  N   UNL     1       4.106   6.376  18.163  0.00  0.00    +0.000 N 
ATOM      2  C   UNL     1       3.154   6.501  19.148  0.00  0.00    +0.000 C 
ATOM      3  O   UNL     1       3.100   5.719  20.096  0.00  0.00    +0.000 OA
ATOM      4  H   UNL     1       4.148   7.028  17.392  0.00  0.00    +0.000 HD
ENDROOT
BRANCH   1   9
ATOM      5  C   UNL     1       8.467   5.888  19.507  0.00  0.00    +0.000 C 
ATOM      6  C   UNL     1       7.328   5.947  18.478  0.00  0.00    +0.000 C 
ATOM      7  C   UNL     1       7.128   7.412  18.070  0.00  0.00    +0.000 C 
ATOM      8  C   UNL     1       6.102   5.270  19.098  0.00  0.00    +0.000 C 
ATOM      9  C   UNL     1       4.940   5.179  18.114  0.00  0.00    +0.000 C 
ATOM     10  C   UNL     1       5.430   4.883  16.715  0.00  0.00    +0.000 A 
ATOM     11  C   UNL     1       4.515   4.542  15.700  0.00  0.00    +0.000 A 
ATOM     12  C   UNL     1       4.965   4.233  14.415  0.00  0.00    +0.000 A 
ATOM     13  C   UNL     1       6.330   4.259  14.148  0.00  0.00    +0.000 A 
ATOM     14  F   UNL     1       6.765   3.971  12.914  0.00  0.00    +0.000 F 
ATOM     15  C   UNL     1       7.252   4.578  15.137  0.00  0.00    +0.000 A 
ATOM     16  C   UNL     1       6.796   4.901  16.415  0.00  0.00    +0.000 A 
ATOM     17  O   UNL     1       7.775   5.206  17.327  0.00  0.00    +0.000 OA
ENDBRANCH   1   9
BRANCH   2  18
ATOM     18  C   UNL     1       2.067   7.505  18.894  0.00  0.00    +0.000 A 
ATOM     19  C   UNL     1       2.117   7.947  17.623  0.00  0.00    +0.000 A 
ATOM     20  N   UNL     1       1.973   9.283  17.342  0.00  0.00    +0.000 N 
ATOM     21  C   UNL     1       1.945  10.247  18.346  0.00  0.00    +0.000 A 
ATOM     22  O   UNL     1       2.248  11.409  18.136  0.00  0.00    +0.000 OA
ATOM     23  C   UNL     1       1.483   9.762  19.663  0.00  0.00    +0.000 A 
ATOM     24  C   UNL     1       0.968  10.669  20.590  0.00  0.00    +0.000 A 
ATOM     25  C   UNL     1       0.251  10.192  21.684  0.00  0.00    +0.000 A 
ATOM     26  C   UNL     1       0.061   8.816  21.850  0.00  0.00    +0.000 A 
ATOM     27  C   UNL     1       0.663   7.906  20.970  0.00  0.00    +0.000 A 
ATOM     28  C   UNL     1       1.423   8.380  19.884  0.00  0.00    +0.000 A 
ATOM     29  H   UNL     1       2.243   9.619  16.422  0.00  0.00    +0.000 HD
ENDBRANCH   2  18
TORSDOF 2
ENDMDL
MODEL 6
REMARK VINA RESULT:      -7.4      6.421      9.162
REMARK  Name = 
REMARK  4 active torsions:
REMARK  status: ('A' for Active; 'I' for Inactive)
REMARK    1  A    between atoms: C_1  and  C_2
REMARK    2  A    between atoms: C_2  and  C_3
REMARK    3  A    between atoms: C_5  and  N_6
REMARK    4  A    between atoms: C_7  and  C_9
REMARK                            x       y       z     vdW  Elec       q    Type
REMARK                         _______ _______ _______ _____ _____    ______ ____
ROOT
ATOM      1  N   UNL     1      -3.049  13.681  20.427  0.00  0.00    +0.000 N 
ATOM      2  C   UNL     1      -4.063  14.405  21.009  0.00  0.00    +0.000 C 
ATOM      3  O   UNL     1      -3.836  15.269  21.854  0.00  0.00    +0.000 OA
ATOM      4  H   UNL     1      -3.244  12.978  19.727  0.00  0.00    +0.000 HD
ENDROOT
BRANCH   1   9
ATOM      5  C   UNL     1       0.924  13.696  18.129  0.00  0.00    +0.000 C 
ATOM      6  C   UNL     1      -0.127  13.111  19.085  0.00  0.00    +0.000 C 
ATOM      7  C   UNL     1      -1.143  12.321  18.251  0.00  0.00    +0.000 C 
ATOM      8  C   UNL     1      -0.712  14.266  19.902  0.00  0.00    +0.000 C 
ATOM      9  C   UNL     1      -1.694  13.778  20.961  0.00  0.00    +0.000 C 
ATOM     10  C   UNL     1      -1.230  12.479  21.580  0.00  0.00    +0.000 A 
ATOM     11  C   UNL     1      -1.871  11.971  22.726  0.00  0.00    +0.000 A 
ATOM     12  C   UNL     1      -1.424  10.790  23.323  0.00  0.00    +0.000 A 
ATOM     13  C   UNL     1      -0.333  10.123  22.776  0.00  0.00    +0.000 A 
ATOM     14  F   UNL     1       0.093   8.986  23.341  0.00  0.00    +0.000 F 
ATOM     15  C   UNL     1       0.324  10.614  21.655  0.00  0.00    +0.000 A 
ATOM     16  C   UNL     1      -0.136  11.785  21.054  0.00  0.00    +0.000 A 
ATOM     17  O   UNL     1       0.570  12.194  19.950  0.00  0.00    +0.000 OA
ENDBRANCH   1   9
BRANCH   2  18
ATOM     18  C   UNL     1      -5.460  13.941  20.714  0.00  0.00    +0.000 A 
ATOM     19  C   UNL     1      -6.320  14.409  21.638  0.00  0.00    +0.000 A 
ATOM     20  N   UNL     1      -7.284  13.591  22.172  0.00  0.00    +0.000 N 
ATOM     21  C   UNL     1      -7.308  12.221  21.923  0.00  0.00    +0.000 A 
ATOM     22  O   UNL     1      -7.844  11.434  22.684  0.00  0.00    +0.000 OA
ATOM     23  C   UNL     1      -6.674  11.808  20.654  0.00  0.00    +0.000 A 
ATOM     24  C   UNL     1      -7.031  10.592  20.068  0.00  0.00    +0.000 A 
ATOM     25  C   UNL     1      -6.686  10.348  18.742  0.00  0.00    +0.000 A 
ATOM     26  C   UNL     1      -5.981  11.312  18.013  0.00  0.00    +0.000 A 
ATOM     27  C   UNL     1      -5.541  12.489  18.634  0.00  0.00    +0.000 A 
ATOM     28  C   UNL     1      -5.852  12.726  19.986  0.00  0.00    +0.000 A 
ATOM     29  H   UNL     1      -7.760  13.888  23.020  0.00  0.00    +0.000 HD
ENDBRANCH   2  18
TORSDOF 2
ENDMDL
MODEL 7
REMARK VINA RESULT:      -7.3      5.355      9.617
REMARK  Name = 
REMARK  4 active torsions:
REMARK  status: ('A' for Active; 'I' for Inactive)
REMARK    1  A    between atoms: C_1  and  C_2
REMARK    2  A    between atoms: C_2  and  C_3
REMARK    3  A    between atoms: C_5  and  N_6
REMARK    4  A    between atoms: C_7  and  C_9
REMARK                            x       y       z     vdW  Elec       q    Type
REMARK                         _______ _______ _______ _____ _____    ______ ____
ROOT
ATOM      1  N   UNL     1      -2.686  13.461  21.336  0.00  0.00    +0.000 N 
ATOM      2  C   UNL     1      -1.525  13.820  20.692  0.00  0.00    +0.000 C 
ATOM      3  O   UNL     1      -1.511  14.694  19.827  0.00  0.00    +0.000 OA
ATOM      4  H   UNL     1      -2.686  12.747  22.052  0.00  0.00    +0.000 HD
ENDROOT
BRANCH   1   9
ATOM      5  C   UNL     1      -6.367  14.704  23.779  0.00  0.00    +0.000 C 
ATOM      6  C   UNL     1      -5.585  13.821  22.795  0.00  0.00    +0.000 C 
ATOM      7  C   UNL     1      -4.826  12.762  23.605  0.00  0.00    +0.000 C 
ATOM      8  C   UNL     1      -4.708  14.737  21.937  0.00  0.00    +0.000 C 
ATOM      9  C   UNL     1      -3.966  13.966  20.851  0.00  0.00    +0.000 C 
ATOM     10  C   UNL     1      -4.830  12.868  20.272  0.00  0.00    +0.000 A 
ATOM     11  C   UNL     1      -4.422  12.181  19.113  0.00  0.00    +0.000 A 
ATOM     12  C   UNL     1      -5.232  11.191  18.554  0.00  0.00    +0.000 A 
ATOM     13  C   UNL     1      -6.452  10.892  19.153  0.00  0.00    +0.000 A 
ATOM     14  F   UNL     1      -7.228   9.937  18.624  0.00  0.00    +0.000 F 
ATOM     15  C   UNL     1      -6.881  11.567  20.289  0.00  0.00    +0.000 A 
ATOM     16  C   UNL     1      -6.061  12.545  20.851  0.00  0.00    +0.000 A 
ATOM     17  O   UNL     1      -6.563  13.157  21.973  0.00  0.00    +0.000 OA
ENDBRANCH   1   9
BRANCH   2  18
ATOM     18  C   UNL     1      -0.329  12.949  20.949  0.00  0.00    +0.000 A 
ATOM     19  C   UNL     1       0.698  13.305  20.155  0.00  0.00    +0.000 A 
ATOM     20  N   UNL     1       1.452  12.352  19.518  0.00  0.00    +0.000 N 
ATOM     21  C   UNL     1       1.092  11.007  19.521  0.00  0.00    +0.000 A 
ATOM     22  O   UNL     1       1.462  10.236  18.652  0.00  0.00    +0.000 OA
ATOM     23  C   UNL     1       0.269  10.584  20.673  0.00  0.00    +0.000 A 
ATOM     24  C   UNL     1       0.242   9.239  21.045  0.00  0.00    +0.000 A 
ATOM     25  C   UNL     1      -0.264   8.888  22.293  0.00  0.00    +0.000 A 
ATOM     26  C   UNL     1      -0.747   9.877  23.156  0.00  0.00    +0.000 A 
ATOM     27  C   UNL     1      -0.807  11.214  22.740  0.00  0.00    +0.000 A 
ATOM     28  C   UNL     1      -0.334  11.572  21.463  0.00  0.00    +0.000 A 
ATOM     29  H   UNL     1       2.058  12.640  18.755  0.00  0.00    +0.000 HD
ENDBRANCH   2  18
TORSDOF 2
ENDMDL
MODEL 8
REMARK VINA RESULT:      -7.2      5.826      8.841
REMARK  Name = 
REMARK  4 active torsions:
REMARK  status: ('A' for Active; 'I' for Inactive)
REMARK    1  A    between atoms: C_1  and  C_2
REMARK    2  A    between atoms: C_2  and  C_3
REMARK    3  A    between atoms: C_5  and  N_6
REMARK    4  A    between atoms: C_7  and  C_9
REMARK                            x       y       z     vdW  Elec       q    Type
REMARK                         _______ _______ _______ _____ _____    ______ ____
ROOT
ATOM      1  N   UNL     1      -1.964  13.962  21.918  0.00  0.00    +0.000 N 
ATOM      2  C   UNL     1      -2.750  14.432  22.944  0.00  0.00    +0.000 C 
ATOM      3  O   UNL     1      -2.278  14.706  24.046  0.00  0.00    +0.000 OA
ATOM      4  H   UNL     1      -2.360  13.747  21.013  0.00  0.00    +0.000 HD
ENDROOT
BRANCH   1   9
ATOM      5  C   UNL     1       1.713  14.483  19.221  0.00  0.00    +0.000 C 
ATOM      6  C   UNL     1       0.641  13.677  19.969  0.00  0.00    +0.000 C 
ATOM      7  C   UNL     1      -0.590  13.561  19.060  0.00  0.00    +0.000 C 
ATOM      8  C   UNL     1       0.393  14.362  21.316  0.00  0.00    +0.000 C 
ATOM      9  C   UNL     1      -0.582  13.577  22.187  0.00  0.00    +0.000 C 
ATOM     10  C   UNL     1      -0.366  12.087  22.043  0.00  0.00    +0.000 A 
ATOM     11  C   UNL     1      -1.008  11.191  22.919  0.00  0.00    +0.000 A 
ATOM     12  C   UNL     1      -0.786   9.816  22.813  0.00  0.00    +0.000 A 
ATOM     13  C   UNL     1       0.083   9.341  21.836  0.00  0.00    +0.000 A 
ATOM     14  F   UNL     1       0.293   8.023  21.727  0.00  0.00    +0.000 F 
ATOM     15  C   UNL     1       0.738  10.209  20.971  0.00  0.00    +0.000 A 
ATOM     16  C   UNL     1       0.500  11.579  21.070  0.00  0.00    +0.000 A 
ATOM     17  O   UNL     1       1.187  12.360  20.174  0.00  0.00    +0.000 OA
ENDBRANCH   1   9
BRANCH   2  18
ATOM     18  C   UNL     1      -4.233  14.391  22.712  0.00  0.00    +0.000 A 
ATOM     19  C   UNL     1      -4.899  14.687  23.845  0.00  0.00    +0.000 A 
ATOM     20  N   UNL     1      -5.996  13.953  24.222  0.00  0.00    +0.000 N 
ATOM     21  C   UNL     1      -6.360  12.783  23.563  0.00  0.00    +0.000 A 
ATOM     22  O   UNL     1      -7.021  11.914  24.105  0.00  0.00    +0.000 OA
ATOM     23  C   UNL     1      -5.922  12.699  22.154  0.00  0.00    +0.000 A 
ATOM     24  C   UNL     1      -6.594  11.850  21.272  0.00  0.00    +0.000 A 
ATOM     25  C   UNL     1      -6.399  12.000  19.902  0.00  0.00    +0.000 A 
ATOM     26  C   UNL     1      -5.531  12.986  19.422  0.00  0.00    +0.000 A 
ATOM     27  C   UNL     1      -4.786  13.770  20.314  0.00  0.00    +0.000 A 
ATOM     28  C   UNL     1      -4.947  13.598  21.702  0.00  0.00    +0.000 A 
ATOM     29  H   UNL     1      -6.334  14.040  25.177  0.00  0.00    +0.000 HD
ENDBRANCH   2  18
TORSDOF 2
ENDMDL
MODEL 9
REMARK VINA RESULT:      -7.2      4.742      8.994
REMARK  Name = 
REMARK  4 active torsions:
REMARK  status: ('A' for Active; 'I' for Inactive)
REMARK    1  A    between atoms: C_1  and  C_2
REMARK    2  A    between atoms: C_2  and  C_3
REMARK    3  A    between atoms: C_5  and  N_6
REMARK    4  A    between atoms: C_7  and  C_9
REMARK                            x       y       z     vdW  Elec       q    Type
REMARK                         _______ _______ _______ _____ _____    ______ ____
ROOT
ATOM      1  N   UNL     1      -1.817  12.814  20.489  0.00  0.00    +0.000 N 
ATOM      2  C   UNL     1      -0.620  13.334  20.056  0.00  0.00    +0.000 C 
ATOM      3  O   UNL     1      -0.550  14.448  19.540  0.00  0.00    +0.000 OA
ATOM      4  H   UNL     1      -1.865  11.900  20.920  0.00  0.00    +0.000 HD
ENDROOT
BRANCH   1   9
ATOM      5  C   UNL     1      -4.925  14.652  23.322  0.00  0.00    +0.000 C 
ATOM      6  C   UNL     1      -4.416  13.638  22.287  0.00  0.00    +0.000 C 
ATOM      7  C   UNL     1      -3.718  12.498  23.040  0.00  0.00    +0.000 C 
ATOM      8  C   UNL     1      -3.537  14.392  21.285  0.00  0.00    +0.000 C 
ATOM      9  C   UNL     1      -3.064  13.492  20.148  0.00  0.00    +0.000 C 
ATOM     10  C   UNL     1      -4.146  12.522  19.733  0.00  0.00    +0.000 A 
ATOM     11  C   UNL     1      -3.998  11.753  18.562  0.00  0.00    +0.000 A 
ATOM     12  C   UNL     1      -5.010  10.881  18.154  0.00  0.00    +0.000 A 
ATOM     13  C   UNL     1      -6.170  10.783  18.915  0.00  0.00    +0.000 A 
ATOM     14  F   UNL     1      -7.140   9.942  18.532  0.00  0.00    +0.000 F 
ATOM     15  C   UNL     1      -6.344  11.542  20.066  0.00  0.00    +0.000 A 
ATOM     16  C   UNL     1      -5.324  12.400  20.477  0.00  0.00    +0.000 A 
ATOM     17  O   UNL     1      -5.580  13.107  21.625  0.00  0.00    +0.000 OA
ENDBRANCH   1   9
BRANCH   2  18
ATOM     18  C   UNL     1       0.549  12.391  20.054  0.00  0.00    +0.000 A 
ATOM     19  C   UNL     1       1.382  12.670  19.034  0.00  0.00    +0.000 A 
ATOM     20  N   UNL     1       1.909  11.661  18.268  0.00  0.00    +0.000 N 
ATOM     21  C   UNL     1       1.480  10.342  18.391  0.00  0.00    +0.000 A 
ATOM     22  O   UNL     1       1.592   9.538  17.483  0.00  0.00    +0.000 OA
ATOM     23  C   UNL     1       0.924   9.989  19.714  0.00  0.00    +0.000 A 
ATOM     24  C   UNL     1       0.904   8.654  20.120  0.00  0.00    +0.000 A 
ATOM     25  C   UNL     1       0.682   8.353  21.461  0.00  0.00    +0.000 A 
ATOM     26  C   UNL     1       0.474   9.383  22.384  0.00  0.00    +0.000 A 
ATOM     27  C   UNL     1       0.398  10.715  21.955  0.00  0.00    +0.000 A 
ATOM     28  C   UNL     1       0.581  11.024  20.594  0.00  0.00    +0.000 A 
ATOM     29  H   UNL     1       2.338  11.899  17.377  0.00  0.00    +0.000 HD
ENDBRANCH   2  18
TORSDOF 2
ENDMDL
