MODEL 1
REMARK VINA RESULT:      -8.8      0.000      0.000
REMARK  Name = 
REMARK  4 active torsions:
REMARK  status: ('A' for Active; 'I' for Inactive)
REMARK    1  A    between atoms: C_2  and  C_18
REMARK    2  A    between atoms: N_3  and  C_4
REMARK    3  A    between atoms: C_8  and  C_9
REMARK    4  A    between atoms: N_13  and  C_14
REMARK                            x       y       z     vdW  Elec       q    Type
REMARK                         _______ _______ _______ _____ _____    ______ ____
ROOT
ATOM      1  C   UNL     1       2.573   6.104  18.465  0.00  0.00    +0.000 A 
ATOM      2  C   UNL     1       1.736   5.061  18.057  0.00  0.00    +0.000 A 
ATOM      3  C   UNL     1       2.256   3.879  17.526  0.00  0.00    +0.000 A 
ATOM      4  C   UNL     1       3.630   3.713  17.403  0.00  0.00    +0.000 A 
ATOM      5  C   UNL     1       4.506   4.707  17.853  0.00  0.00    +0.000 A 
ATOM      6  C   UNL     1       3.959   5.915  18.346  0.00  0.00    +0.000 A 
ENDROOT
BRANCH   5   7
ATOM      7  C   UNL     1       5.964   4.560  17.777  0.00  0.00    +0.000 A 
ATOM      8  N   UNL     1       6.776   4.638  18.822  0.00  0.00    +0.000 NA
ATOM      9  N   UNL     1       8.054   4.501  18.354  0.00  0.00    +0.000 NA
ATOM     10  N   UNL     1       8.060   4.325  17.043  0.00  0.00    +0.000 NA
ATOM     11  N   UNL     1       6.770   4.314  16.674  0.00  0.00    +0.000 N 
BRANCH  11  12
ATOM     12  C   UNL     1       6.365   4.036  15.306  0.00  0.00    +0.000 C 
ATOM     13  C   UNL     1       7.025   4.708  14.112  0.00  0.00    +0.000 C 
ATOM     14  C   UNL     1       5.640   5.100  14.491  0.00  0.00    +0.000 C 
ENDBRANCH  11  12
ENDBRANCH   5   7
BRANCH   1  17
ATOM     15  O   UNL     1       1.592   6.669  21.116  0.00  0.00    +0.000 OA
ATOM     16  C   UNL     1       1.610   7.558  20.266  0.00  0.00    +0.000 C 
ATOM     17  N   UNL     1       2.101   7.346  18.979  0.00  0.00    +0.000 N 
ATOM     18  H   UNL     1       2.124   8.137  18.352  0.00  0.00    +0.000 HD
BRANCH  16  19
ATOM     19  C   UNL     1       1.082   8.895  20.567  0.00  0.00    +0.000 A 
ATOM     20  C   UNL     1       0.876  10.052  19.828  0.00  0.00    +0.000 A 
ATOM     21  C   UNL     1       0.219  11.094  20.592  0.00  0.00    +0.000 A 
ATOM     22  C   UNL     1      -0.076  10.654  21.859  0.00  0.00    +0.000 A 
ATOM     23  S   UNL     1       0.584   9.138  22.202  0.00  0.00    +0.000 S 
ATOM     24  C   UNL     1      -0.925  11.334  22.865  0.00  0.00    +0.000 C 
ATOM     25  C   UNL     1      -1.132  12.815  22.579  0.00  0.00    +0.000 C 
ATOM     26  C   UNL     1      -0.907  13.331  21.150  0.00  0.00    +0.000 C 
ATOM     27  C   UNL     1      -0.180  12.452  20.115  0.00  0.00    +0.000 C 
ENDBRANCH  16  19
ENDBRANCH   1  17
TORSDOF 4
ENDMDL
MODEL 2
REMARK VINA RESULT:      -8.7      1.293      1.311
REMARK  Name = 
REMARK  4 active torsions:
REMARK  status: ('A' for Active; 'I' for Inactive)
REMARK    1  A    between atoms: C_2  and  C_18
REMARK    2  A    between atoms: N_3  and  C_4
REMARK    3  A    between atoms: C_8  and  C_9
REMARK    4  A    between atoms: N_13  and  C_14
REMARK                            x       y       z     vdW  Elec       q    Type
REMARK                         _______ _______ _______ _____ _____    ______ ____
ROOT
ATOM      1  C   UNL     1       2.563   5.454  20.091  0.00  0.00    +0.000 A 
ATOM      2  C   UNL     1       2.029   4.172  20.261  0.00  0.00    +0.000 A 
ATOM      3  C   UNL     1       2.747   3.033  19.893  0.00  0.00    +0.000 A 
ATOM      4  C   UNL     1       4.024   3.154  19.357  0.00  0.00    +0.000 A 
ATOM      5  C   UNL     1       4.621   4.412  19.226  0.00  0.00    +0.000 A 
ATOM      6  C   UNL     1       3.860   5.557  19.562  0.00  0.00    +0.000 A 
ENDROOT
BRANCH   5   7
ATOM      7  C   UNL     1       5.979   4.585  18.699  0.00  0.00    +0.000 A 
ATOM      8  N   UNL     1       7.022   4.945  19.435  0.00  0.00    +0.000 NA
ATOM      9  N   UNL     1       8.095   5.048  18.593  0.00  0.00    +0.000 NA
ATOM     10  N   UNL     1       7.752   4.747  17.352  0.00  0.00    +0.000 NA
ATOM     11  N   UNL     1       6.453   4.414  17.407  0.00  0.00    +0.000 N 
BRANCH  11  12
ATOM     12  C   UNL     1       5.738   3.917  16.243  0.00  0.00    +0.000 C 
ATOM     13  C   UNL     1       6.301   4.033  14.835  0.00  0.00    +0.000 C 
ATOM     14  C   UNL     1       5.152   4.893  15.230  0.00  0.00    +0.000 C 
ENDBRANCH  11  12
ENDBRANCH   5   7
BRANCH   1  17
ATOM     15  O   UNL     1       2.368   7.867  18.526  0.00  0.00    +0.000 OA
ATOM     16  C   UNL     1       1.828   7.806  19.630  0.00  0.00    +0.000 C 
ATOM     17  N   UNL     1       1.867   6.654  20.413  0.00  0.00    +0.000 N 
ATOM     18  H   UNL     1       1.361   6.667  21.287  0.00  0.00    +0.000 HD
BRANCH  16  19
ATOM     19  C   UNL     1       1.131   8.971  20.189  0.00  0.00    +0.000 A 
ATOM     20  C   UNL     1       0.605  10.141  19.656  0.00  0.00    +0.000 A 
ATOM     21  C   UNL     1      -0.088  10.943  20.645  0.00  0.00    +0.000 A 
ATOM     22  C   UNL     1      -0.087  10.314  21.866  0.00  0.00    +0.000 A 
ATOM     23  S   UNL     1       0.876   8.929  21.895  0.00  0.00    +0.000 S 
ATOM     24  C   UNL     1      -0.864  10.699  23.068  0.00  0.00    +0.000 C 
ATOM     25  C   UNL     1      -1.372  12.133  23.026  0.00  0.00    +0.000 C 
ATOM     26  C   UNL     1      -1.482  12.840  21.666  0.00  0.00    +0.000 C 
ATOM     27  C   UNL     1      -0.794  12.241  20.425  0.00  0.00    +0.000 C 
ENDBRANCH  16  19
ENDBRANCH   1  17
TORSDOF 4
ENDMDL
MODEL 3
REMARK VINA RESULT:      -8.7      1.427      1.781
REMARK  Name = 
REMARK  4 active torsions:
REMARK  status: ('A' for Active; 'I' for Inactive)
REMARK    1  A    between atoms: C_2  and  C_18
REMARK    2  A    between atoms: N_3  and  C_4
REMARK    3  A    between atoms: C_8  and  C_9
REMARK    4  A    between atoms: N_13  and  C_14
REMARK                            x       y       z     vdW  Elec       q    Type
REMARK                         _______ _______ _______ _____ _____    ______ ____
ROOT
ATOM      1  C   UNL     1       2.427   5.391  20.145  0.00  0.00    +0.000 A 
ATOM      2  C   UNL     1       1.895   4.098  20.137  0.00  0.00    +0.000 A 
ATOM      3  C   UNL     1       2.642   3.009  19.685  0.00  0.00    +0.000 A 
ATOM      4  C   UNL     1       3.947   3.191  19.242  0.00  0.00    +0.000 A 
ATOM      5  C   UNL     1       4.540   4.457  19.289  0.00  0.00    +0.000 A 
ATOM      6  C   UNL     1       3.751   5.555  19.707  0.00  0.00    +0.000 A 
ENDROOT
BRANCH   5   7
ATOM      7  C   UNL     1       5.925   4.691  18.866  0.00  0.00    +0.000 A 
ATOM      8  N   UNL     1       6.906   5.039  19.687  0.00  0.00    +0.000 NA
ATOM      9  N   UNL     1       8.029   5.212  18.927  0.00  0.00    +0.000 NA
ATOM     10  N   UNL     1       7.779   4.966  17.652  0.00  0.00    +0.000 NA
ATOM     11  N   UNL     1       6.489   4.598  17.602  0.00  0.00    +0.000 N 
BRANCH  11  12
ATOM     12  C   UNL     1       5.868   4.143  16.369  0.00  0.00    +0.000 C 
ATOM     13  C   UNL     1       6.522   4.341  15.010  0.00  0.00    +0.000 C 
ATOM     14  C   UNL     1       5.328   5.155  15.365  0.00  0.00    +0.000 C 
ENDBRANCH  11  12
ENDBRANCH   5   7
BRANCH   1  17
ATOM     15  O   UNL     1       2.247   7.943  18.816  0.00  0.00    +0.000 OA
ATOM     16  C   UNL     1       1.673   7.768  19.890  0.00  0.00    +0.000 C 
ATOM     17  N   UNL     1       1.703   6.546  20.558  0.00  0.00    +0.000 N 
ATOM     18  H   UNL     1       1.170   6.468  21.412  0.00  0.00    +0.000 HD
BRANCH  16  19
ATOM     19  C   UNL     1       0.941   8.865  20.536  0.00  0.00    +0.000 A 
ATOM     20  C   UNL     1       0.172   8.980  21.687  0.00  0.00    +0.000 A 
ATOM     21  C   UNL     1      -0.258  10.342  21.938  0.00  0.00    +0.000 A 
ATOM     22  C   UNL     1       0.246  11.193  20.985  0.00  0.00    +0.000 A 
ATOM     23  S   UNL     1       1.025  10.386  19.724  0.00  0.00    +0.000 S 
ATOM     24  C   UNL     1       0.214  12.674  21.006  0.00  0.00    +0.000 C 
ATOM     25  C   UNL     1      -0.817  13.244  21.970  0.00  0.00    +0.000 C 
ATOM     26  C   UNL     1      -1.334  12.354  23.111  0.00  0.00    +0.000 C 
ATOM     27  C   UNL     1      -1.070  10.837  23.089  0.00  0.00    +0.000 C 
ENDBRANCH  16  19
ENDBRANCH   1  17
TORSDOF 4
ENDMDL
MODEL 4
REMARK VINA RESULT:      -8.7      1.104      1.130
REMARK  Name = 
REMARK  4 active torsions:
REMARK  status: ('A' for Active; 'I' for Inactive)
REMARK    1  A    between atoms: C_2  and  C_18
REMARK    2  A    between atoms: N_3  and  C_4
REMARK    3  A    between atoms: C_8  and  C_9
REMARK    4  A    between atoms: N_13  and  C_14
REMARK                            x       y       z     vdW  Elec       q    Type
REMARK                         _______ _______ _______ _____ _____    ______ ____
ROOT
ATOM      1  C   UNL     1       2.471   6.029  18.531  0.00  0.00    +0.000 A 
ATOM      2  C   UNL     1       1.669   4.992  18.043  0.00  0.00    +0.000 A 
ATOM      3  C   UNL     1       2.229   3.850  17.469  0.00  0.00    +0.000 A 
ATOM      4  C   UNL     1       3.610   3.717  17.383  0.00  0.00    +0.000 A 
ATOM      5  C   UNL     1       4.451   4.702  17.913  0.00  0.00    +0.000 A 
ATOM      6  C   UNL     1       3.863   5.872  18.448  0.00  0.00    +0.000 A 
ENDROOT
BRANCH   5   7
ATOM      7  C   UNL     1       5.913   4.587  17.877  0.00  0.00    +0.000 A 
ATOM      8  N   UNL     1       6.695   4.694  18.942  0.00  0.00    +0.000 NA
ATOM      9  N   UNL     1       7.987   4.580  18.510  0.00  0.00    +0.000 NA
ATOM     10  N   UNL     1       8.033   4.390  17.202  0.00  0.00    +0.000 NA
ATOM     11  N   UNL     1       6.754   4.347  16.799  0.00  0.00    +0.000 N 
BRANCH  11  12
ATOM     12  C   UNL     1       6.392   4.045  15.424  0.00  0.00    +0.000 C 
ATOM     13  C   UNL     1       7.055   4.734  14.241  0.00  0.00    +0.000 C 
ATOM     14  C   UNL     1       5.648   5.077  14.584  0.00  0.00    +0.000 C 
ENDBRANCH  11  12
ENDBRANCH   5   7
BRANCH   1  17
ATOM     15  O   UNL     1       2.226   8.611  17.272  0.00  0.00    +0.000 OA
ATOM     16  C   UNL     1       1.888   8.466  18.446  0.00  0.00    +0.000 C 
ATOM     17  N   UNL     1       1.958   7.234  19.092  0.00  0.00    +0.000 N 
ATOM     18  H   UNL     1       1.620   7.185  20.043  0.00  0.00    +0.000 HD
BRANCH  16  19
ATOM     19  C   UNL     1       1.414   9.609  19.236  0.00  0.00    +0.000 A 
ATOM     20  C   UNL     1       1.335  10.979  19.020  0.00  0.00    +0.000 A 
ATOM     21  C   UNL     1       0.679  11.679  20.106  0.00  0.00    +0.000 A 
ATOM     22  C   UNL     1       0.256  10.795  21.068  0.00  0.00    +0.000 A 
ATOM     23  S   UNL     1       0.798   9.219  20.800  0.00  0.00    +0.000 S 
ATOM     24  C   UNL     1      -0.633  11.085  22.218  0.00  0.00    +0.000 C 
ATOM     25  C   UNL     1      -0.731  12.568  22.548  0.00  0.00    +0.000 C 
ATOM     26  C   UNL     1      -0.361  13.592  21.464  0.00  0.00    +0.000 C 
ATOM     27  C   UNL     1       0.397  13.143  20.201  0.00  0.00    +0.000 C 
ENDBRANCH  16  19
ENDBRANCH   1  17
TORSDOF 4
ENDMDL
MODEL 5
REMARK VINA RESULT:      -8.7      1.225      1.772
REMARK  Name = 
REMARK  4 active torsions:
REMARK  status: ('A' for Active; 'I' for Inactive)
REMARK    1  A    between atoms: C_2  and  C_18
REMARK    2  A    between atoms: N_3  and  C_4
REMARK    3  A    between atoms: C_8  and  C_9
REMARK    4  A    between atoms: N_13  and  C_14
REMARK                            x       y       z     vdW  Elec       q    Type
REMARK                         _______ _______ _______ _____ _____    ______ ____
ROOT
ATOM      1  C   UNL     1       2.520   6.149  18.149  0.00  0.00    +0.000 A 
ATOM      2  C   UNL     1       1.708   5.018  18.025  0.00  0.00    +0.000 A 
ATOM      3  C   UNL     1       2.254   3.753  17.800  0.00  0.00    +0.000 A 
ATOM      4  C   UNL     1       3.632   3.593  17.706  0.00  0.00    +0.000 A 
ATOM      5  C   UNL     1       4.485   4.687  17.884  0.00  0.00    +0.000 A 
ATOM      6  C   UNL     1       3.910   5.967  18.066  0.00  0.00    +0.000 A 
ENDROOT
BRANCH   5   7
ATOM      7  C   UNL     1       5.946   4.560  17.829  0.00  0.00    +0.000 A 
ATOM      8  N   UNL     1       6.742   4.667  18.884  0.00  0.00    +0.000 NA
ATOM      9  N   UNL     1       8.028   4.539  18.436  0.00  0.00    +0.000 NA
ATOM     10  N   UNL     1       8.055   4.341  17.128  0.00  0.00    +0.000 NA
ATOM     11  N   UNL     1       6.770   4.307  16.742  0.00  0.00    +0.000 N 
BRANCH  11  12
ATOM     12  C   UNL     1       6.387   4.000  15.373  0.00  0.00    +0.000 C 
ATOM     13  C   UNL     1       6.973   4.743  14.182  0.00  0.00    +0.000 C 
ATOM     14  C   UNL     1       5.558   4.994  14.569  0.00  0.00    +0.000 C 
ENDBRANCH  11  12
ENDBRANCH   5   7
BRANCH   1  17
ATOM     15  O   UNL     1       1.825   7.437  20.633  0.00  0.00    +0.000 OA
ATOM     16  C   UNL     1       1.672   8.034  19.568  0.00  0.00    +0.000 C 
ATOM     17  N   UNL     1       2.021   7.469  18.343  0.00  0.00    +0.000 N 
ATOM     18  H   UNL     1       1.908   8.039  17.517  0.00  0.00    +0.000 HD
BRANCH  16  19
ATOM     19  C   UNL     1       1.084   9.379  19.540  0.00  0.00    +0.000 A 
ATOM     20  C   UNL     1       0.116  10.036  20.289  0.00  0.00    +0.000 A 
ATOM     21  C   UNL     1      -0.035  11.427  19.910  0.00  0.00    +0.000 A 
ATOM     22  C   UNL     1       0.859  11.760  18.922  0.00  0.00    +0.000 A 
ATOM     23  S   UNL     1       1.701  10.428  18.317  0.00  0.00    +0.000 S 
ATOM     24  C   UNL     1       1.166  13.119  18.418  0.00  0.00    +0.000 C 
ATOM     25  C   UNL     1       0.098  14.148  18.764  0.00  0.00    +0.000 C 
ATOM     26  C   UNL     1      -0.860  13.856  19.929  0.00  0.00    +0.000 C 
ATOM     27  C   UNL     1      -0.955  12.435  20.515  0.00  0.00    +0.000 C 
ENDBRANCH  16  19
ENDBRANCH   1  17
TORSDOF 4
ENDMDL
MODEL 6
REMARK VINA RESULT:      -8.6      0.908      1.147
REMARK  Name = 
REMARK  4 active torsions:
REMARK  status: ('A' for Active; 'I' for Inactive)
REMARK    1  A    between atoms: C_2  and  C_18
REMARK    2  A    between atoms: N_3  and  C_4
REMARK    3  A    between atoms: C_8  and  C_9
REMARK    4  A    between atoms: N_13  and  C_14
REMARK                            x       y       z     vdW  Elec       q    Type
REMARK                         _______ _______ _______ _____ _____    ______ ____
ROOT
ATOM      1  C   UNL     1       2.581   6.363  18.182  0.00  0.00    +0.000 A 
ATOM      2  C   UNL     1       1.716   5.273  18.041  0.00  0.00    +0.000 A 
ATOM      3  C   UNL     1       2.202   3.989  17.787  0.00  0.00    +0.000 A 
ATOM      4  C   UNL     1       3.570   3.768  17.683  0.00  0.00    +0.000 A 
ATOM      5  C   UNL     1       4.474   4.818  17.876  0.00  0.00    +0.000 A 
ATOM      6  C   UNL     1       3.961   6.119  18.086  0.00  0.00    +0.000 A 
ENDROOT
BRANCH   5   7
ATOM      7  C   UNL     1       5.927   4.624  17.810  0.00  0.00    +0.000 A 
ATOM      8  N   UNL     1       6.736   4.691  18.859  0.00  0.00    +0.000 NA
ATOM      9  N   UNL     1       8.011   4.506  18.401  0.00  0.00    +0.000 NA
ATOM     10  N   UNL     1       8.019   4.311  17.092  0.00  0.00    +0.000 NA
ATOM     11  N   UNL     1       6.731   4.336  16.716  0.00  0.00    +0.000 N 
BRANCH  11  12
ATOM     12  C   UNL     1       6.324   4.051  15.350  0.00  0.00    +0.000 C 
ATOM     13  C   UNL     1       6.967   4.735  14.153  0.00  0.00    +0.000 C 
ATOM     14  C   UNL     1       5.577   5.102  14.538  0.00  0.00    +0.000 C 
ENDBRANCH  11  12
ENDBRANCH   5   7
BRANCH   1  17
ATOM     15  O   UNL     1       1.650   7.541  20.643  0.00  0.00    +0.000 OA
ATOM     16  C   UNL     1       1.675   8.212  19.612  0.00  0.00    +0.000 C 
ATOM     17  N   UNL     1       2.144   7.701  18.404  0.00  0.00    +0.000 N 
ATOM     18  H   UNL     1       2.175   8.327  17.613  0.00  0.00    +0.000 HD
BRANCH  16  19
ATOM     19  C   UNL     1       1.181   9.595  19.606  0.00  0.00    +0.000 A 
ATOM     20  C   UNL     1       1.347  10.686  18.763  0.00  0.00    +0.000 A 
ATOM     21  C   UNL     1       0.544  11.825  19.160  0.00  0.00    +0.000 A 
ATOM     22  C   UNL     1      -0.222  11.520  20.259  0.00  0.00    +0.000 A 
ATOM     23  S   UNL     1       0.149  10.014  20.924  0.00  0.00    +0.000 S 
ATOM     24  C   UNL     1      -1.320  12.332  20.835  0.00  0.00    +0.000 C 
ATOM     25  C   UNL     1      -1.293  13.788  20.391  0.00  0.00    +0.000 C 
ATOM     26  C   UNL     1      -0.529  14.156  19.110  0.00  0.00    +0.000 C 
ATOM     27  C   UNL     1       0.451  13.150  18.476  0.00  0.00    +0.000 C 
ENDBRANCH  16  19
ENDBRANCH   1  17
TORSDOF 4
ENDMDL
MODEL 7
REMARK VINA RESULT:      -8.5      1.165      1.546
REMARK  Name = 
REMARK  4 active torsions:
REMARK  status: ('A' for Active; 'I' for Inactive)
REMARK    1  A    between atoms: C_2  and  C_18
REMARK    2  A    between atoms: N_3  and  C_4
REMARK    3  A    between atoms: C_8  and  C_9
REMARK    4  A    between atoms: N_13  and  C_14
REMARK                            x       y       z     vdW  Elec       q    Type
REMARK                         _______ _______ _______ _____ _____    ______ ____
ROOT
ATOM      1  C   UNL     1       2.343   5.473  18.633  0.00  0.00    +0.000 A 
ATOM      2  C   UNL     1       1.660   4.370  18.110  0.00  0.00    +0.000 A 
ATOM      3  C   UNL     1       2.343   3.319  17.496  0.00  0.00    +0.000 A 
ATOM      4  C   UNL     1       3.730   3.346  17.403  0.00  0.00    +0.000 A 
ATOM      5  C   UNL     1       4.457   4.401  17.964  0.00  0.00    +0.000 A 
ATOM      6  C   UNL     1       3.744   5.478  18.542  0.00  0.00    +0.000 A 
ENDROOT
BRANCH   5   7
ATOM      7  C   UNL     1       5.922   4.454  17.921  0.00  0.00    +0.000 A 
ATOM      8  N   UNL     1       6.693   4.613  18.988  0.00  0.00    +0.000 NA
ATOM      9  N   UNL     1       7.987   4.661  18.550  0.00  0.00    +0.000 NA
ATOM     10  N   UNL     1       8.047   4.521  17.236  0.00  0.00    +0.000 NA
ATOM     11  N   UNL     1       6.778   4.346  16.834  0.00  0.00    +0.000 N 
BRANCH  11  12
ATOM     12  C   UNL     1       6.445   4.051  15.451  0.00  0.00    +0.000 C 
ATOM     13  C   UNL     1       7.077   4.798  14.287  0.00  0.00    +0.000 C 
ATOM     14  C   UNL     1       5.651   5.055  14.623  0.00  0.00    +0.000 C 
ENDBRANCH  11  12
ENDBRANCH   5   7
BRANCH   1  17
ATOM     15  O   UNL     1       2.689   8.267  18.014  0.00  0.00    +0.000 OA
ATOM     16  C   UNL     1       1.926   7.929  18.918  0.00  0.00    +0.000 C 
ATOM     17  N   UNL     1       1.700   6.591  19.237  0.00  0.00    +0.000 N 
ATOM     18  H   UNL     1       1.026   6.392  19.962  0.00  0.00    +0.000 HD
BRANCH  16  19
ATOM     19  C   UNL     1       1.231   8.936  19.728  0.00  0.00    +0.000 A 
ATOM     20  C   UNL     1       0.606   8.929  20.968  0.00  0.00    +0.000 A 
ATOM     21  C   UNL     1       0.148  10.244  21.371  0.00  0.00    +0.000 A 
ATOM     22  C   UNL     1       0.490  11.185  20.432  0.00  0.00    +0.000 A 
ATOM     23  S   UNL     1       1.142  10.512  19.029  0.00  0.00    +0.000 S 
ATOM     24  C   UNL     1       0.393  12.658  20.568  0.00  0.00    +0.000 C 
ATOM     25  C   UNL     1      -0.537  13.102  21.689  0.00  0.00    +0.000 C 
ATOM     26  C   UNL     1      -0.866  12.108  22.814  0.00  0.00    +0.000 C 
ATOM     27  C   UNL     1      -0.537  10.612  22.646  0.00  0.00    +0.000 C 
ENDBRANCH  16  19
ENDBRANCH   1  17
TORSDOF 4
ENDMDL
MODEL 8
REMARK VINA RESULT:      -8.4      1.585      2.421
REMARK  Name = 
REMARK  4 active torsions:
REMARK  status: ('A' for Active; 'I' for Inactive)
REMARK    1  A    between atoms: C_2  and  C_18
REMARK    2  A    between atoms: N_3  and  C_4
REMARK    3  A    between atoms: C_8  and  C_9
REMARK    4  A    between atoms: N_13  and  C_14
REMARK                            x       y       z     vdW  Elec       q    Type
REMARK                         _______ _______ _______ _____ _____    ______ ____
ROOT
ATOM      1  C   UNL     1       2.541   5.746  18.341  0.00  0.00    +0.000 A 
ATOM      2  C   UNL     1       2.004   4.455  18.381  0.00  0.00    +0.000 A 
ATOM      3  C   UNL     1       2.590   3.404  17.674  0.00  0.00    +0.000 A 
ATOM      4  C   UNL     1       3.737   3.622  16.919  0.00  0.00    +0.000 A 
ATOM      5  C   UNL     1       4.342   4.883  16.898  0.00  0.00    +0.000 A 
ATOM      6  C   UNL     1       3.707   5.945  17.584  0.00  0.00    +0.000 A 
ENDROOT
BRANCH   5   7
ATOM      7  C   UNL     1       5.572   5.151  16.145  0.00  0.00    +0.000 A 
ATOM      8  N   UNL     1       5.838   4.643  14.949  0.00  0.00    +0.000 NA
ATOM      9  N   UNL     1       7.085   5.077  14.593  0.00  0.00    +0.000 NA
ATOM     10  N   UNL     1       7.600   5.855  15.531  0.00  0.00    +0.000 NA
ATOM     11  N   UNL     1       6.657   5.948  16.481  0.00  0.00    +0.000 N 
BRANCH  11  12
ATOM     12  C   UNL     1       6.815   6.814  17.638  0.00  0.00    +0.000 C 
ATOM     13  C   UNL     1       7.972   7.792  17.766  0.00  0.00    +0.000 C 
ATOM     14  C   UNL     1       7.953   6.575  18.623  0.00  0.00    +0.000 C 
ENDBRANCH  11  12
ENDBRANCH   5   7
BRANCH   1  17
ATOM     15  O   UNL     1       1.917   6.009  21.143  0.00  0.00    +0.000 OA
ATOM     16  C   UNL     1       1.660   6.929  20.368  0.00  0.00    +0.000 C 
ATOM     17  N   UNL     1       1.969   6.865  19.010  0.00  0.00    +0.000 N 
ATOM     18  H   UNL     1       1.768   7.679  18.447  0.00  0.00    +0.000 HD
BRANCH  16  19
ATOM     19  C   UNL     1       0.984   8.143  20.843  0.00  0.00    +0.000 A 
ATOM     20  C   UNL     1       0.223   8.462  21.959  0.00  0.00    +0.000 A 
ATOM     21  C   UNL     1      -0.139   9.865  22.007  0.00  0.00    +0.000 A 
ATOM     22  C   UNL     1       0.405  10.542  20.944  0.00  0.00    +0.000 A 
ATOM     23  S   UNL     1       1.141   9.523  19.818  0.00  0.00    +0.000 S 
ATOM     24  C   UNL     1       0.446  12.011  20.748  0.00  0.00    +0.000 C 
ATOM     25  C   UNL     1      -0.555  12.765  21.612  0.00  0.00    +0.000 C 
ATOM     26  C   UNL     1      -1.114  12.077  22.867  0.00  0.00    +0.000 C 
ATOM     27  C   UNL     1      -0.925  10.562  23.069  0.00  0.00    +0.000 C 
ENDBRANCH  16  19
ENDBRANCH   1  17
TORSDOF 4
ENDMDL
MODEL 9
REMARK VINA RESULT:      -8.4      1.161      2.007
REMARK  Name = 
REMARK  4 active torsions:
REMARK  status: ('A' for Active; 'I' for Inactive)
REMARK    1  A    between atoms: C_2  and  C_18
REMARK    2  A    between atoms: N_3  and  C_4
REMARK    3  A    between atoms: C_8  and  C_9
REMARK    4  A    between atoms: N_13  and  C_14
REMARK                            x       y       z     vdW  Elec       q    Type
REMARK                         _______ _______ _______ _____ _____    ______ ____
ROOT
ATOM      1  C   UNL     1       2.612   6.177  18.255  0.00  0.00    +0.000 A 
ATOM      2  C   UNL     1       2.027   4.917  18.423  0.00  0.00    +0.000 A 
ATOM      3  C   UNL     1       2.570   3.780  17.823  0.00  0.00    +0.000 A 
ATOM      4  C   UNL     1       3.722   3.879  17.050  0.00  0.00    +0.000 A 
ATOM      5  C   UNL     1       4.373   5.108  16.905  0.00  0.00    +0.000 A 
ATOM      6  C   UNL     1       3.781   6.256  17.482  0.00  0.00    +0.000 A 
ENDROOT
BRANCH   5   7
ATOM      7  C   UNL     1       5.609   5.254  16.128  0.00  0.00    +0.000 A 
ATOM      8  N   UNL     1       5.646   5.533  14.833  0.00  0.00    +0.000 NA
ATOM      9  N   UNL     1       6.961   5.541  14.457  0.00  0.00    +0.000 NA
ATOM     10  N   UNL     1       7.749   5.289  15.489  0.00  0.00    +0.000 NA
ATOM     11  N   UNL     1       6.930   5.152  16.543  0.00  0.00    +0.000 N 
BRANCH  11  12
ATOM     12  C   UNL     1       7.438   4.969  17.893  0.00  0.00    +0.000 C 
ATOM     13  C   UNL     1       6.638   5.371  19.122  0.00  0.00    +0.000 C 
ATOM     14  C   UNL     1       7.827   6.178  18.735  0.00  0.00    +0.000 C 
ENDBRANCH  11  12
ENDBRANCH   5   7
BRANCH   1  17
ATOM     15  O   UNL     1       1.872   6.691  20.993  0.00  0.00    +0.000 OA
ATOM     16  C   UNL     1       1.715   7.564  20.141  0.00  0.00    +0.000 C 
ATOM     17  N   UNL     1       2.084   7.378  18.810  0.00  0.00    +0.000 N 
ATOM     18  H   UNL     1       1.965   8.157  18.180  0.00  0.00    +0.000 HD
BRANCH  16  19
ATOM     19  C   UNL     1       1.100   8.850  20.490  0.00  0.00    +0.000 A 
ATOM     20  C   UNL     1       0.714   9.974  19.771  0.00  0.00    +0.000 A 
ATOM     21  C   UNL     1       0.046  10.962  20.595  0.00  0.00    +0.000 A 
ATOM     22  C   UNL     1      -0.077  10.513  21.887  0.00  0.00    +0.000 A 
ATOM     23  S   UNL     1       0.751   9.069  22.166  0.00  0.00    +0.000 S 
ATOM     24  C   UNL     1      -0.878  11.127  22.973  0.00  0.00    +0.000 C 
ATOM     25  C   UNL     1      -1.248  12.579  22.704  0.00  0.00    +0.000 C 
ATOM     26  C   UNL     1      -1.219  13.094  21.257  0.00  0.00    +0.000 C 
ATOM     27  C   UNL     1      -0.524  12.271  20.156  0.00  0.00    +0.000 C 
ENDBRANCH  16  19
ENDBRANCH   1  17
TORSDOF 4
ENDMDL
