MODEL 1
REMARK VINA RESULT:      -8.6      0.000      0.000
REMARK  Name = 
REMARK  3 active torsions:
REMARK  status: ('A' for Active; 'I' for Inactive)
REMARK    1  A    between atoms: C_1  and  C_2
REMARK    2  A    between atoms: N_6  and  C_7
REMARK    3  A    between atoms: C_11  and  C_12
REMARK                            x       y       z     vdW  Elec       q    Type
REMARK                         _______ _______ _______ _____ _____    ______ ____
ROOT
ATOM      1  C   UNL     1       1.779   7.799  19.864  0.00  0.00    +0.000 A 
ATOM      2  C   UNL     1       2.281   8.030  18.569  0.00  0.00    +0.000 A 
ATOM      3  C   UNL     1       2.056   9.233  17.901  0.00  0.00    +0.000 A 
ATOM      4  C   UNL     1       1.413  10.265  18.564  0.00  0.00    +0.000 A 
ATOM      5  C   UNL     1       1.009  10.077  19.889  0.00  0.00    +0.000 A 
ATOM      6  C   UNL     1       1.100   8.828  20.505  0.00  0.00    +0.000 A 
ENDROOT
BRANCH   5   7
ATOM      7  C   UNL     1       0.411  11.199  20.614  0.00  0.00    +0.000 C 
ATOM      8  O   UNL     1       0.942  11.470  21.690  0.00  0.00    +0.000 OA
ATOM      9  N   UNL     1      -0.638  11.962  20.069  0.00  0.00    +0.000 N 
ATOM     10  C   UNL     1      -0.677  13.320  20.586  0.00  0.00    +0.000 C 
ATOM     11  C   UNL     1      -1.989  14.069  20.499  0.00  0.00    +0.000 C 
ATOM     12  O   UNL     1      -3.146  13.291  20.254  0.00  0.00    +0.000 OA
ATOM     13  C   UNL     1      -2.958  12.250  19.388  0.00  0.00    +0.000 A 
ATOM     14  C   UNL     1      -4.128  11.854  18.721  0.00  0.00    +0.000 A 
ATOM     15  C   UNL     1      -4.118  10.759  17.868  0.00  0.00    +0.000 A 
ATOM     16  C   UNL     1      -2.941  10.050  17.729  0.00  0.00    +0.000 A 
ATOM     17  F   UNL     1      -2.904   8.995  16.898  0.00  0.00    +0.000 F 
ATOM     18  C   UNL     1      -1.792  10.398  18.445  0.00  0.00    +0.000 A 
ATOM     19  C   UNL     1      -1.754  11.531  19.275  0.00  0.00    +0.000 A 
ENDBRANCH   5   7
BRANCH   1  25
ATOM     20  C   UNL     1       3.195   1.907  17.721  0.00  0.00    +0.000 C 
ATOM     21  C   UNL     1       2.823   3.078  18.568  0.00  0.00    +0.000 A 
ATOM     22  C   UNL     1       3.180   3.174  19.904  0.00  0.00    +0.000 A 
ATOM     23  C   UNL     1       2.868   4.340  20.591  0.00  0.00    +0.000 A 
ATOM     24  C   UNL     1       2.232   5.364  19.905  0.00  0.00    +0.000 A 
ATOM     25  N   UNL     1       2.029   6.597  20.549  0.00  0.00    +0.000 N 
ATOM     26  N   UNL     1       1.869   5.207  18.612  0.00  0.00    +0.000 NA
ATOM     27  N   UNL     1       2.162   4.068  17.933  0.00  0.00    +0.000 NA
ATOM     28  H   UNL     1       1.481   6.471  21.394  0.00  0.00    +0.000 HD
ENDBRANCH   1  25
TORSDOF 2
ENDMDL
MODEL 2
REMARK VINA RESULT:      -8.5      3.129      8.143
REMARK  Name = 
REMARK  3 active torsions:
REMARK  status: ('A' for Active; 'I' for Inactive)
REMARK    1  A    between atoms: C_1  and  C_2
REMARK    2  A    between atoms: N_6  and  C_7
REMARK    3  A    between atoms: C_11  and  C_12
REMARK                            x       y       z     vdW  Elec       q    Type
REMARK                         _______ _______ _______ _____ _____    ______ ____
ROOT
ATOM      1  C   UNL     1       0.650   9.605  19.718  0.00  0.00    +0.000 A 
ATOM      2  C   UNL     1       0.676   8.923  20.949  0.00  0.00    +0.000 A 
ATOM      3  C   UNL     1       1.371   7.723  21.107  0.00  0.00    +0.000 A 
ATOM      4  C   UNL     1       2.140   7.244  20.060  0.00  0.00    +0.000 A 
ATOM      5  C   UNL     1       2.205   7.976  18.870  0.00  0.00    +0.000 A 
ATOM      6  C   UNL     1       1.394   9.093  18.661  0.00  0.00    +0.000 A 
ENDROOT
BRANCH   5   7
ATOM      7  C   UNL     1       3.088   7.513  17.800  0.00  0.00    +0.000 C 
ATOM      8  O   UNL     1       3.435   8.377  16.996  0.00  0.00    +0.000 OA
ATOM      9  N   UNL     1       3.570   6.192  17.753  0.00  0.00    +0.000 N 
ATOM     10  C   UNL     1       4.841   6.078  17.056  0.00  0.00    +0.000 C 
ATOM     11  C   UNL     1       5.216   4.724  16.493  0.00  0.00    +0.000 C 
ATOM     12  O   UNL     1       4.171   3.777  16.376  0.00  0.00    +0.000 OA
ATOM     13  C   UNL     1       3.263   3.803  17.398  0.00  0.00    +0.000 A 
ATOM     14  C   UNL     1       2.604   2.579  17.597  0.00  0.00    +0.000 A 
ATOM     15  C   UNL     1       1.597   2.466  18.545  0.00  0.00    +0.000 A 
ATOM     16  C   UNL     1       1.235   3.596  19.252  0.00  0.00    +0.000 A 
ATOM     17  F   UNL     1       0.272   3.507  20.183  0.00  0.00    +0.000 F 
ATOM     18  C   UNL     1       1.840   4.833  19.007  0.00  0.00    +0.000 A 
ATOM     19  C   UNL     1       2.898   4.970  18.094  0.00  0.00    +0.000 A 
ENDBRANCH   5   7
BRANCH   1  25
ATOM     20  C   UNL     1      -5.271  10.945  17.611  0.00  0.00    +0.000 C 
ATOM     21  C   UNL     1      -3.854  11.033  18.069  0.00  0.00    +0.000 A 
ATOM     22  C   UNL     1      -3.370  12.118  18.784  0.00  0.00    +0.000 A 
ATOM     23  C   UNL     1      -2.062  12.075  19.247  0.00  0.00    +0.000 A 
ATOM     24  C   UNL     1      -1.305  10.941  18.992  0.00  0.00    +0.000 A 
ATOM     25  N   UNL     1      -0.027  10.827  19.565  0.00  0.00    +0.000 N 
ATOM     26  N   UNL     1      -1.810   9.926  18.256  0.00  0.00    +0.000 NA
ATOM     27  N   UNL     1      -3.085   9.961  17.791  0.00  0.00    +0.000 NA
ATOM     28  H   UNL     1       0.562  11.603  19.279  0.00  0.00    +0.000 HD
ENDBRANCH   1  25
TORSDOF 2
ENDMDL
MODEL 3
REMARK VINA RESULT:      -8.3      3.227      8.411
REMARK  Name = 
REMARK  3 active torsions:
REMARK  status: ('A' for Active; 'I' for Inactive)
REMARK    1  A    between atoms: C_1  and  C_2
REMARK    2  A    between atoms: N_6  and  C_7
REMARK    3  A    between atoms: C_11  and  C_12
REMARK                            x       y       z     vdW  Elec       q    Type
REMARK                         _______ _______ _______ _____ _____    ______ ____
ROOT
ATOM      1  C   UNL     1       0.431   9.557  19.608  0.00  0.00    +0.000 A 
ATOM      2  C   UNL     1       0.569   9.000  20.894  0.00  0.00    +0.000 A 
ATOM      3  C   UNL     1       1.403   7.908  21.133  0.00  0.00    +0.000 A 
ATOM      4  C   UNL     1       2.194   7.423  20.105  0.00  0.00    +0.000 A 
ATOM      5  C   UNL     1       2.140   8.043  18.853  0.00  0.00    +0.000 A 
ATOM      6  C   UNL     1       1.199   9.036  18.574  0.00  0.00    +0.000 A 
ENDROOT
BRANCH   5   7
ATOM      7  C   UNL     1       3.042   7.584  17.796  0.00  0.00    +0.000 C 
ATOM      8  O   UNL     1       3.385   8.447  16.989  0.00  0.00    +0.000 OA
ATOM      9  N   UNL     1       3.544   6.270  17.764  0.00  0.00    +0.000 N 
ATOM     10  C   UNL     1       4.823   6.169  17.082  0.00  0.00    +0.000 C 
ATOM     11  C   UNL     1       5.225   4.817  16.534  0.00  0.00    +0.000 C 
ATOM     12  O   UNL     1       4.194   3.853  16.413  0.00  0.00    +0.000 OA
ATOM     13  C   UNL     1       3.275   3.874  17.425  0.00  0.00    +0.000 A 
ATOM     14  C   UNL     1       2.632   2.642  17.626  0.00  0.00    +0.000 A 
ATOM     15  C   UNL     1       1.616   2.521  18.564  0.00  0.00    +0.000 A 
ATOM     16  C   UNL     1       1.230   3.652  19.258  0.00  0.00    +0.000 A 
ATOM     17  F   UNL     1       0.258   3.556  20.180  0.00  0.00    +0.000 F 
ATOM     18  C   UNL     1       1.820   4.895  19.010  0.00  0.00    +0.000 A 
ATOM     19  C   UNL     1       2.886   5.041  18.107  0.00  0.00    +0.000 A 
ENDBRANCH   5   7
BRANCH   1  25
ATOM     20  C   UNL     1       1.858  15.775  18.839  0.00  0.00    +0.000 C 
ATOM     21  C   UNL     1       1.152  14.477  19.037  0.00  0.00    +0.000 A 
ATOM     22  C   UNL     1      -0.119  14.237  18.536  0.00  0.00    +0.000 A 
ATOM     23  C   UNL     1      -0.663  12.969  18.693  0.00  0.00    +0.000 A 
ATOM     24  C   UNL     1       0.095  11.994  19.324  0.00  0.00    +0.000 A 
ATOM     25  N   UNL     1      -0.388  10.675  19.372  0.00  0.00    +0.000 N 
ATOM     26  N   UNL     1       1.314  12.289  19.830  0.00  0.00    +0.000 NA
ATOM     27  N   UNL     1       1.852  13.527  19.690  0.00  0.00    +0.000 NA
ATOM     28  H   UNL     1      -1.290  10.643  19.836  0.00  0.00    +0.000 HD
ENDBRANCH   1  25
TORSDOF 2
ENDMDL
MODEL 4
REMARK VINA RESULT:      -8.3      1.788      2.454
REMARK  Name = 
REMARK  3 active torsions:
REMARK  status: ('A' for Active; 'I' for Inactive)
REMARK    1  A    between atoms: C_1  and  C_2
REMARK    2  A    between atoms: N_6  and  C_7
REMARK    3  A    between atoms: C_11  and  C_12
REMARK                            x       y       z     vdW  Elec       q    Type
REMARK                         _______ _______ _______ _____ _____    ______ ____
ROOT
ATOM      1  C   UNL     1       1.644   9.726  18.085  0.00  0.00    +0.000 A 
ATOM      2  C   UNL     1       2.474  10.835  17.835  0.00  0.00    +0.000 A 
ATOM      3  C   UNL     1       2.141  12.114  18.279  0.00  0.00    +0.000 A 
ATOM      4  C   UNL     1       1.019  12.282  19.075  0.00  0.00    +0.000 A 
ATOM      5  C   UNL     1       0.251  11.165  19.416  0.00  0.00    +0.000 A 
ATOM      6  C   UNL     1       0.500   9.913  18.850  0.00  0.00    +0.000 A 
ENDROOT
BRANCH   5   7
ATOM      7  C   UNL     1      -0.880  11.334  20.328  0.00  0.00    +0.000 C 
ATOM      8  O   UNL     1      -0.652  11.050  21.504  0.00  0.00    +0.000 OA
ATOM      9  N   UNL     1      -2.109  11.869  19.899  0.00  0.00    +0.000 N 
ATOM     10  C   UNL     1      -2.847  12.521  20.968  0.00  0.00    +0.000 C 
ATOM     11  C   UNL     1      -4.342  12.679  20.797  0.00  0.00    +0.000 C 
ATOM     12  O   UNL     1      -4.951  11.884  19.796  0.00  0.00    +0.000 OA
ATOM     13  C   UNL     1      -4.201  11.723  18.663  0.00  0.00    +0.000 A 
ATOM     14  C   UNL     1      -4.965  11.457  17.516  0.00  0.00    +0.000 A 
ATOM     15  C   UNL     1      -4.347  11.190  16.303  0.00  0.00    +0.000 A 
ATOM     16  C   UNL     1      -2.967  11.153  16.267  0.00  0.00    +0.000 A 
ATOM     17  F   UNL     1      -2.346  10.911  15.101  0.00  0.00    +0.000 F 
ATOM     18  C   UNL     1      -2.203  11.348  17.422  0.00  0.00    +0.000 A 
ATOM     19  C   UNL     1      -2.796  11.672  18.654  0.00  0.00    +0.000 A 
ENDBRANCH   5   7
BRANCH   1  25
ATOM     20  C   UNL     1       1.954   4.154  21.272  0.00  0.00    +0.000 C 
ATOM     21  C   UNL     1       2.069   5.232  20.248  0.00  0.00    +0.000 A 
ATOM     22  C   UNL     1       2.011   4.974  18.886  0.00  0.00    +0.000 A 
ATOM     23  C   UNL     1       2.037   6.049  18.008  0.00  0.00    +0.000 A 
ATOM     24  C   UNL     1       2.100   7.332  18.530  0.00  0.00    +0.000 A 
ATOM     25  N   UNL     1       1.994   8.432  17.661  0.00  0.00    +0.000 N 
ATOM     26  N   UNL     1       2.195   7.530  19.864  0.00  0.00    +0.000 NA
ATOM     27  N   UNL     1       2.179   6.486  20.732  0.00  0.00    +0.000 NA
ATOM     28  H   UNL     1       2.726   8.401  16.958  0.00  0.00    +0.000 HD
ENDBRANCH   1  25
TORSDOF 2
ENDMDL
MODEL 5
REMARK VINA RESULT:      -8.0      3.609      6.012
REMARK  Name = 
REMARK  3 active torsions:
REMARK  status: ('A' for Active; 'I' for Inactive)
REMARK    1  A    between atoms: C_1  and  C_2
REMARK    2  A    between atoms: N_6  and  C_7
REMARK    3  A    between atoms: C_11  and  C_12
REMARK                            x       y       z     vdW  Elec       q    Type
REMARK                         _______ _______ _______ _____ _____    ______ ____
ROOT
ATOM      1  C   UNL     1       4.574   3.813  18.696  0.00  0.00    +0.000 A 
ATOM      2  C   UNL     1       4.037   3.055  17.639  0.00  0.00    +0.000 A 
ATOM      3  C   UNL     1       2.662   2.862  17.501  0.00  0.00    +0.000 A 
ATOM      4  C   UNL     1       1.798   3.519  18.362  0.00  0.00    +0.000 A 
ATOM      5  C   UNL     1       2.324   4.361  19.346  0.00  0.00    +0.000 A 
ATOM      6  C   UNL     1       3.699   4.435  19.578  0.00  0.00    +0.000 A 
ENDROOT
BRANCH   5   7
ATOM      7  C   UNL     1       1.406   5.120  20.195  0.00  0.00    +0.000 C 
ATOM      8  O   UNL     1       0.583   4.444  20.812  0.00  0.00    +0.000 OA
ATOM      9  N   UNL     1       1.520   6.513  20.355  0.00  0.00    +0.000 N 
ATOM     10  C   UNL     1       0.989   6.982  21.624  0.00  0.00    +0.000 C 
ATOM     11  C   UNL     1       0.583   8.436  21.723  0.00  0.00    +0.000 C 
ATOM     12  O   UNL     1       0.418   9.131  20.501  0.00  0.00    +0.000 OA
ATOM     13  C   UNL     1       1.320   8.795  19.530  0.00  0.00    +0.000 A 
ATOM     14  C   UNL     1       1.535   9.811  18.585  0.00  0.00    +0.000 A 
ATOM     15  C   UNL     1       2.363   9.596  17.493  0.00  0.00    +0.000 A 
ATOM     16  C   UNL     1       2.931   8.346  17.340  0.00  0.00    +0.000 A 
ATOM     17  F   UNL     1       3.746   8.118  16.298  0.00  0.00    +0.000 F 
ATOM     18  C   UNL     1       2.664   7.310  18.240  0.00  0.00    +0.000 A 
ATOM     19  C   UNL     1       1.874   7.510  19.384  0.00  0.00    +0.000 A 
ENDBRANCH   5   7
BRANCH   1  25
ATOM     20  C   UNL     1       8.155   9.056  17.698  0.00  0.00    +0.000 C 
ATOM     21  C   UNL     1       7.685   7.663  17.950  0.00  0.00    +0.000 A 
ATOM     22  C   UNL     1       8.400   6.767  18.731  0.00  0.00    +0.000 A 
ATOM     23  C   UNL     1       7.843   5.520  18.984  0.00  0.00    +0.000 A 
ATOM     24  C   UNL     1       6.590   5.234  18.463  0.00  0.00    +0.000 A 
ATOM     25  N   UNL     1       5.958   4.030  18.819  0.00  0.00    +0.000 N 
ATOM     26  N   UNL     1       5.951   6.127  17.674  0.00  0.00    +0.000 NA
ATOM     27  N   UNL     1       6.489   7.346  17.413  0.00  0.00    +0.000 NA
ATOM     28  H   UNL     1       6.534   3.236  18.561  0.00  0.00    +0.000 HD
ENDBRANCH   1  25
TORSDOF 2
ENDMDL
MODEL 6
REMARK VINA RESULT:      -8.0      4.058      6.334
REMARK  Name = 
REMARK  3 active torsions:
REMARK  status: ('A' for Active; 'I' for Inactive)
REMARK    1  A    between atoms: C_1  and  C_2
REMARK    2  A    between atoms: N_6  and  C_7
REMARK    3  A    between atoms: C_11  and  C_12
REMARK                            x       y       z     vdW  Elec       q    Type
REMARK                         _______ _______ _______ _____ _____    ______ ____
ROOT
ATOM      1  C   UNL     1       1.884  11.976  18.314  0.00  0.00    +0.000 A 
ATOM      2  C   UNL     1       2.158  10.640  17.966  0.00  0.00    +0.000 A 
ATOM      3  C   UNL     1       1.463   9.576  18.541  0.00  0.00    +0.000 A 
ATOM      4  C   UNL     1       0.407   9.843  19.397  0.00  0.00    +0.000 A 
ATOM      5  C   UNL     1       0.061  11.171  19.661  0.00  0.00    +0.000 A 
ATOM      6  C   UNL     1       0.848  12.230  19.205  0.00  0.00    +0.000 A 
ENDROOT
BRANCH   5   7
ATOM      7  C   UNL     1      -1.110  11.447  20.494  0.00  0.00    +0.000 C 
ATOM      8  O   UNL     1      -0.955  11.244  21.698  0.00  0.00    +0.000 OA
ATOM      9  N   UNL     1      -2.293  11.988  19.959  0.00  0.00    +0.000 N 
ATOM     10  C   UNL     1      -3.061  12.743  20.935  0.00  0.00    +0.000 C 
ATOM     11  C   UNL     1      -4.539  12.938  20.670  0.00  0.00    +0.000 C 
ATOM     12  O   UNL     1      -5.123  12.091  19.698  0.00  0.00    +0.000 OA
ATOM     13  C   UNL     1      -4.322  11.820  18.624  0.00  0.00    +0.000 A 
ATOM     14  C   UNL     1      -5.034  11.493  17.458  0.00  0.00    +0.000 A 
ATOM     15  C   UNL     1      -4.363  11.116  16.304  0.00  0.00    +0.000 A 
ATOM     16  C   UNL     1      -2.985  11.030  16.348  0.00  0.00    +0.000 A 
ATOM     17  F   UNL     1      -2.313  10.680  15.239  0.00  0.00    +0.000 F 
ATOM     18  C   UNL     1      -2.276  11.286  17.526  0.00  0.00    +0.000 A 
ATOM     19  C   UNL     1      -2.921  11.722  18.696  0.00  0.00    +0.000 A 
ENDBRANCH   5   7
BRANCH   1  25
ATOM     20  C   UNL     1       6.112  16.187  20.701  0.00  0.00    +0.000 C 
ATOM     21  C   UNL     1       5.137  15.464  19.834  0.00  0.00    +0.000 A 
ATOM     22  C   UNL     1       5.231  15.460  18.451  0.00  0.00    +0.000 A 
ATOM     23  C   UNL     1       4.332  14.686  17.729  0.00  0.00    +0.000 A 
ATOM     24  C   UNL     1       3.394  13.937  18.423  0.00  0.00    +0.000 A 
ATOM     25  N   UNL     1       2.565  13.050  17.714  0.00  0.00    +0.000 N 
ATOM     26  N   UNL     1       3.317  14.006  19.771  0.00  0.00    +0.000 NA
ATOM     27  N   UNL     1       4.185  14.765  20.487  0.00  0.00    +0.000 NA
ATOM     28  H   UNL     1       2.030  13.548  17.010  0.00  0.00    +0.000 HD
ENDBRANCH   1  25
TORSDOF 2
ENDMDL
MODEL 7
REMARK VINA RESULT:      -7.8      1.750      1.764
REMARK  Name = 
REMARK  3 active torsions:
REMARK  status: ('A' for Active; 'I' for Inactive)
REMARK    1  A    between atoms: C_1  and  C_2
REMARK    2  A    between atoms: N_6  and  C_7
REMARK    3  A    between atoms: C_11  and  C_12
REMARK                            x       y       z     vdW  Elec       q    Type
REMARK                         _______ _______ _______ _____ _____    ______ ____
ROOT
ATOM      1  C   UNL     1       1.953   8.122  19.152  0.00  0.00    +0.000 A 
ATOM      2  C   UNL     1       2.559   8.813  18.086  0.00  0.00    +0.000 A 
ATOM      3  C   UNL     1       2.176  10.110  17.742  0.00  0.00    +0.000 A 
ATOM      4  C   UNL     1       1.253  10.774  18.532  0.00  0.00    +0.000 A 
ATOM      5  C   UNL     1       0.729  10.130  19.657  0.00  0.00    +0.000 A 
ATOM      6  C   UNL     1       0.997   8.784  19.913  0.00  0.00    +0.000 A 
ENDROOT
BRANCH   5   7
ATOM      7  C   UNL     1      -0.178  10.867  20.537  0.00  0.00    +0.000 C 
ATOM      8  O   UNL     1       0.109  10.832  21.733  0.00  0.00    +0.000 OA
ATOM      9  N   UNL     1      -1.248  11.630  20.033  0.00  0.00    +0.000 N 
ATOM     10  C   UNL     1      -1.623  12.726  20.911  0.00  0.00    +0.000 C 
ATOM     11  C   UNL     1      -3.019  13.293  20.772  0.00  0.00    +0.000 C 
ATOM     12  O   UNL     1      -3.955  12.501  20.063  0.00  0.00    +0.000 OA
ATOM     13  C   UNL     1      -3.437  11.835  18.988  0.00  0.00    +0.000 A 
ATOM     14  C   UNL     1      -4.387  11.538  17.998  0.00  0.00    +0.000 A 
ATOM     15  C   UNL     1      -4.034  10.796  16.880  0.00  0.00    +0.000 A 
ATOM     16  C   UNL     1      -2.739  10.324  16.791  0.00  0.00    +0.000 A 
ATOM     17  F   UNL     1      -2.371   9.614  15.713  0.00  0.00    +0.000 F 
ATOM     18  C   UNL     1      -1.808  10.557  17.809  0.00  0.00    +0.000 A 
ATOM     19  C   UNL     1      -2.118  11.349  18.927  0.00  0.00    +0.000 A 
ENDBRANCH   5   7
BRANCH   1  25
ATOM     20  C   UNL     1       6.999   4.581  17.335  0.00  0.00    +0.000 C 
ATOM     21  C   UNL     1       5.710   5.053  17.919  0.00  0.00    +0.000 A 
ATOM     22  C   UNL     1       5.193   4.536  19.097  0.00  0.00    +0.000 A 
ATOM     23  C   UNL     1       4.032   5.098  19.613  0.00  0.00    +0.000 A 
ATOM     24  C   UNL     1       3.454   6.163  18.938  0.00  0.00    +0.000 A 
ATOM     25  N   UNL     1       2.357   6.825  19.516  0.00  0.00    +0.000 N 
ATOM     26  N   UNL     1       3.974   6.605  17.771  0.00  0.00    +0.000 NA
ATOM     27  N   UNL     1       5.104   6.058  17.254  0.00  0.00    +0.000 NA
ATOM     28  H   UNL     1       1.594   6.176  19.679  0.00  0.00    +0.000 HD
ENDBRANCH   1  25
TORSDOF 2
ENDMDL
MODEL 8
REMARK VINA RESULT:      -7.8      3.552      5.343
REMARK  Name = 
REMARK  3 active torsions:
REMARK  status: ('A' for Active; 'I' for Inactive)
REMARK    1  A    between atoms: C_1  and  C_2
REMARK    2  A    between atoms: N_6  and  C_7
REMARK    3  A    between atoms: C_11  and  C_12
REMARK                            x       y       z     vdW  Elec       q    Type
REMARK                         _______ _______ _______ _____ _____    ______ ____
ROOT
ATOM      1  C   UNL     1      -0.893  11.405  22.570  0.00  0.00    +0.000 A 
ATOM      2  C   UNL     1      -0.179  12.587  22.296  0.00  0.00    +0.000 A 
ATOM      3  C   UNL     1      -0.780  13.843  22.379  0.00  0.00    +0.000 A 
ATOM      4  C   UNL     1      -2.082  13.939  22.844  0.00  0.00    +0.000 A 
ATOM      5  C   UNL     1      -2.759  12.776  23.222  0.00  0.00    +0.000 A 
ATOM      6  C   UNL     1      -2.211  11.511  22.997  0.00  0.00    +0.000 A 
ENDROOT
BRANCH   5   7
ATOM      7  C   UNL     1      -4.100  12.891  23.796  0.00  0.00    +0.000 C 
ATOM      8  O   UNL     1      -4.168  12.701  25.010  0.00  0.00    +0.000 OA
ATOM      9  N   UNL     1      -5.209  13.280  23.023  0.00  0.00    +0.000 N 
ATOM     10  C   UNL     1      -6.250  13.922  23.809  0.00  0.00    +0.000 C 
ATOM     11  C   UNL     1      -7.655  13.927  23.246  0.00  0.00    +0.000 C 
ATOM     12  O   UNL     1      -7.917  13.019  22.192  0.00  0.00    +0.000 OA
ATOM     13  C   UNL     1      -6.886  12.862  21.307  0.00  0.00    +0.000 A 
ATOM     14  C   UNL     1      -7.298  12.456  20.028  0.00  0.00    +0.000 A 
ATOM     15  C   UNL     1      -6.364  12.178  19.041  0.00  0.00    +0.000 A 
ATOM     16  C   UNL     1      -5.024  12.270  19.364  0.00  0.00    +0.000 A 
ATOM     17  F   UNL     1      -4.102  12.018  18.421  0.00  0.00    +0.000 F 
ATOM     18  C   UNL     1      -4.609  12.605  20.656  0.00  0.00    +0.000 A 
ATOM     19  C   UNL     1      -5.527  12.945  21.663  0.00  0.00    +0.000 A 
ENDBRANCH   5   7
BRANCH   1  25
ATOM     20  C   UNL     1       2.216   8.407  17.811  0.00  0.00    +0.000 C 
ATOM     21  C   UNL     1       1.518   8.739  19.087  0.00  0.00    +0.000 A 
ATOM     22  C   UNL     1       1.849   8.141  20.294  0.00  0.00    +0.000 A 
ATOM     23  C   UNL     1       1.207   8.576  21.445  0.00  0.00    +0.000 A 
ATOM     24  C   UNL     1       0.280   9.602  21.341  0.00  0.00    +0.000 A 
ATOM     25  N   UNL     1      -0.279  10.142  22.513  0.00  0.00    +0.000 N 
ATOM     26  N   UNL     1      -0.037  10.126  20.136  0.00  0.00    +0.000 NA
ATOM     27  N   UNL     1       0.579   9.703  19.002  0.00  0.00    +0.000 NA
ATOM     28  H   UNL     1      -0.751   9.419  23.047  0.00  0.00    +0.000 HD
ENDBRANCH   1  25
TORSDOF 2
ENDMDL
MODEL 9
REMARK VINA RESULT:      -7.8      9.608     11.200
REMARK  Name = 
REMARK  3 active torsions:
REMARK  status: ('A' for Active; 'I' for Inactive)
REMARK    1  A    between atoms: C_1  and  C_2
REMARK    2  A    between atoms: N_6  and  C_7
REMARK    3  A    between atoms: C_11  and  C_12
REMARK                            x       y       z     vdW  Elec       q    Type
REMARK                         _______ _______ _______ _____ _____    ______ ____
ROOT
ATOM      1  C   UNL     1       9.415  11.332  20.613  0.00  0.00    +0.000 A 
ATOM      2  C   UNL     1       9.198  10.339  19.639  0.00  0.00    +0.000 A 
ATOM      3  C   UNL     1       9.474  10.563  18.290  0.00  0.00    +0.000 A 
ATOM      4  C   UNL     1      10.074  11.753  17.912  0.00  0.00    +0.000 A 
ATOM      5  C   UNL     1      10.392  12.698  18.891  0.00  0.00    +0.000 A 
ATOM      6  C   UNL     1       9.981  12.538  20.216  0.00  0.00    +0.000 A 
ENDROOT
BRANCH   5   7
ATOM      7  C   UNL     1      11.106  13.913  18.498  0.00  0.00    +0.000 C 
ATOM      8  O   UNL     1      12.331  13.855  18.595  0.00  0.00    +0.000 OA
ATOM      9  N   UNL     1      10.437  15.030  17.964  0.00  0.00    +0.000 N 
ATOM     10  C   UNL     1      11.281  15.834  17.096  0.00  0.00    +0.000 C 
ATOM     11  C   UNL     1      10.887  17.278  16.872  0.00  0.00    +0.000 C 
ATOM     12  O   UNL     1       9.952  17.826  17.782  0.00  0.00    +0.000 OA
ATOM     13  C   UNL     1       8.970  16.962  18.179  0.00  0.00    +0.000 A 
ATOM     14  C   UNL     1       7.788  17.600  18.585  0.00  0.00    +0.000 A 
ATOM     15  C   UNL     1       6.726  16.864  19.091  0.00  0.00    +0.000 A 
ATOM     16  C   UNL     1       6.882  15.498  19.223  0.00  0.00    +0.000 A 
ATOM     17  F   UNL     1       5.863  14.764  19.697  0.00  0.00    +0.000 F 
ATOM     18  C   UNL     1       8.083  14.867  18.887  0.00  0.00    +0.000 A 
ATOM     19  C   UNL     1       9.157  15.575  18.322  0.00  0.00    +0.000 A 
ENDBRANCH   5   7
BRANCH   1  25
ATOM     20  C   UNL     1       5.479  14.256  24.768  0.00  0.00    +0.000 C 
ATOM     21  C   UNL     1       6.531  13.405  24.140  0.00  0.00    +0.000 A 
ATOM     22  C   UNL     1       6.879  12.160  24.643  0.00  0.00    +0.000 A 
ATOM     23  C   UNL     1       7.806  11.400  23.943  0.00  0.00    +0.000 A 
ATOM     24  C   UNL     1       8.326  11.908  22.762  0.00  0.00    +0.000 A 
ATOM     25  N   UNL     1       9.163  11.097  21.976  0.00  0.00    +0.000 N 
ATOM     26  N   UNL     1       7.985  13.145  22.334  0.00  0.00    +0.000 NA
ATOM     27  N   UNL     1       7.086  13.901  23.015  0.00  0.00    +0.000 NA
ATOM     28  H   UNL     1       9.973  10.799  22.510  0.00  0.00    +0.000 HD
ENDBRANCH   1  25
TORSDOF 2
ENDMDL
