MODEL 1
REMARK VINA RESULT:      -8.4      0.000      0.000
REMARK  Name = 
REMARK  8 active torsions:
REMARK  status: ('A' for Active; 'I' for Inactive)
REMARK    1  A    between atoms: C_1  and  C_2
REMARK    2  A    between atoms: C_2  and  C_3
REMARK    3  A    between atoms: C_2  and  C_22
REMARK    4  A    between atoms: C_7  and  N_8
REMARK    5  A    between atoms: C_9  and  C_11
REMARK    6  A    between atoms: C_15  and  C_16
REMARK    7  A    between atoms: C_16  and  C_17
REMARK    8  A    between atoms: N_26  and  C_27
REMARK                            x       y       z     vdW  Elec       q    Type
REMARK                         _______ _______ _______ _____ _____    ______ ____
ROOT
ATOM      1  C   UNL     1       4.638   5.603  17.437  0.00  0.00    +0.000 A 
ATOM      2  C   UNL     1       5.400   4.537  16.924  0.00  0.00    +0.000 A 
ATOM      3  C   UNL     1       6.761   4.692  16.658  0.00  0.00    +0.000 A 
ATOM      4  C   UNL     1       7.372   5.929  16.828  0.00  0.00    +0.000 A 
ATOM      5  C   UNL     1       6.616   7.039  17.213  0.00  0.00    +0.000 A 
ATOM      6  C   UNL     1       5.269   6.862  17.558  0.00  0.00    +0.000 A 
ENDROOT
BRANCH   5   7
ATOM      7  N   UNL     1       7.158   8.350  17.252  0.00  0.00    +0.000 N 
ATOM      8  C   UNL     1       8.145   8.754  18.131  0.00  0.00    +0.000 C 
ATOM      9  O   UNL     1       8.679   8.039  18.988  0.00  0.00    +0.000 OA
ATOM     10  H   UNL     1       6.938   8.953  16.476  0.00  0.00    +0.000 HD
BRANCH   8  11
ATOM     11  C   UNL     1       8.635  10.151  18.035  0.00  0.00    +0.000 A 
ATOM     12  C   UNL     1       7.961  11.157  17.339  0.00  0.00    +0.000 A 
ATOM     13  C   UNL     1       8.386  12.483  17.467  0.00  0.00    +0.000 A 
ATOM     14  C   UNL     1       9.447  12.809  18.320  0.00  0.00    +0.000 A 
ATOM     15  C   UNL     1      10.121  11.811  19.034  0.00  0.00    +0.000 A 
ATOM     16  C   UNL     1       9.743  10.480  18.834  0.00  0.00    +0.000 A 
BRANCH  15  17
ATOM     17  C   UNL     1      11.146  12.145  20.096  0.00  0.00    +0.000 C 
ATOM     18  C   UNL     1      11.592  13.598  19.974  0.00  0.00    +0.000 C 
ATOM     19  F   UNL     1      10.665  11.962  21.360  0.00  0.00    +0.000 F 
ATOM     20  F   UNL     1      12.257  11.358  20.012  0.00  0.00    +0.000 F 
ENDBRANCH  15  17
ENDBRANCH   8  11
ENDBRANCH   5   7
BRANCH   1  22
ATOM     21  C   UNL     1       2.468   6.731  18.134  0.00  0.00    +0.000 C 
ATOM     22  C   UNL     1       3.165   5.393  17.815  0.00  0.00    +0.000 C 
BRANCH  22  23
ATOM     23  C   UNL     1       2.950   4.430  18.967  0.00  0.00    +0.000 A 
ATOM     24  N   UNL     1       2.905   4.761  20.253  0.00  0.00    +0.000 NA
ATOM     25  N   UNL     1       2.640   3.634  20.992  0.00  0.00    +0.000 NA
ATOM     26  C   UNL     1       2.497   2.637  20.150  0.00  0.00    +0.000 A 
ATOM     27  N   UNL     1       2.673   3.088  18.877  0.00  0.00    +0.000 N 
ATOM     28  C   UNL     1       2.570   2.265  17.701  0.00  0.00    +0.000 C 
ENDBRANCH  22  23
ENDBRANCH   1  22
TORSDOF 5
ENDMDL
MODEL 2
REMARK VINA RESULT:      -8.3      4.507      9.885
REMARK  Name = 
REMARK  8 active torsions:
REMARK  status: ('A' for Active; 'I' for Inactive)
REMARK    1  A    between atoms: C_1  and  C_2
REMARK    2  A    between atoms: C_2  and  C_3
REMARK    3  A    between atoms: C_2  and  C_22
REMARK    4  A    between atoms: C_7  and  N_8
REMARK    5  A    between atoms: C_9  and  C_11
REMARK    6  A    between atoms: C_15  and  C_16
REMARK    7  A    between atoms: C_16  and  C_17
REMARK    8  A    between atoms: N_26  and  C_27
REMARK                            x       y       z     vdW  Elec       q    Type
REMARK                         _______ _______ _______ _____ _____    ______ ____
ROOT
ATOM      1  C   UNL     1       9.986  12.687  18.595  0.00  0.00    +0.000 A 
ATOM      2  C   UNL     1       9.894  13.176  19.911  0.00  0.00    +0.000 A 
ATOM      3  C   UNL     1       9.676  12.310  20.983  0.00  0.00    +0.000 A 
ATOM      4  C   UNL     1       9.472  10.954  20.758  0.00  0.00    +0.000 A 
ATOM      5  C   UNL     1       9.428  10.457  19.454  0.00  0.00    +0.000 A 
ATOM      6  C   UNL     1       9.730  11.313  18.386  0.00  0.00    +0.000 A 
ENDROOT
BRANCH   5   7
ATOM      7  N   UNL     1       9.073   9.113  19.164  0.00  0.00    +0.000 N 
ATOM      8  C   UNL     1       8.151   8.746  18.202  0.00  0.00    +0.000 C 
ATOM      9  O   UNL     1       7.522   9.525  17.477  0.00  0.00    +0.000 OA
ATOM     10  H   UNL     1       9.662   8.396  19.555  0.00  0.00    +0.000 HD
BRANCH   8  11
ATOM     11  C   UNL     1       7.903   7.299  17.992  0.00  0.00    +0.000 A 
ATOM     12  C   UNL     1       8.092   6.333  18.983  0.00  0.00    +0.000 A 
ATOM     13  C   UNL     1       7.645   5.026  18.761  0.00  0.00    +0.000 A 
ATOM     14  C   UNL     1       6.973   4.697  17.578  0.00  0.00    +0.000 A 
ATOM     15  C   UNL     1       6.766   5.659  16.584  0.00  0.00    +0.000 A 
ATOM     16  C   UNL     1       7.291   6.941  16.779  0.00  0.00    +0.000 A 
BRANCH  15  17
ATOM     17  C   UNL     1       5.890   5.386  15.380  0.00  0.00    +0.000 C 
ATOM     18  C   UNL     1       5.073   4.115  15.587  0.00  0.00    +0.000 C 
ATOM     19  F   UNL     1       5.018   6.405  15.128  0.00  0.00    +0.000 F 
ATOM     20  F   UNL     1       6.614   5.235  14.234  0.00  0.00    +0.000 F 
ENDBRANCH  15  17
ENDBRANCH   8  11
ENDBRANCH   5   7
BRANCH   1  22
ATOM     21  C   UNL     1      11.697  13.312  16.821  0.00  0.00    +0.000 C 
ATOM     22  C   UNL     1      10.321  13.637  17.436  0.00  0.00    +0.000 C 
BRANCH  22  23
ATOM     23  C   UNL     1      10.272  15.107  17.803  0.00  0.00    +0.000 A 
ATOM     24  N   UNL     1      11.326  15.896  17.980  0.00  0.00    +0.000 NA
ATOM     25  N   UNL     1      10.888  17.170  18.248  0.00  0.00    +0.000 NA
ATOM     26  C   UNL     1       9.576  17.151  18.203  0.00  0.00    +0.000 A 
ATOM     27  N   UNL     1       9.148  15.889  17.920  0.00  0.00    +0.000 N 
ATOM     28  C   UNL     1       7.768  15.511  17.778  0.00  0.00    +0.000 C 
ENDBRANCH  22  23
ENDBRANCH   1  22
TORSDOF 5
ENDMDL
MODEL 3
REMARK VINA RESULT:      -8.2      5.754      6.955
REMARK  Name = 
REMARK  8 active torsions:
REMARK  status: ('A' for Active; 'I' for Inactive)
REMARK    1  A    between atoms: C_1  and  C_2
REMARK    2  A    between atoms: C_2  and  C_3
REMARK    3  A    between atoms: C_2  and  C_22
REMARK    4  A    between atoms: C_7  and  N_8
REMARK    5  A    between atoms: C_9  and  C_11
REMARK    6  A    between atoms: C_15  and  C_16
REMARK    7  A    between atoms: C_16  and  C_17
REMARK    8  A    between atoms: N_26  and  C_27
REMARK                            x       y       z     vdW  Elec       q    Type
REMARK                         _______ _______ _______ _____ _____    ______ ____
ROOT
ATOM      1  C   UNL     1       4.225   3.858  18.079  0.00  0.00    +0.000 A 
ATOM      2  C   UNL     1       4.989   3.926  16.899  0.00  0.00    +0.000 A 
ATOM      3  C   UNL     1       5.207   5.144  16.255  0.00  0.00    +0.000 A 
ATOM      4  C   UNL     1       4.609   6.305  16.732  0.00  0.00    +0.000 A 
ATOM      5  C   UNL     1       3.742   6.250  17.826  0.00  0.00    +0.000 A 
ATOM      6  C   UNL     1       3.591   5.042  18.519  0.00  0.00    +0.000 A 
ENDROOT
BRANCH   5   7
ATOM      7  N   UNL     1       2.990   7.375  18.256  0.00  0.00    +0.000 N 
ATOM      8  C   UNL     1       2.252   7.413  19.423  0.00  0.00    +0.000 C 
ATOM      9  O   UNL     1       2.147   6.487  20.236  0.00  0.00    +0.000 OA
ATOM     10  H   UNL     1       3.161   8.243  17.774  0.00  0.00    +0.000 HD
BRANCH   8  11
ATOM     11  C   UNL     1       1.539   8.671  19.757  0.00  0.00    +0.000 A 
ATOM     12  C   UNL     1       1.146   9.610  18.801  0.00  0.00    +0.000 A 
ATOM     13  C   UNL     1       0.308  10.664  19.178  0.00  0.00    +0.000 A 
ATOM     14  C   UNL     1      -0.172  10.754  20.491  0.00  0.00    +0.000 A 
ATOM     15  C   UNL     1       0.204   9.811  21.454  0.00  0.00    +0.000 A 
ATOM     16  C   UNL     1       1.109   8.810  21.087  0.00  0.00    +0.000 A 
BRANCH  15  17
ATOM     17  C   UNL     1      -0.435   9.774  22.825  0.00  0.00    +0.000 C 
ATOM     18  C   UNL     1      -1.192  11.069  23.100  0.00  0.00    +0.000 C 
ATOM     19  F   UNL     1      -1.315   8.740  22.963  0.00  0.00    +0.000 F 
ATOM     20  F   UNL     1       0.482   9.607  23.822  0.00  0.00    +0.000 F 
ENDBRANCH  15  17
ENDBRANCH   8  11
ENDBRANCH   5   7
BRANCH   1  22
ATOM     21  C   UNL     1       3.612   1.398  17.886  0.00  0.00    +0.000 C 
ATOM     22  C   UNL     1       4.073   2.527  18.829  0.00  0.00    +0.000 C 
BRANCH  22  23
ATOM     23  C   UNL     1       3.142   2.590  20.025  0.00  0.00    +0.000 A 
ATOM     24  N   UNL     1       3.520   2.671  21.296  0.00  0.00    +0.000 NA
ATOM     25  N   UNL     1       2.401   2.764  22.087  0.00  0.00    +0.000 NA
ATOM     26  C   UNL     1       1.357   2.771  21.291  0.00  0.00    +0.000 A 
ATOM     27  N   UNL     1       1.771   2.674  19.997  0.00  0.00    +0.000 N 
ATOM     28  C   UNL     1       0.890   2.669  18.860  0.00  0.00    +0.000 C 
ENDBRANCH  22  23
ENDBRANCH   1  22
TORSDOF 5
ENDMDL
MODEL 4
REMARK VINA RESULT:      -8.2      5.192      7.563
REMARK  Name = 
REMARK  8 active torsions:
REMARK  status: ('A' for Active; 'I' for Inactive)
REMARK    1  A    between atoms: C_1  and  C_2
REMARK    2  A    between atoms: C_2  and  C_3
REMARK    3  A    between atoms: C_2  and  C_22
REMARK    4  A    between atoms: C_7  and  N_8
REMARK    5  A    between atoms: C_9  and  C_11
REMARK    6  A    between atoms: C_15  and  C_16
REMARK    7  A    between atoms: C_16  and  C_17
REMARK    8  A    between atoms: N_26  and  C_27
REMARK                            x       y       z     vdW  Elec       q    Type
REMARK                         _______ _______ _______ _____ _____    ______ ____
ROOT
ATOM      1  C   UNL     1       5.372   4.551  18.929  0.00  0.00    +0.000 A 
ATOM      2  C   UNL     1       4.872   3.298  19.331  0.00  0.00    +0.000 A 
ATOM      3  C   UNL     1       3.556   3.160  19.771  0.00  0.00    +0.000 A 
ATOM      4  C   UNL     1       2.735   4.276  19.889  0.00  0.00    +0.000 A 
ATOM      5  C   UNL     1       3.240   5.550  19.620  0.00  0.00    +0.000 A 
ATOM      6  C   UNL     1       4.536   5.677  19.100  0.00  0.00    +0.000 A 
ENDROOT
BRANCH   5   7
ATOM      7  N   UNL     1       2.493   6.731  19.870  0.00  0.00    +0.000 N 
ATOM      8  C   UNL     1       2.312   7.743  18.947  0.00  0.00    +0.000 C 
ATOM      9  O   UNL     1       2.771   7.757  17.799  0.00  0.00    +0.000 OA
ATOM     10  H   UNL     1       1.918   6.734  20.697  0.00  0.00    +0.000 HD
BRANCH   8  11
ATOM     11  C   UNL     1       1.480   8.906  19.342  0.00  0.00    +0.000 A 
ATOM     12  C   UNL     1       0.904   9.787  18.425  0.00  0.00    +0.000 A 
ATOM     13  C   UNL     1      -0.025  10.733  18.872  0.00  0.00    +0.000 A 
ATOM     14  C   UNL     1      -0.409  10.769  20.218  0.00  0.00    +0.000 A 
ATOM     15  C   UNL     1       0.153   9.882  21.143  0.00  0.00    +0.000 A 
ATOM     16  C   UNL     1       1.141   8.998  20.702  0.00  0.00    +0.000 A 
BRANCH  15  17
ATOM     17  C   UNL     1      -0.369   9.774  22.560  0.00  0.00    +0.000 C 
ATOM     18  C   UNL     1      -1.233  10.981  22.909  0.00  0.00    +0.000 C 
ATOM     19  F   UNL     1      -1.123   8.652  22.753  0.00  0.00    +0.000 F 
ATOM     20  F   UNL     1       0.635   9.700  23.481  0.00  0.00    +0.000 F 
ENDBRANCH  15  17
ENDBRANCH   8  11
ENDBRANCH   5   7
BRANCH   1  22
ATOM     21  C   UNL     1       7.586   5.797  19.054  0.00  0.00    +0.000 C 
ATOM     22  C   UNL     1       6.793   4.673  18.358  0.00  0.00    +0.000 C 
BRANCH  22  23
ATOM     23  C   UNL     1       6.842   4.881  16.857  0.00  0.00    +0.000 A 
ATOM     24  N   UNL     1       7.599   5.771  16.224  0.00  0.00    +0.000 NA
ATOM     25  N   UNL     1       7.416   5.627  14.870  0.00  0.00    +0.000 NA
ATOM     26  C   UNL     1       6.575   4.635  14.691  0.00  0.00    +0.000 A 
ATOM     27  N   UNL     1       6.198   4.134  15.900  0.00  0.00    +0.000 N 
ATOM     28  C   UNL     1       5.297   3.027  16.077  0.00  0.00    +0.000 C 
ENDBRANCH  22  23
ENDBRANCH   1  22
TORSDOF 5
ENDMDL
MODEL 5
REMARK VINA RESULT:      -8.0      6.023      7.888
REMARK  Name = 
REMARK  8 active torsions:
REMARK  status: ('A' for Active; 'I' for Inactive)
REMARK    1  A    between atoms: C_1  and  C_2
REMARK    2  A    between atoms: C_2  and  C_3
REMARK    3  A    between atoms: C_2  and  C_22
REMARK    4  A    between atoms: C_7  and  N_8
REMARK    5  A    between atoms: C_9  and  C_11
REMARK    6  A    between atoms: C_15  and  C_16
REMARK    7  A    between atoms: C_16  and  C_17
REMARK    8  A    between atoms: N_26  and  C_27
REMARK                            x       y       z     vdW  Elec       q    Type
REMARK                         _______ _______ _______ _____ _____    ______ ____
ROOT
ATOM      1  C   UNL     1       3.041   5.178  17.935  0.00  0.00    +0.000 A 
ATOM      2  C   UNL     1       4.382   5.340  17.541  0.00  0.00    +0.000 A 
ATOM      3  C   UNL     1       4.939   6.611  17.398  0.00  0.00    +0.000 A 
ATOM      4  C   UNL     1       4.152   7.744  17.573  0.00  0.00    +0.000 A 
ATOM      5  C   UNL     1       2.787   7.617  17.838  0.00  0.00    +0.000 A 
ATOM      6  C   UNL     1       2.249   6.342  18.062  0.00  0.00    +0.000 A 
ENDROOT
BRANCH   5   7
ATOM      7  N   UNL     1       1.914   8.735  17.874  0.00  0.00    +0.000 N 
ATOM      8  C   UNL     1       1.344   9.237  19.029  0.00  0.00    +0.000 C 
ATOM      9  O   UNL     1       1.515   8.784  20.168  0.00  0.00    +0.000 OA
ATOM     10  H   UNL     1       1.863   9.295  17.039  0.00  0.00    +0.000 HD
BRANCH   8  11
ATOM     11  C   UNL     1       0.473  10.431  18.915  0.00  0.00    +0.000 A 
ATOM     12  C   UNL     1       0.888  11.722  19.249  0.00  0.00    +0.000 A 
ATOM     13  C   UNL     1       0.073  12.812  18.923  0.00  0.00    +0.000 A 
ATOM     14  C   UNL     1      -1.126  12.617  18.228  0.00  0.00    +0.000 A 
ATOM     15  C   UNL     1      -1.545  11.330  17.875  0.00  0.00    +0.000 A 
ATOM     16  C   UNL     1      -0.766  10.242  18.280  0.00  0.00    +0.000 A 
BRANCH  15  17
ATOM     17  C   UNL     1      -2.737  11.099  16.971  0.00  0.00    +0.000 C 
ATOM     18  C   UNL     1      -3.295   9.693  17.163  0.00  0.00    +0.000 C 
ATOM     19  F   UNL     1      -3.749  11.985  17.208  0.00  0.00    +0.000 F 
ATOM     20  F   UNL     1      -2.425  11.248  15.651  0.00  0.00    +0.000 F 
ENDBRANCH  15  17
ENDBRANCH   8  11
ENDBRANCH   5   7
BRANCH   1  22
ATOM     21  C   UNL     1       1.129   3.575  17.442  0.00  0.00    +0.000 C 
ATOM     22  C   UNL     1       2.467   3.774  18.181  0.00  0.00    +0.000 C 
BRANCH  22  23
ATOM     23  C   UNL     1       2.287   3.425  19.645  0.00  0.00    +0.000 A 
ATOM     24  N   UNL     1       1.196   3.654  20.366  0.00  0.00    +0.000 NA
ATOM     25  N   UNL     1       1.385   3.152  21.631  0.00  0.00    +0.000 NA
ATOM     26  C   UNL     1       2.575   2.597  21.658  0.00  0.00    +0.000 A 
ATOM     27  N   UNL     1       3.169   2.735  20.441  0.00  0.00    +0.000 N 
ATOM     28  C   UNL     1       4.474   2.228  20.111  0.00  0.00    +0.000 C 
ENDBRANCH  22  23
ENDBRANCH   1  22
TORSDOF 5
ENDMDL
MODEL 6
REMARK VINA RESULT:      -8.0      6.119      7.825
REMARK  Name = 
REMARK  8 active torsions:
REMARK  status: ('A' for Active; 'I' for Inactive)
REMARK    1  A    between atoms: C_1  and  C_2
REMARK    2  A    between atoms: C_2  and  C_3
REMARK    3  A    between atoms: C_2  and  C_22
REMARK    4  A    between atoms: C_7  and  N_8
REMARK    5  A    between atoms: C_9  and  C_11
REMARK    6  A    between atoms: C_15  and  C_16
REMARK    7  A    between atoms: C_16  and  C_17
REMARK    8  A    between atoms: N_26  and  C_27
REMARK                            x       y       z     vdW  Elec       q    Type
REMARK                         _______ _______ _______ _____ _____    ______ ____
ROOT
ATOM      1  C   UNL     1       3.937   4.438  18.314  0.00  0.00    +0.000 A 
ATOM      2  C   UNL     1       4.807   4.813  17.274  0.00  0.00    +0.000 A 
ATOM      3  C   UNL     1       4.894   6.142  16.858  0.00  0.00    +0.000 A 
ATOM      4  C   UNL     1       4.066   7.108  17.418  0.00  0.00    +0.000 A 
ATOM      5  C   UNL     1       3.102   6.745  18.361  0.00  0.00    +0.000 A 
ATOM      6  C   UNL     1       3.073   5.427  18.837  0.00  0.00    +0.000 A 
ENDROOT
BRANCH   5   7
ATOM      7  N   UNL     1       2.134   7.661  18.849  0.00  0.00    +0.000 N 
ATOM      8  C   UNL     1       1.801   8.845  18.218  0.00  0.00    +0.000 C 
ATOM      9  O   UNL     1       2.294   9.258  17.162  0.00  0.00    +0.000 OA
ATOM     10  H   UNL     1       1.536   7.334  19.591  0.00  0.00    +0.000 HD
BRANCH   8  11
ATOM     11  C   UNL     1       0.747   9.689  18.832  0.00  0.00    +0.000 A 
ATOM     12  C   UNL     1       0.982  10.553  19.905  0.00  0.00    +0.000 A 
ATOM     13  C   UNL     1      -0.016  11.456  20.289  0.00  0.00    +0.000 A 
ATOM     14  C   UNL     1      -1.220  11.527  19.579  0.00  0.00    +0.000 A 
ATOM     15  C   UNL     1      -1.460  10.676  18.495  0.00  0.00    +0.000 A 
ATOM     16  C   UNL     1      -0.492   9.720  18.172  0.00  0.00    +0.000 A 
BRANCH  15  17
ATOM     17  C   UNL     1      -2.668  10.848  17.598  0.00  0.00    +0.000 C 
ATOM     18  C   UNL     1      -3.754  11.650  18.308  0.00  0.00    +0.000 C 
ATOM     19  F   UNL     1      -2.365  11.495  16.435  0.00  0.00    +0.000 F 
ATOM     20  F   UNL     1      -3.210   9.654  17.221  0.00  0.00    +0.000 F 
ENDBRANCH  15  17
ENDBRANCH   8  11
ENDBRANCH   5   7
BRANCH   1  22
ATOM     21  C   UNL     1       3.489   2.006  17.721  0.00  0.00    +0.000 C 
ATOM     22  C   UNL     1       3.919   2.990  18.827  0.00  0.00    +0.000 C 
BRANCH  22  23
ATOM     23  C   UNL     1       3.053   2.775  20.053  0.00  0.00    +0.000 A 
ATOM     24  N   UNL     1       3.485   2.736  21.308  0.00  0.00    +0.000 NA
ATOM     25  N   UNL     1       2.406   2.580  22.145  0.00  0.00    +0.000 NA
ATOM     26  C   UNL     1       1.328   2.556  21.395  0.00  0.00    +0.000 A 
ATOM     27  N   UNL     1       1.682   2.683  20.086  0.00  0.00    +0.000 N 
ATOM     28  C   UNL     1       0.750   2.715  18.991  0.00  0.00    +0.000 C 
ENDBRANCH  22  23
ENDBRANCH   1  22
TORSDOF 5
ENDMDL
MODEL 7
REMARK VINA RESULT:      -7.9      6.190      9.396
REMARK  Name = 
REMARK  8 active torsions:
REMARK  status: ('A' for Active; 'I' for Inactive)
REMARK    1  A    between atoms: C_1  and  C_2
REMARK    2  A    between atoms: C_2  and  C_3
REMARK    3  A    between atoms: C_2  and  C_22
REMARK    4  A    between atoms: C_7  and  N_8
REMARK    5  A    between atoms: C_9  and  C_11
REMARK    6  A    between atoms: C_15  and  C_16
REMARK    7  A    between atoms: C_16  and  C_17
REMARK    8  A    between atoms: N_26  and  C_27
REMARK                            x       y       z     vdW  Elec       q    Type
REMARK                         _______ _______ _______ _____ _____    ______ ____
ROOT
ATOM      1  C   UNL     1       0.063  10.727  20.314  0.00  0.00    +0.000 A 
ATOM      2  C   UNL     1      -0.168  10.653  21.700  0.00  0.00    +0.000 A 
ATOM      3  C   UNL     1       0.402   9.639  22.469  0.00  0.00    +0.000 A 
ATOM      4  C   UNL     1       1.153   8.638  21.863  0.00  0.00    +0.000 A 
ATOM      5  C   UNL     1       1.295   8.611  20.474  0.00  0.00    +0.000 A 
ATOM      6  C   UNL     1       0.791   9.674  19.713  0.00  0.00    +0.000 A 
ENDROOT
BRANCH   5   7
ATOM      7  N   UNL     1       1.920   7.531  19.796  0.00  0.00    +0.000 N 
ATOM      8  C   UNL     1       2.471   7.625  18.532  0.00  0.00    +0.000 C 
ATOM      9  O   UNL     1       2.492   8.645  17.833  0.00  0.00    +0.000 OA
ATOM     10  H   UNL     1       2.132   6.715  20.347  0.00  0.00    +0.000 HD
BRANCH   8  11
ATOM     11  C   UNL     1       3.118   6.418  17.963  0.00  0.00    +0.000 A 
ATOM     12  C   UNL     1       4.354   6.441  17.314  0.00  0.00    +0.000 A 
ATOM     13  C   UNL     1       4.980   5.233  16.987  0.00  0.00    +0.000 A 
ATOM     14  C   UNL     1       4.397   4.012  17.345  0.00  0.00    +0.000 A 
ATOM     15  C   UNL     1       3.165   3.977  18.008  0.00  0.00    +0.000 A 
ATOM     16  C   UNL     1       2.508   5.186  18.255  0.00  0.00    +0.000 A 
BRANCH  15  17
ATOM     17  C   UNL     1       2.597   2.690  18.567  0.00  0.00    +0.000 C 
ATOM     18  C   UNL     1       1.072   2.734  18.576  0.00  0.00    +0.000 C 
ATOM     19  F   UNL     1       2.978   1.596  17.846  0.00  0.00    +0.000 F 
ATOM     20  F   UNL     1       3.014   2.449  19.843  0.00  0.00    +0.000 F 
ENDBRANCH  15  17
ENDBRANCH   8  11
ENDBRANCH   5   7
BRANCH   1  22
ATOM     21  C   UNL     1      -0.171  13.254  20.161  0.00  0.00    +0.000 C 
ATOM     22  C   UNL     1      -0.492  11.902  19.495  0.00  0.00    +0.000 C 
BRANCH  22  23
ATOM     23  C   UNL     1      -1.982  11.820  19.223  0.00  0.00    +0.000 A 
ATOM     24  N   UNL     1      -2.924  12.498  19.868  0.00  0.00    +0.000 NA
ATOM     25  N   UNL     1      -4.144  12.206  19.308  0.00  0.00    +0.000 NA
ATOM     26  C   UNL     1      -3.930  11.377  18.312  0.00  0.00    +0.000 A 
ATOM     27  N   UNL     1      -2.597  11.116  18.216  0.00  0.00    +0.000 N 
ATOM     28  C   UNL     1      -2.006  10.260  17.222  0.00  0.00    +0.000 C 
ENDBRANCH  22  23
ENDBRANCH   1  22
TORSDOF 5
ENDMDL
MODEL 8
REMARK VINA RESULT:      -7.8      6.018      8.865
REMARK  Name = 
REMARK  8 active torsions:
REMARK  status: ('A' for Active; 'I' for Inactive)
REMARK    1  A    between atoms: C_1  and  C_2
REMARK    2  A    between atoms: C_2  and  C_3
REMARK    3  A    between atoms: C_2  and  C_22
REMARK    4  A    between atoms: C_7  and  N_8
REMARK    5  A    between atoms: C_9  and  C_11
REMARK    6  A    between atoms: C_15  and  C_16
REMARK    7  A    between atoms: C_16  and  C_17
REMARK    8  A    between atoms: N_26  and  C_27
REMARK                            x       y       z     vdW  Elec       q    Type
REMARK                         _______ _______ _______ _____ _____    ______ ____
ROOT
ATOM      1  C   UNL     1      -0.063  11.157  19.107  0.00  0.00    +0.000 A 
ATOM      2  C   UNL     1       0.802  12.261  18.990  0.00  0.00    +0.000 A 
ATOM      3  C   UNL     1       2.043  12.136  18.366  0.00  0.00    +0.000 A 
ATOM      4  C   UNL     1       2.478  10.896  17.913  0.00  0.00    +0.000 A 
ATOM      5  C   UNL     1       1.699   9.757  18.128  0.00  0.00    +0.000 A 
ATOM      6  C   UNL     1       0.418   9.898  18.680  0.00  0.00    +0.000 A 
ENDROOT
BRANCH   5   7
ATOM      7  N   UNL     1       2.163   8.451  17.822  0.00  0.00    +0.000 N 
ATOM      8  C   UNL     1       2.380   7.465  18.766  0.00  0.00    +0.000 C 
ATOM      9  O   UNL     1       2.204   7.587  19.984  0.00  0.00    +0.000 OA
ATOM     10  H   UNL     1       2.152   8.184  16.851  0.00  0.00    +0.000 HD
BRANCH   8  11
ATOM     11  C   UNL     1       2.840   6.136  18.293  0.00  0.00    +0.000 A 
ATOM     12  C   UNL     1       2.087   4.968  18.429  0.00  0.00    +0.000 A 
ATOM     13  C   UNL     1       2.505   3.802  17.780  0.00  0.00    +0.000 A 
ATOM     14  C   UNL     1       3.643   3.814  16.964  0.00  0.00    +0.000 A 
ATOM     15  C   UNL     1       4.397   4.982  16.809  0.00  0.00    +0.000 A 
ATOM     16  C   UNL     1       4.018   6.119  17.529  0.00  0.00    +0.000 A 
BRANCH  15  17
ATOM     17  C   UNL     1       5.520   5.077  15.798  0.00  0.00    +0.000 C 
ATOM     18  C   UNL     1       6.866   5.223  16.502  0.00  0.00    +0.000 C 
ATOM     19  F   UNL     1       5.589   3.979  14.991  0.00  0.00    +0.000 F 
ATOM     20  F   UNL     1       5.373   6.140  14.955  0.00  0.00    +0.000 F 
ENDBRANCH  15  17
ENDBRANCH   8  11
ENDBRANCH   5   7
BRANCH   1  22
ATOM     21  C   UNL     1      -2.462  11.881  18.671  0.00  0.00    +0.000 C 
ATOM     22  C   UNL     1      -1.465  11.329  19.710  0.00  0.00    +0.000 C 
BRANCH  22  23
ATOM     23  C   UNL     1      -1.505  12.197  20.952  0.00  0.00    +0.000 A 
ATOM     24  N   UNL     1      -1.964  13.442  21.011  0.00  0.00    +0.000 NA
ATOM     25  N   UNL     1      -1.889  13.883  22.309  0.00  0.00    +0.000 NA
ATOM     26  C   UNL     1      -1.414  12.895  23.032  0.00  0.00    +0.000 A 
ATOM     27  N   UNL     1      -1.169  11.822  22.230  0.00  0.00    +0.000 N 
ATOM     28  C   UNL     1      -0.660  10.559  22.694  0.00  0.00    +0.000 C 
ENDBRANCH  22  23
ENDBRANCH   1  22
TORSDOF 5
ENDMDL
MODEL 9
REMARK VINA RESULT:      -7.8      5.686      8.756
REMARK  Name = 
REMARK  8 active torsions:
REMARK  status: ('A' for Active; 'I' for Inactive)
REMARK    1  A    between atoms: C_1  and  C_2
REMARK    2  A    between atoms: C_2  and  C_3
REMARK    3  A    between atoms: C_2  and  C_22
REMARK    4  A    between atoms: C_7  and  N_8
REMARK    5  A    between atoms: C_9  and  C_11
REMARK    6  A    between atoms: C_15  and  C_16
REMARK    7  A    between atoms: C_16  and  C_17
REMARK    8  A    between atoms: N_26  and  C_27
REMARK                            x       y       z     vdW  Elec       q    Type
REMARK                         _______ _______ _______ _____ _____    ______ ____
ROOT
ATOM      1  C   UNL     1      -0.012  10.716  20.242  0.00  0.00    +0.000 A 
ATOM      2  C   UNL     1      -0.298  10.802  21.617  0.00  0.00    +0.000 A 
ATOM      3  C   UNL     1       0.263   9.902  22.522  0.00  0.00    +0.000 A 
ATOM      4  C   UNL     1       1.059   8.856  22.069  0.00  0.00    +0.000 A 
ATOM      5  C   UNL     1       1.257   8.667  20.699  0.00  0.00    +0.000 A 
ATOM      6  C   UNL     1       0.762   9.620  19.799  0.00  0.00    +0.000 A 
ENDROOT
BRANCH   5   7
ATOM      7  N   UNL     1       1.932   7.532  20.180  0.00  0.00    +0.000 N 
ATOM      8  C   UNL     1       2.327   7.401  18.862  0.00  0.00    +0.000 C 
ATOM      9  O   UNL     1       2.147   8.242  17.972  0.00  0.00    +0.000 OA
ATOM     10  H   UNL     1       2.300   6.878  20.852  0.00  0.00    +0.000 HD
BRANCH   8  11
ATOM     11  C   UNL     1       3.050   6.167  18.470  0.00  0.00    +0.000 A 
ATOM     12  C   UNL     1       2.612   4.881  18.795  0.00  0.00    +0.000 A 
ATOM     13  C   UNL     1       3.243   3.774  18.217  0.00  0.00    +0.000 A 
ATOM     14  C   UNL     1       4.274   3.951  17.286  0.00  0.00    +0.000 A 
ATOM     15  C   UNL     1       4.712   5.235  16.943  0.00  0.00    +0.000 A 
ATOM     16  C   UNL     1       4.133   6.331  17.589  0.00  0.00    +0.000 A 
BRANCH  15  17
ATOM     17  C   UNL     1       5.693   5.466  15.814  0.00  0.00    +0.000 C 
ATOM     18  C   UNL     1       5.940   4.174  15.042  0.00  0.00    +0.000 C 
ATOM     19  F   UNL     1       5.253   6.404  14.925  0.00  0.00    +0.000 F 
ATOM     20  F   UNL     1       6.900   5.924  16.258  0.00  0.00    +0.000 F 
ENDBRANCH  15  17
ENDBRANCH   8  11
ENDBRANCH   5   7
BRANCH   1  22
ATOM     21  C   UNL     1      -0.292  13.201  19.777  0.00  0.00    +0.000 C 
ATOM     22  C   UNL     1      -0.559  11.771  19.268  0.00  0.00    +0.000 C 
BRANCH  22  23
ATOM     23  C   UNL     1      -2.035  11.619  18.954  0.00  0.00    +0.000 A 
ATOM     24  N   UNL     1      -3.021  12.299  19.527  0.00  0.00    +0.000 NA
ATOM     25  N   UNL     1      -4.211  11.931  18.947  0.00  0.00    +0.000 NA
ATOM     26  C   UNL     1      -3.935  11.055  18.008  0.00  0.00    +0.000 A 
ATOM     27  N   UNL     1      -2.591  10.837  17.971  0.00  0.00    +0.000 N 
ATOM     28  C   UNL     1      -1.938   9.947  17.049  0.00  0.00    +0.000 C 
ENDBRANCH  22  23
ENDBRANCH   1  22
TORSDOF 5
ENDMDL
