MODEL 1
REMARK VINA RESULT:      -9.0      0.000      0.000
REMARK  Name = 
REMARK  3 active torsions:
REMARK  status: ('A' for Active; 'I' for Inactive)
REMARK    1  A    between atoms: C_2  and  C_3
REMARK    2  A    between atoms: C_3  and  N_4
REMARK    3  A    between atoms: C_20  and  C_21
REMARK                            x       y       z     vdW  Elec       q    Type
REMARK                         _______ _______ _______ _____ _____    ______ ____
ROOT
ATOM      1  O   UNL     1       4.968   6.941  17.494  0.00  0.00    +0.000 OA
ATOM      2  C   UNL     1       5.223   5.818  17.938  0.00  0.00    +0.000 C 
ATOM      3  N   UNL     1       4.315   5.129  18.726  0.00  0.00    +0.000 N 
ATOM      4  C   UNL     1       4.465   3.773  19.242  0.00  0.00    +0.000 C 
ATOM      5  C   UNL     1       3.141   3.104  18.907  0.00  0.00    +0.000 C 
ATOM      6  C   UNL     1       2.144   4.239  19.094  0.00  0.00    +0.000 C 
ATOM      7  C   UNL     1       2.908   5.457  18.555  0.00  0.00    +0.000 C 
ENDROOT
BRANCH   7   8
ATOM      8  C   UNL     1       2.426   6.750  19.156  0.00  0.00    +0.000 A 
ATOM      9  C   UNL     1       2.167   6.936  20.526  0.00  0.00    +0.000 A 
ATOM     10  C   UNL     1       1.514   8.095  20.969  0.00  0.00    +0.000 A 
ATOM     11  C   UNL     1       1.100   9.056  20.045  0.00  0.00    +0.000 A 
ATOM     12  C   UNL     1       1.470   8.924  18.712  0.00  0.00    +0.000 A 
ATOM     13  C   UNL     1       2.123   7.790  18.267  0.00  0.00    +0.000 A 
ATOM     14  O   UNL     1       1.147   9.863  17.770  0.00  0.00    +0.000 OA
ATOM     15  C   UNL     1      -0.188  10.273  18.033  0.00  0.00    +0.000 C 
ATOM     16  C   UNL     1      -0.339  10.822  19.450  0.00  0.00    +0.000 C 
ATOM     17  O   UNL     1       0.296  10.064  20.493  0.00  0.00    +0.000 OA
ENDBRANCH   7   8
BRANCH   2  18
ATOM     18  C   UNL     1       6.491   5.067  17.525  0.00  0.00    +0.000 C 
BRANCH  18  19
ATOM     19  N   UNL     1       6.682   4.792  16.103  0.00  0.00    +0.000 N 
ATOM     20  N   UNL     1       7.585   5.635  15.429  0.00  0.00    +0.000 N 
ATOM     21  C   UNL     1       7.884   5.468  14.102  0.00  0.00    +0.000 A 
ATOM     22  O   UNL     1       8.841   6.015  13.572  0.00  0.00    +0.000 OA
ATOM     23  C   UNL     1       6.974   4.603  13.330  0.00  0.00    +0.000 A 
ATOM     24  C   UNL     1       7.215   4.388  11.967  0.00  0.00    +0.000 A 
ATOM     25  C   UNL     1       6.354   3.575  11.231  0.00  0.00    +0.000 A 
ATOM     26  C   UNL     1       5.239   3.002  11.844  0.00  0.00    +0.000 A 
ATOM     27  C   UNL     1       4.995   3.220  13.199  0.00  0.00    +0.000 A 
ATOM     28  C   UNL     1       5.881   4.008  13.950  0.00  0.00    +0.000 A 
ATOM     29  C   UNL     1       5.675   4.151  15.403  0.00  0.00    +0.000 A 
ATOM     30  O   UNL     1       4.670   3.683  15.941  0.00  0.00    +0.000 OA
ATOM     31  H   UNL     1       8.337   6.052  15.990  0.00  0.00    +0.000 HD
ENDBRANCH  18  19
ENDBRANCH   2  18
TORSDOF 3
ENDMDL
MODEL 2
REMARK VINA RESULT:      -8.7      3.702      7.028
REMARK  Name = 
REMARK  3 active torsions:
REMARK  status: ('A' for Active; 'I' for Inactive)
REMARK    1  A    between atoms: C_2  and  C_3
REMARK    2  A    between atoms: C_3  and  N_4
REMARK    3  A    between atoms: C_20  and  C_21
REMARK                            x       y       z     vdW  Elec       q    Type
REMARK                         _______ _______ _______ _____ _____    ______ ____
ROOT
ATOM      1  O   UNL     1      -0.541   9.128  20.406  0.00  0.00    +0.000 OA
ATOM      2  C   UNL     1       0.530   9.434  19.875  0.00  0.00    +0.000 C 
ATOM      3  N   UNL     1       0.625  10.510  19.007  0.00  0.00    +0.000 N 
ATOM      4  C   UNL     1       1.840  11.018  18.381  0.00  0.00    +0.000 C 
ATOM      5  C   UNL     1       1.780  12.518  18.622  0.00  0.00    +0.000 C 
ATOM      6  C   UNL     1       0.289  12.807  18.506  0.00  0.00    +0.000 C 
ATOM      7  C   UNL     1      -0.350  11.578  19.168  0.00  0.00    +0.000 C 
ENDROOT
BRANCH   7   8
ATOM      8  C   UNL     1      -1.745  11.316  18.668  0.00  0.00    +0.000 A 
ATOM      9  C   UNL     1      -2.040  10.653  17.462  0.00  0.00    +0.000 A 
ATOM     10  C   UNL     1      -3.351  10.647  16.964  0.00  0.00    +0.000 A 
ATOM     11  C   UNL     1      -4.361  11.316  17.656  0.00  0.00    +0.000 A 
ATOM     12  C   UNL     1      -4.087  11.859  18.906  0.00  0.00    +0.000 A 
ATOM     13  C   UNL     1      -2.800  11.862  19.410  0.00  0.00    +0.000 A 
ATOM     14  O   UNL     1      -5.049  12.474  19.660  0.00  0.00    +0.000 OA
ATOM     15  C   UNL     1      -5.833  13.260  18.772  0.00  0.00    +0.000 C 
ATOM     16  C   UNL     1      -6.446  12.410  17.661  0.00  0.00    +0.000 C 
ATOM     17  O   UNL     1      -5.571  11.455  17.040  0.00  0.00    +0.000 OA
ENDBRANCH   7   8
BRANCH   2  18
ATOM     18  C   UNL     1       1.837   8.735  20.255  0.00  0.00    +0.000 C 
BRANCH  18  19
ATOM     19  N   UNL     1       2.017   7.352  19.820  0.00  0.00    +0.000 N 
ATOM     20  N   UNL     1       1.797   6.364  20.798  0.00  0.00    +0.000 N 
ATOM     21  C   UNL     1       1.898   5.026  20.517  0.00  0.00    +0.000 A 
ATOM     22  O   UNL     1       1.467   4.165  21.271  0.00  0.00    +0.000 OA
ATOM     23  C   UNL     1       2.577   4.671  19.258  0.00  0.00    +0.000 A 
ATOM     24  C   UNL     1       2.718   3.323  18.906  0.00  0.00    +0.000 A 
ATOM     25  C   UNL     1       3.365   2.982  17.718  0.00  0.00    +0.000 A 
ATOM     26  C   UNL     1       3.894   3.980  16.899  0.00  0.00    +0.000 A 
ATOM     27  C   UNL     1       3.758   5.321  17.251  0.00  0.00    +0.000 A 
ATOM     28  C   UNL     1       3.076   5.669  18.428  0.00  0.00    +0.000 A 
ATOM     29  C   UNL     1       2.846   7.091  18.743  0.00  0.00    +0.000 A 
ATOM     30  O   UNL     1       3.347   7.974  18.045  0.00  0.00    +0.000 OA
ATOM     31  H   UNL     1       1.142   6.597  21.553  0.00  0.00    +0.000 HD
ENDBRANCH  18  19
ENDBRANCH   2  18
TORSDOF 3
ENDMDL
MODEL 3
REMARK VINA RESULT:      -8.6      1.957      8.111
REMARK  Name = 
REMARK  3 active torsions:
REMARK  status: ('A' for Active; 'I' for Inactive)
REMARK    1  A    between atoms: C_2  and  C_3
REMARK    2  A    between atoms: C_3  and  N_4
REMARK    3  A    between atoms: C_20  and  C_21
REMARK                            x       y       z     vdW  Elec       q    Type
REMARK                         _______ _______ _______ _____ _____    ______ ____
ROOT
ATOM      1  O   UNL     1       4.369   5.904  19.715  0.00  0.00    +0.000 OA
ATOM      2  C   UNL     1       3.202   5.578  19.482  0.00  0.00    +0.000 C 
ATOM      3  N   UNL     1       2.900   4.541  18.613  0.00  0.00    +0.000 N 
ATOM      4  C   UNL     1       1.574   4.012  18.319  0.00  0.00    +0.000 C 
ATOM      5  C   UNL     1       1.741   2.506  18.448  0.00  0.00    +0.000 C 
ATOM      6  C   UNL     1       3.149   2.286  17.909  0.00  0.00    +0.000 C 
ATOM      7  C   UNL     1       3.911   3.510  18.439  0.00  0.00    +0.000 C 
ENDROOT
BRANCH   7   8
ATOM      8  C   UNL     1       5.105   3.854  17.590  0.00  0.00    +0.000 A 
ATOM      9  C   UNL     1       6.143   4.712  17.997  0.00  0.00    +0.000 A 
ATOM     10  C   UNL     1       7.099   5.153  17.070  0.00  0.00    +0.000 A 
ATOM     11  C   UNL     1       7.007   4.756  15.736  0.00  0.00    +0.000 A 
ATOM     12  C   UNL     1       6.056   3.811  15.369  0.00  0.00    +0.000 A 
ATOM     13  C   UNL     1       5.116   3.363  16.278  0.00  0.00    +0.000 A 
ATOM     14  O   UNL     1       5.956   3.336  14.089  0.00  0.00    +0.000 OA
ATOM     15  C   UNL     1       6.133   4.446  13.220  0.00  0.00    +0.000 C 
ATOM     16  C   UNL     1       7.471   5.141  13.460  0.00  0.00    +0.000 C 
ATOM     17  O   UNL     1       7.831   5.363  14.833  0.00  0.00    +0.000 OA
ENDBRANCH   7   8
BRANCH   2  18
ATOM     18  C   UNL     1       2.032   6.202  20.247  0.00  0.00    +0.000 C 
BRANCH  18  19
ATOM     19  N   UNL     1       1.624   7.555  19.875  0.00  0.00    +0.000 N 
ATOM     20  N   UNL     1       2.248   8.095  18.735  0.00  0.00    +0.000 N 
ATOM     21  C   UNL     1       1.935   9.340  18.255  0.00  0.00    +0.000 A 
ATOM     22  O   UNL     1       2.270   9.715  17.140  0.00  0.00    +0.000 OA
ATOM     23  C   UNL     1       1.183  10.222  19.166  0.00  0.00    +0.000 A 
ATOM     24  C   UNL     1       0.829  11.510  18.744  0.00  0.00    +0.000 A 
ATOM     25  C   UNL     1       0.123  12.350  19.605  0.00  0.00    +0.000 A 
ATOM     26  C   UNL     1      -0.204  11.919  20.890  0.00  0.00    +0.000 A 
ATOM     27  C   UNL     1       0.152  10.640  21.313  0.00  0.00    +0.000 A 
ATOM     28  C   UNL     1       0.831   9.779  20.436  0.00  0.00    +0.000 A 
ATOM     29  C   UNL     1       1.114   8.393  20.852  0.00  0.00    +0.000 A 
ATOM     30  O   UNL     1       0.865   8.021  21.999  0.00  0.00    +0.000 OA
ATOM     31  H   UNL     1       2.572   7.428  18.024  0.00  0.00    +0.000 HD
ENDBRANCH  18  19
ENDBRANCH   2  18
TORSDOF 3
ENDMDL
MODEL 4
REMARK VINA RESULT:      -8.6      3.422      9.454
REMARK  Name = 
REMARK  3 active torsions:
REMARK  status: ('A' for Active; 'I' for Inactive)
REMARK    1  A    between atoms: C_2  and  C_3
REMARK    2  A    between atoms: C_3  and  N_4
REMARK    3  A    between atoms: C_20  and  C_21
REMARK                            x       y       z     vdW  Elec       q    Type
REMARK                         _______ _______ _______ _____ _____    ______ ____
ROOT
ATOM      1  O   UNL     1       2.100   9.726  17.516  0.00  0.00    +0.000 OA
ATOM      2  C   UNL     1       1.244   9.860  18.394  0.00  0.00    +0.000 C 
ATOM      3  N   UNL     1       1.061   8.899  19.376  0.00  0.00    +0.000 N 
ATOM      4  C   UNL     1       0.144   8.978  20.508  0.00  0.00    +0.000 C 
ATOM      5  C   UNL     1       0.997   8.578  21.701  0.00  0.00    +0.000 C 
ATOM      6  C   UNL     1       1.911   7.514  21.108  0.00  0.00    +0.000 C 
ATOM      7  C   UNL     1       2.203   8.061  19.703  0.00  0.00    +0.000 C 
ENDROOT
BRANCH   7   8
ATOM      8  C   UNL     1       2.558   6.972  18.726  0.00  0.00    +0.000 A 
ATOM      9  C   UNL     1       1.889   5.737  18.642  0.00  0.00    +0.000 A 
ATOM     10  C   UNL     1       2.420   4.699  17.862  0.00  0.00    +0.000 A 
ATOM     11  C   UNL     1       3.625   4.886  17.184  0.00  0.00    +0.000 A 
ATOM     12  C   UNL     1       4.212   6.146  17.171  0.00  0.00    +0.000 A 
ATOM     13  C   UNL     1       3.692   7.177  17.929  0.00  0.00    +0.000 A 
ATOM     14  O   UNL     1       5.361   6.407  16.475  0.00  0.00    +0.000 OA
ATOM     15  C   UNL     1       6.224   5.294  16.664  0.00  0.00    +0.000 C 
ATOM     16  C   UNL     1       5.571   3.991  16.206  0.00  0.00    +0.000 C 
ATOM     17  O   UNL     1       4.205   3.795  16.605  0.00  0.00    +0.000 OA
ENDBRANCH   7   8
BRANCH   2  18
ATOM     18  C   UNL     1       0.441  11.154  18.534  0.00  0.00    +0.000 C 
BRANCH  18  19
ATOM     19  N   UNL     1      -0.998  11.088  18.290  0.00  0.00    +0.000 N 
ATOM     20  N   UNL     1      -1.386  10.753  16.979  0.00  0.00    +0.000 N 
ATOM     21  C   UNL     1      -2.703  10.622  16.621  0.00  0.00    +0.000 A 
ATOM     22  O   UNL     1      -3.047  10.090  15.575  0.00  0.00    +0.000 OA
ATOM     23  C   UNL     1      -3.695  11.179  17.559  0.00  0.00    +0.000 A 
ATOM     24  C   UNL     1      -5.059  11.084  17.258  0.00  0.00    +0.000 A 
ATOM     25  C   UNL     1      -6.001  11.615  18.139  0.00  0.00    +0.000 A 
ATOM     26  C   UNL     1      -5.583  12.263  19.302  0.00  0.00    +0.000 A 
ATOM     27  C   UNL     1      -4.225  12.363  19.599  0.00  0.00    +0.000 A 
ATOM     28  C   UNL     1      -3.277  11.797  18.732  0.00  0.00    +0.000 A 
ATOM     29  C   UNL     1      -1.850  11.816  19.103  0.00  0.00    +0.000 A 
ATOM     30  O   UNL     1      -1.473  12.423  20.106  0.00  0.00    +0.000 OA
ATOM     31  H   UNL     1      -0.733  10.177  16.435  0.00  0.00    +0.000 HD
ENDBRANCH  18  19
ENDBRANCH   2  18
TORSDOF 3
ENDMDL
MODEL 5
REMARK VINA RESULT:      -8.5      3.386      6.264
REMARK  Name = 
REMARK  3 active torsions:
REMARK  status: ('A' for Active; 'I' for Inactive)
REMARK    1  A    between atoms: C_2  and  C_3
REMARK    2  A    between atoms: C_3  and  N_4
REMARK    3  A    between atoms: C_20  and  C_21
REMARK                            x       y       z     vdW  Elec       q    Type
REMARK                         _______ _______ _______ _____ _____    ______ ____
ROOT
ATOM      1  O   UNL     1       1.298   9.228  19.264  0.00  0.00    +0.000 OA
ATOM      2  C   UNL     1       1.218   8.885  20.447  0.00  0.00    +0.000 C 
ATOM      3  N   UNL     1       0.798   9.770  21.428  0.00  0.00    +0.000 N 
ATOM      4  C   UNL     1       0.587   9.466  22.839  0.00  0.00    +0.000 C 
ATOM      5  C   UNL     1      -0.778  10.063  23.143  0.00  0.00    +0.000 C 
ATOM      6  C   UNL     1      -0.784  11.321  22.284  0.00  0.00    +0.000 C 
ATOM      7  C   UNL     1      -0.062  10.865  21.008  0.00  0.00    +0.000 C 
ENDROOT
BRANCH   7   8
ATOM      8  C   UNL     1       0.589  12.008  20.277  0.00  0.00    +0.000 A 
ATOM      9  C   UNL     1       0.517  12.199  18.884  0.00  0.00    +0.000 A 
ATOM     10  C   UNL     1       1.330  13.157  18.261  0.00  0.00    +0.000 A 
ATOM     11  C   UNL     1       2.227  13.908  19.022  0.00  0.00    +0.000 A 
ATOM     12  C   UNL     1       2.202  13.802  20.407  0.00  0.00    +0.000 A 
ATOM     13  C   UNL     1       1.398  12.868  21.032  0.00  0.00    +0.000 A 
ATOM     14  O   UNL     1       3.014  14.556  21.210  0.00  0.00    +0.000 OA
ATOM     15  C   UNL     1       4.292  14.597  20.588  0.00  0.00    +0.000 C 
ATOM     16  C   UNL     1       4.211  15.167  19.174  0.00  0.00    +0.000 C 
ATOM     17  O   UNL     1       3.135  14.679  18.356  0.00  0.00    +0.000 OA
ENDBRANCH   7   8
BRANCH   2  18
ATOM     18  C   UNL     1       1.436   7.432  20.873  0.00  0.00    +0.000 C 
BRANCH  18  19
ATOM     19  N   UNL     1       2.181   6.564  19.963  0.00  0.00    +0.000 N 
ATOM     20  N   UNL     1       2.794   7.201  18.869  0.00  0.00    +0.000 N 
ATOM     21  C   UNL     1       3.551   6.512  17.957  0.00  0.00    +0.000 A 
ATOM     22  O   UNL     1       4.291   7.075  17.162  0.00  0.00    +0.000 OA
ATOM     23  C   UNL     1       3.414   5.044  17.967  0.00  0.00    +0.000 A 
ATOM     24  C   UNL     1       4.155   4.275  17.062  0.00  0.00    +0.000 A 
ATOM     25  C   UNL     1       4.024   2.886  17.065  0.00  0.00    +0.000 A 
ATOM     26  C   UNL     1       3.136   2.269  17.946  0.00  0.00    +0.000 A 
ATOM     27  C   UNL     1       2.393   3.035  18.843  0.00  0.00    +0.000 A 
ATOM     28  C   UNL     1       2.551   4.430  18.868  0.00  0.00    +0.000 A 
ATOM     29  C   UNL     1       1.841   5.224  19.888  0.00  0.00    +0.000 A 
ATOM     30  O   UNL     1       1.025   4.690  20.639  0.00  0.00    +0.000 OA
ATOM     31  H   UNL     1       3.061   8.184  18.994  0.00  0.00    +0.000 HD
ENDBRANCH  18  19
ENDBRANCH   2  18
TORSDOF 3
ENDMDL
MODEL 6
REMARK VINA RESULT:      -8.4      4.750      9.662
REMARK  Name = 
REMARK  3 active torsions:
REMARK  status: ('A' for Active; 'I' for Inactive)
REMARK    1  A    between atoms: C_2  and  C_3
REMARK    2  A    between atoms: C_3  and  N_4
REMARK    3  A    between atoms: C_20  and  C_21
REMARK                            x       y       z     vdW  Elec       q    Type
REMARK                         _______ _______ _______ _____ _____    ______ ____
ROOT
ATOM      1  O   UNL     1       1.720   9.654  17.987  0.00  0.00    +0.000 OA
ATOM      2  C   UNL     1       0.854  10.026  18.783  0.00  0.00    +0.000 C 
ATOM      3  N   UNL     1       0.629   9.352  19.973  0.00  0.00    +0.000 N 
ATOM      4  C   UNL     1      -0.303   9.735  21.027  0.00  0.00    +0.000 C 
ATOM      5  C   UNL     1       0.520   9.634  22.301  0.00  0.00    +0.000 C 
ATOM      6  C   UNL     1       1.415   8.434  22.018  0.00  0.00    +0.000 C 
ATOM      7  C   UNL     1       1.743   8.599  20.527  0.00  0.00    +0.000 C 
ENDROOT
BRANCH   7   8
ATOM      8  C   UNL     1       2.084   7.289  19.867  0.00  0.00    +0.000 A 
ATOM      9  C   UNL     1       2.613   7.174  18.568  0.00  0.00    +0.000 A 
ATOM     10  C   UNL     1       2.693   5.918  17.949  0.00  0.00    +0.000 A 
ATOM     11  C   UNL     1       2.230   4.784  18.616  0.00  0.00    +0.000 A 
ATOM     12  C   UNL     1       1.827   4.889  19.942  0.00  0.00    +0.000 A 
ATOM     13  C   UNL     1       1.753   6.120  20.564  0.00  0.00    +0.000 A 
ATOM     14  O   UNL     1       1.420   3.802  20.667  0.00  0.00    +0.000 OA
ATOM     15  C   UNL     1       0.614   3.007  19.808  0.00  0.00    +0.000 C 
ATOM     16  C   UNL     1       1.372   2.592  18.550  0.00  0.00    +0.000 C 
ATOM     17  O   UNL     1       2.141   3.621  17.906  0.00  0.00    +0.000 OA
ENDBRANCH   7   8
BRANCH   2  18
ATOM     18  C   UNL     1       0.084  11.331  18.571  0.00  0.00    +0.000 C 
BRANCH  18  19
ATOM     19  N   UNL     1      -1.349  11.235  18.299  0.00  0.00    +0.000 N 
ATOM     20  N   UNL     1      -1.703  10.903  16.978  0.00  0.00    +0.000 N 
ATOM     21  C   UNL     1      -3.010  10.747  16.593  0.00  0.00    +0.000 A 
ATOM     22  O   UNL     1      -3.321  10.216  15.536  0.00  0.00    +0.000 OA
ATOM     23  C   UNL     1      -4.032  11.273  17.516  0.00  0.00    +0.000 A 
ATOM     24  C   UNL     1      -5.387  11.151  17.187  0.00  0.00    +0.000 A 
ATOM     25  C   UNL     1      -6.358  11.653  18.054  0.00  0.00    +0.000 A 
ATOM     26  C   UNL     1      -5.977  12.301  19.230  0.00  0.00    +0.000 A 
ATOM     27  C   UNL     1      -4.628  12.428  19.555  0.00  0.00    +0.000 A 
ATOM     28  C   UNL     1      -3.651  11.890  18.702  0.00  0.00    +0.000 A 
ATOM     29  C   UNL     1      -2.232  11.937  19.101  0.00  0.00    +0.000 A 
ATOM     30  O   UNL     1      -1.888  12.544  20.116  0.00  0.00    +0.000 OA
ATOM     31  H   UNL     1      -1.027  10.347  16.442  0.00  0.00    +0.000 HD
ENDBRANCH  18  19
ENDBRANCH   2  18
TORSDOF 3
ENDMDL
MODEL 7
REMARK VINA RESULT:      -8.4      2.050      8.413
REMARK  Name = 
REMARK  3 active torsions:
REMARK  status: ('A' for Active; 'I' for Inactive)
REMARK    1  A    between atoms: C_2  and  C_3
REMARK    2  A    between atoms: C_3  and  N_4
REMARK    3  A    between atoms: C_20  and  C_21
REMARK                            x       y       z     vdW  Elec       q    Type
REMARK                         _______ _______ _______ _____ _____    ______ ____
ROOT
ATOM      1  O   UNL     1       3.846   6.925  19.149  0.00  0.00    +0.000 OA
ATOM      2  C   UNL     1       2.889   6.168  19.330  0.00  0.00    +0.000 C 
ATOM      3  N   UNL     1       3.037   4.791  19.278  0.00  0.00    +0.000 N 
ATOM      4  C   UNL     1       2.008   3.796  19.552  0.00  0.00    +0.000 C 
ATOM      5  C   UNL     1       2.684   2.817  20.499  0.00  0.00    +0.000 C 
ATOM      6  C   UNL     1       4.115   2.793  19.977  0.00  0.00    +0.000 C 
ATOM      7  C   UNL     1       4.356   4.256  19.578  0.00  0.00    +0.000 C 
ENDROOT
BRANCH   7   8
ATOM      8  C   UNL     1       5.412   4.395  18.514  0.00  0.00    +0.000 A 
ATOM      9  C   UNL     1       6.548   5.218  18.631  0.00  0.00    +0.000 A 
ATOM     10  C   UNL     1       7.361   5.459  17.514  0.00  0.00    +0.000 A 
ATOM     11  C   UNL     1       7.031   4.897  16.280  0.00  0.00    +0.000 A 
ATOM     12  C   UNL     1       5.983   3.988  16.203  0.00  0.00    +0.000 A 
ATOM     13  C   UNL     1       5.182   3.736  17.300  0.00  0.00    +0.000 A 
ATOM     14  O   UNL     1       5.650   3.358  15.034  0.00  0.00    +0.000 OA
ATOM     15  C   UNL     1       5.742   4.327  13.999  0.00  0.00    +0.000 C 
ATOM     16  C   UNL     1       7.137   4.944  13.928  0.00  0.00    +0.000 C 
ATOM     17  O   UNL     1       7.728   5.316  15.184  0.00  0.00    +0.000 OA
ENDBRANCH   7   8
BRANCH   2  18
ATOM     18  C   UNL     1       1.522   6.701  19.763  0.00  0.00    +0.000 C 
BRANCH  18  19
ATOM     19  N   UNL     1       1.427   8.116  20.115  0.00  0.00    +0.000 N 
ATOM     20  N   UNL     1       0.956   8.399  21.411  0.00  0.00    +0.000 N 
ATOM     21  C   UNL     1       0.850   9.681  21.883  0.00  0.00    +0.000 A 
ATOM     22  O   UNL     1       0.691   9.931  23.070  0.00  0.00    +0.000 OA
ATOM     23  C   UNL     1       0.917  10.757  20.877  0.00  0.00    +0.000 A 
ATOM     24  C   UNL     1       0.814  12.092  21.286  0.00  0.00    +0.000 A 
ATOM     25  C   UNL     1       0.871  13.113  20.337  0.00  0.00    +0.000 A 
ATOM     26  C   UNL     1       1.001  12.803  18.983  0.00  0.00    +0.000 A 
ATOM     27  C   UNL     1       1.098  11.474  18.575  0.00  0.00    +0.000 A 
ATOM     28  C   UNL     1       1.078  10.446  19.531  0.00  0.00    +0.000 A 
ATOM     29  C   UNL     1       1.284   9.050  19.103  0.00  0.00    +0.000 A 
ATOM     30  O   UNL     1       1.356   8.767  17.907  0.00  0.00    +0.000 OA
ATOM     31  H   UNL     1       1.125   7.688  22.131  0.00  0.00    +0.000 HD
ENDBRANCH  18  19
ENDBRANCH   2  18
TORSDOF 3
ENDMDL
MODEL 8
REMARK VINA RESULT:      -8.4      3.444      6.277
REMARK  Name = 
REMARK  3 active torsions:
REMARK  status: ('A' for Active; 'I' for Inactive)
REMARK    1  A    between atoms: C_2  and  C_3
REMARK    2  A    between atoms: C_3  and  N_4
REMARK    3  A    between atoms: C_20  and  C_21
REMARK                            x       y       z     vdW  Elec       q    Type
REMARK                         _______ _______ _______ _____ _____    ______ ____
ROOT
ATOM      1  O   UNL     1       1.276   9.338  19.334  0.00  0.00    +0.000 OA
ATOM      2  C   UNL     1       1.167   8.961  20.504  0.00  0.00    +0.000 C 
ATOM      3  N   UNL     1       0.760   9.826  21.507  0.00  0.00    +0.000 N 
ATOM      4  C   UNL     1       0.517   9.484  22.904  0.00  0.00    +0.000 C 
ATOM      5  C   UNL     1      -0.833  10.114  23.207  0.00  0.00    +0.000 C 
ATOM      6  C   UNL     1      -0.787  11.398  22.390  0.00  0.00    +0.000 C 
ATOM      7  C   UNL     1      -0.060  10.960  21.110  0.00  0.00    +0.000 C 
ENDROOT
BRANCH   7   8
ATOM      8  C   UNL     1       0.638  12.106  20.426  0.00  0.00    +0.000 A 
ATOM      9  C   UNL     1       1.982  12.456  20.646  0.00  0.00    +0.000 A 
ATOM     10  C   UNL     1       2.488  13.663  20.140  0.00  0.00    +0.000 A 
ATOM     11  C   UNL     1       1.649  14.526  19.435  0.00  0.00    +0.000 A 
ATOM     12  C   UNL     1       0.361  14.116  19.115  0.00  0.00    +0.000 A 
ATOM     13  C   UNL     1      -0.144  12.924  19.600  0.00  0.00    +0.000 A 
ATOM     14  O   UNL     1      -0.488  14.892  18.373  0.00  0.00    +0.000 OA
ATOM     15  C   UNL     1      -0.330  16.230  18.826  0.00  0.00    +0.000 C 
ATOM     16  C   UNL     1       1.117  16.699  18.700  0.00  0.00    +0.000 C 
ATOM     17  O   UNL     1       2.123  15.771  19.136  0.00  0.00    +0.000 OA
ENDBRANCH   7   8
BRANCH   2  18
ATOM     18  C   UNL     1       1.334   7.488  20.886  0.00  0.00    +0.000 C 
BRANCH  18  19
ATOM     19  N   UNL     1       2.107   6.638  19.983  0.00  0.00    +0.000 N 
ATOM     20  N   UNL     1       2.712   7.289  18.891  0.00  0.00    +0.000 N 
ATOM     21  C   UNL     1       3.492   6.618  17.986  0.00  0.00    +0.000 A 
ATOM     22  O   UNL     1       4.223   7.198  17.195  0.00  0.00    +0.000 OA
ATOM     23  C   UNL     1       3.392   5.147  17.999  0.00  0.00    +0.000 A 
ATOM     24  C   UNL     1       4.159   4.395  17.100  0.00  0.00    +0.000 A 
ATOM     25  C   UNL     1       4.063   3.004  17.104  0.00  0.00    +0.000 A 
ATOM     26  C   UNL     1       3.185   2.366  17.981  0.00  0.00    +0.000 A 
ATOM     27  C   UNL     1       2.418   3.114  18.871  0.00  0.00    +0.000 A 
ATOM     28  C   UNL     1       2.539   4.512  18.894  0.00  0.00    +0.000 A 
ATOM     29  C   UNL     1       1.802   5.290  19.907  0.00  0.00    +0.000 A 
ATOM     30  O   UNL     1       0.994   4.736  20.654  0.00  0.00    +0.000 OA
ATOM     31  H   UNL     1       2.953   8.279  19.017  0.00  0.00    +0.000 HD
ENDBRANCH  18  19
ENDBRANCH   2  18
TORSDOF 3
ENDMDL
MODEL 9
REMARK VINA RESULT:      -8.4      5.045     11.442
REMARK  Name = 
REMARK  3 active torsions:
REMARK  status: ('A' for Active; 'I' for Inactive)
REMARK    1  A    between atoms: C_2  and  C_3
REMARK    2  A    between atoms: C_3  and  N_4
REMARK    3  A    between atoms: C_20  and  C_21
REMARK                            x       y       z     vdW  Elec       q    Type
REMARK                         _______ _______ _______ _____ _____    ______ ____
ROOT
ATOM      1  O   UNL     1      -1.574  10.097  18.365  0.00  0.00    +0.000 OA
ATOM      2  C   UNL     1      -1.254  11.234  18.722  0.00  0.00    +0.000 C 
ATOM      3  N   UNL     1       0.067  11.567  18.975  0.00  0.00    +0.000 N 
ATOM      4  C   UNL     1       0.579  12.887  19.323  0.00  0.00    +0.000 C 
ATOM      5  C   UNL     1       1.767  13.079  18.394  0.00  0.00    +0.000 C 
ATOM      6  C   UNL     1       2.344  11.672  18.306  0.00  0.00    +0.000 C 
ATOM      7  C   UNL     1       1.088  10.789  18.290  0.00  0.00    +0.000 C 
ENDROOT
BRANCH   7   8
ATOM      8  C   UNL     1       1.355   9.401  18.807  0.00  0.00    +0.000 A 
ATOM      9  C   UNL     1       1.111   8.990  20.130  0.00  0.00    +0.000 A 
ATOM     10  C   UNL     1       1.591   7.753  20.584  0.00  0.00    +0.000 A 
ATOM     11  C   UNL     1       2.331   6.937  19.727  0.00  0.00    +0.000 A 
ATOM     12  C   UNL     1       2.460   7.293  18.389  0.00  0.00    +0.000 A 
ATOM     13  C   UNL     1       1.981   8.505  17.930  0.00  0.00    +0.000 A 
ATOM     14  O   UNL     1       3.121   6.505  17.487  0.00  0.00    +0.000 OA
ATOM     15  C   UNL     1       4.283   6.011  18.139  0.00  0.00    +0.000 C 
ATOM     16  C   UNL     1       3.931   5.240  19.409  0.00  0.00    +0.000 C 
ATOM     17  O   UNL     1       2.947   5.844  20.263  0.00  0.00    +0.000 OA
ENDBRANCH   7   8
BRANCH   2  18
ATOM     18  C   UNL     1      -2.276  12.372  18.766  0.00  0.00    +0.000 C 
BRANCH  18  19
ATOM     19  N   UNL     1      -3.579  12.090  19.364  0.00  0.00    +0.000 N 
ATOM     20  N   UNL     1      -4.566  11.604  18.487  0.00  0.00    +0.000 N 
ATOM     21  C   UNL     1      -5.822  11.267  18.921  0.00  0.00    +0.000 A 
ATOM     22  O   UNL     1      -6.597  10.612  18.236  0.00  0.00    +0.000 OA
ATOM     23  C   UNL     1      -6.206  11.753  20.258  0.00  0.00    +0.000 A 
ATOM     24  C   UNL     1      -7.475  11.449  20.766  0.00  0.00    +0.000 A 
ATOM     25  C   UNL     1      -7.844  11.912  22.029  0.00  0.00    +0.000 A 
ATOM     26  C   UNL     1      -6.963  12.699  22.770  0.00  0.00    +0.000 A 
ATOM     27  C   UNL     1      -5.702  13.007  22.263  0.00  0.00    +0.000 A 
ATOM     28  C   UNL     1      -5.314  12.512  21.008  0.00  0.00    +0.000 A 
ATOM     29  C   UNL     1      -3.943  12.755  20.522  0.00  0.00    +0.000 A 
ATOM     30  O   UNL     1      -3.177  13.484  21.153  0.00  0.00    +0.000 OA
ATOM     31  H   UNL     1      -4.241  11.083  17.665  0.00  0.00    +0.000 HD
ENDBRANCH  18  19
ENDBRANCH   2  18
TORSDOF 3
ENDMDL
