MODEL 1
REMARK VINA RESULT:      -8.1      0.000      0.000
REMARK  Name = 
REMARK  10 active torsions:
REMARK  status: ('A' for Active; 'I' for Inactive)
REMARK    1  A    between atoms: C_1  and  O_2
REMARK    2  A    between atoms: O_2  and  C_3
REMARK    3  A    between atoms: C_8  and  N_9
REMARK    4  A    between atoms: N_9  and  C_10
REMARK    5  A    between atoms: N_9  and  S_17
REMARK    6  A    between atoms: C_10  and  C_11
REMARK    7  A    between atoms: S_17  and  C_20
REMARK    8  A    between atoms: C_24  and  C_25
REMARK    9  A    between atoms: N_27  and  C_28
REMARK   10  A    between atoms: C_28  and  C_29
REMARK                            x       y       z     vdW  Elec       q    Type
REMARK                         _______ _______ _______ _____ _____    ______ ____
ROOT
ATOM      1  S   UNL     1      -0.023  13.149  21.243  0.00  0.00    +0.000 S 
ATOM      2  O   UNL     1       1.138  13.785  21.856  0.00  0.00    +0.000 OA
ATOM      3  O   UNL     1      -1.344  13.547  21.666  0.00  0.00    +0.000 OA
ENDROOT
BRANCH   1   4
ATOM      4  C   UNL     1       0.139  11.400  21.595  0.00  0.00    +0.000 A 
ATOM      5  C   UNL     1      -0.625  10.823  22.616  0.00  0.00    +0.000 A 
ATOM      6  C   UNL     1      -0.598   9.440  22.805  0.00  0.00    +0.000 A 
ATOM      7  C   UNL     1       0.155   8.626  21.954  0.00  0.00    +0.000 A 
ATOM      8  C   UNL     1       0.869   9.187  20.884  0.00  0.00    +0.000 A 
ATOM      9  C   UNL     1       0.867  10.584  20.720  0.00  0.00    +0.000 A 
BRANCH   8  10
ATOM     10  C   UNL     1       1.623   8.356  19.888  0.00  0.00    +0.000 C 
ATOM     11  O   UNL     1       1.688   8.714  18.715  0.00  0.00    +0.000 OA
ATOM     12  N   UNL     1       2.211   7.193  20.336  0.00  0.00    +0.000 N 
ATOM     13  H   UNL     1       1.978   6.802  21.236  0.00  0.00    +0.000 HD
BRANCH  12  14
ATOM     14  C   UNL     1       2.900   6.286  19.436  0.00  0.00    +0.000 C 
BRANCH  14  15
ATOM     15  C   UNL     1       2.446   4.854  19.611  0.00  0.00    +0.000 A 
ATOM     16  C   UNL     1       1.382   4.551  20.458  0.00  0.00    +0.000 A 
ATOM     17  C   UNL     1       0.980   3.224  20.584  0.00  0.00    +0.000 A 
ATOM     18  C   UNL     1       1.653   2.237  19.875  0.00  0.00    +0.000 A 
ATOM     19  C   UNL     1       2.712   2.619  19.069  0.00  0.00    +0.000 A 
ATOM     20  N   UNL     1       3.128   3.898  18.926  0.00  0.00    +0.000 NA
ENDBRANCH  14  15
ENDBRANCH  12  14
ENDBRANCH   8  10
ENDBRANCH   1   4
BRANCH   1  21
ATOM     21  N   UNL     1       0.108  13.341  19.551  0.00  0.00    +0.000 N 
BRANCH  21  27
ATOM     22  C   UNL     1       1.090  15.594  18.968  0.00  0.00    +0.000 A 
ATOM     23  C   UNL     1       2.124  16.296  18.328  0.00  0.00    +0.000 A 
ATOM     24  C   UNL     1       3.247  15.627  17.835  0.00  0.00    +0.000 A 
ATOM     25  C   UNL     1       3.374  14.256  18.020  0.00  0.00    +0.000 A 
ATOM     26  C   UNL     1       2.345  13.545  18.639  0.00  0.00    +0.000 A 
ATOM     27  C   UNL     1       1.173  14.191  19.058  0.00  0.00    +0.000 A 
BRANCH  22  29
ATOM     28  C   UNL     1       0.240  17.270  20.436  0.00  0.00    +0.000 C 
ATOM     29  O   UNL     1      -0.003  16.192  19.541  0.00  0.00    +0.000 OA
ENDBRANCH  22  29
ENDBRANCH  21  27
BRANCH  21  30
ATOM     30  C   UNL     1      -1.177  13.298  18.813  0.00  0.00    +0.000 C 
BRANCH  30  31
ATOM     31  C   UNL     1      -1.834  11.959  18.506  0.00  0.00    +0.000 A 
ATOM     32  C   UNL     1      -3.217  11.741  18.582  0.00  0.00    +0.000 A 
ATOM     33  C   UNL     1      -3.787  10.597  18.006  0.00  0.00    +0.000 A 
ATOM     34  C   UNL     1      -2.989   9.663  17.344  0.00  0.00    +0.000 A 
ATOM     35  C   UNL     1      -1.611   9.842  17.300  0.00  0.00    +0.000 A 
ATOM     36  C   UNL     1      -1.040  10.976  17.883  0.00  0.00    +0.000 A 
ENDBRANCH  30  31
ENDBRANCH  21  30
ENDBRANCH   1  21
TORSDOF 9
ENDMDL
MODEL 2
REMARK VINA RESULT:      -7.7      1.442      2.318
REMARK  Name = 
REMARK  10 active torsions:
REMARK  status: ('A' for Active; 'I' for Inactive)
REMARK    1  A    between atoms: C_1  and  O_2
REMARK    2  A    between atoms: O_2  and  C_3
REMARK    3  A    between atoms: C_8  and  N_9
REMARK    4  A    between atoms: N_9  and  C_10
REMARK    5  A    between atoms: N_9  and  S_17
REMARK    6  A    between atoms: C_10  and  C_11
REMARK    7  A    between atoms: S_17  and  C_20
REMARK    8  A    between atoms: C_24  and  C_25
REMARK    9  A    between atoms: N_27  and  C_28
REMARK   10  A    between atoms: C_28  and  C_29
REMARK                            x       y       z     vdW  Elec       q    Type
REMARK                         _______ _______ _______ _____ _____    ______ ____
ROOT
ATOM      1  S   UNL     1      -0.909  12.580  21.967  0.00  0.00    +0.000 S 
ATOM      2  O   UNL     1       0.166  13.408  22.501  0.00  0.00    +0.000 OA
ATOM      3  O   UNL     1      -2.146  12.478  22.703  0.00  0.00    +0.000 OA
ENDROOT
BRANCH   1   4
ATOM      4  C   UNL     1      -0.230  10.926  21.844  0.00  0.00    +0.000 A 
ATOM      5  C   UNL     1      -0.630   9.942  22.756  0.00  0.00    +0.000 A 
ATOM      6  C   UNL     1      -0.204   8.623  22.583  0.00  0.00    +0.000 A 
ATOM      7  C   UNL     1       0.582   8.274  21.482  0.00  0.00    +0.000 A 
ATOM      8  C   UNL     1       0.930   9.239  20.524  0.00  0.00    +0.000 A 
ATOM      9  C   UNL     1       0.529  10.572  20.722  0.00  0.00    +0.000 A 
BRANCH   8  10
ATOM     10  C   UNL     1       1.697   8.904  19.278  0.00  0.00    +0.000 C 
ATOM     11  O   UNL     1       1.767   9.722  18.365  0.00  0.00    +0.000 OA
ATOM     12  N   UNL     1       2.292   7.664  19.204  0.00  0.00    +0.000 N 
ATOM     13  H   UNL     1       2.056   6.931  19.856  0.00  0.00    +0.000 HD
BRANCH  12  14
ATOM     14  C   UNL     1       2.995   7.221  18.014  0.00  0.00    +0.000 C 
BRANCH  14  15
ATOM     15  C   UNL     1       3.051   5.713  17.913  0.00  0.00    +0.000 A 
ATOM     16  C   UNL     1       1.883   4.958  17.992  0.00  0.00    +0.000 A 
ATOM     17  C   UNL     1       1.968   3.573  17.880  0.00  0.00    +0.000 A 
ATOM     18  C   UNL     1       3.211   2.978  17.703  0.00  0.00    +0.000 A 
ATOM     19  C   UNL     1       4.326   3.798  17.653  0.00  0.00    +0.000 A 
ATOM     20  N   UNL     1       4.277   5.146  17.760  0.00  0.00    +0.000 NA
ENDBRANCH  14  15
ENDBRANCH  12  14
ENDBRANCH   8  10
ENDBRANCH   1   4
BRANCH   1  21
ATOM     21  N   UNL     1      -1.240  13.112  20.379  0.00  0.00    +0.000 N 
BRANCH  21  27
ATOM     22  C   UNL     1       0.531  14.571  19.324  0.00  0.00    +0.000 A 
ATOM     23  C   UNL     1       1.020  15.873  19.131  0.00  0.00    +0.000 A 
ATOM     24  C   UNL     1       0.277  16.986  19.533  0.00  0.00    +0.000 A 
ATOM     25  C   UNL     1      -0.986  16.813  20.086  0.00  0.00    +0.000 A 
ATOM     26  C   UNL     1      -1.476  15.523  20.298  0.00  0.00    +0.000 A 
ATOM     27  C   UNL     1      -0.702  14.397  19.981  0.00  0.00    +0.000 A 
BRANCH  22  29
ATOM     28  C   UNL     1       2.306  13.615  18.050  0.00  0.00    +0.000 C 
ATOM     29  O   UNL     1       1.171  13.439  18.888  0.00  0.00    +0.000 OA
ENDBRANCH  22  29
ENDBRANCH  21  27
BRANCH  21  30
ATOM     30  C   UNL     1      -2.549  12.682  19.833  0.00  0.00    +0.000 C 
BRANCH  30  31
ATOM     31  C   UNL     1      -2.606  11.818  18.579  0.00  0.00    +0.000 A 
ATOM     32  C   UNL     1      -1.547  11.006  18.152  0.00  0.00    +0.000 A 
ATOM     33  C   UNL     1      -1.759  10.019  17.179  0.00  0.00    +0.000 A 
ATOM     34  C   UNL     1      -3.025   9.827  16.626  0.00  0.00    +0.000 A 
ATOM     35  C   UNL     1      -4.076  10.655  17.007  0.00  0.00    +0.000 A 
ATOM     36  C   UNL     1      -3.864  11.646  17.968  0.00  0.00    +0.000 A 
ENDBRANCH  30  31
ENDBRANCH  21  30
ENDBRANCH   1  21
TORSDOF 9
ENDMDL
MODEL 3
REMARK VINA RESULT:      -7.6      3.946      9.978
REMARK  Name = 
REMARK  10 active torsions:
REMARK  status: ('A' for Active; 'I' for Inactive)
REMARK    1  A    between atoms: C_1  and  O_2
REMARK    2  A    between atoms: O_2  and  C_3
REMARK    3  A    between atoms: C_8  and  N_9
REMARK    4  A    between atoms: N_9  and  C_10
REMARK    5  A    between atoms: N_9  and  S_17
REMARK    6  A    between atoms: C_10  and  C_11
REMARK    7  A    between atoms: S_17  and  C_20
REMARK    8  A    between atoms: C_24  and  C_25
REMARK    9  A    between atoms: N_27  and  C_28
REMARK   10  A    between atoms: C_28  and  C_29
REMARK                            x       y       z     vdW  Elec       q    Type
REMARK                         _______ _______ _______ _____ _____    ______ ____
ROOT
ATOM      1  S   UNL     1       4.783   5.990  17.782  0.00  0.00    +0.000 S 
ATOM      2  O   UNL     1       5.846   5.747  18.750  0.00  0.00    +0.000 OA
ATOM      3  O   UNL     1       5.012   6.931  16.711  0.00  0.00    +0.000 OA
ENDROOT
BRANCH   1   4
ATOM      4  C   UNL     1       3.393   6.601  18.732  0.00  0.00    +0.000 A 
ATOM      5  C   UNL     1       3.092   6.023  19.972  0.00  0.00    +0.000 A 
ATOM      6  C   UNL     1       2.093   6.580  20.772  0.00  0.00    +0.000 A 
ATOM      7  C   UNL     1       1.422   7.736  20.361  0.00  0.00    +0.000 A 
ATOM      8  C   UNL     1       1.764   8.363  19.154  0.00  0.00    +0.000 A 
ATOM      9  C   UNL     1       2.746   7.777  18.335  0.00  0.00    +0.000 A 
BRANCH   8  10
ATOM     10  C   UNL     1       1.140   9.652  18.705  0.00  0.00    +0.000 C 
ATOM     11  O   UNL     1       1.733  10.375  17.909  0.00  0.00    +0.000 OA
ATOM     12  N   UNL     1      -0.092   9.984  19.225  0.00  0.00    +0.000 N 
ATOM     13  H   UNL     1      -0.470   9.500  20.025  0.00  0.00    +0.000 HD
BRANCH  12  14
ATOM     14  C   UNL     1      -0.744  11.241  18.907  0.00  0.00    +0.000 C 
BRANCH  14  15
ATOM     15  C   UNL     1      -1.956  11.048  18.024  0.00  0.00    +0.000 A 
ATOM     16  C   UNL     1      -1.919  10.146  16.963  0.00  0.00    +0.000 A 
ATOM     17  C   UNL     1      -3.057   9.981  16.179  0.00  0.00    +0.000 A 
ATOM     18  C   UNL     1      -4.196  10.724  16.465  0.00  0.00    +0.000 A 
ATOM     19  C   UNL     1      -4.146  11.613  17.526  0.00  0.00    +0.000 A 
ATOM     20  N   UNL     1      -3.056  11.798  18.305  0.00  0.00    +0.000 NA
ENDBRANCH  14  15
ENDBRANCH  12  14
ENDBRANCH   8  10
ENDBRANCH   1   4
BRANCH   1  21
ATOM     21  N   UNL     1       4.323   4.484  17.120  0.00  0.00    +0.000 N 
BRANCH  21  27
ATOM     22  C   UNL     1       3.498   2.818  18.829  0.00  0.00    +0.000 A 
ATOM     23  C   UNL     1       2.418   2.055  19.302  0.00  0.00    +0.000 A 
ATOM     24  C   UNL     1       1.128   2.252  18.802  0.00  0.00    +0.000 A 
ATOM     25  C   UNL     1       0.892   3.247  17.861  0.00  0.00    +0.000 A 
ATOM     26  C   UNL     1       1.961   4.000  17.371  0.00  0.00    +0.000 A 
ATOM     27  C   UNL     1       3.274   3.752  17.799  0.00  0.00    +0.000 A 
BRANCH  22  29
ATOM     28  C   UNL     1       4.979   1.880  20.446  0.00  0.00    +0.000 C 
ATOM     29  O   UNL     1       4.773   2.731  19.326  0.00  0.00    +0.000 OA
ENDBRANCH  22  29
ENDBRANCH  21  27
BRANCH  21  30
ATOM     30  C   UNL     1       5.414   3.730  16.460  0.00  0.00    +0.000 C 
BRANCH  30  31
ATOM     31  C   UNL     1       5.889   4.137  15.070  0.00  0.00    +0.000 A 
ATOM     32  C   UNL     1       7.026   4.923  14.841  0.00  0.00    +0.000 A 
ATOM     33  C   UNL     1       7.580   5.012  13.556  0.00  0.00    +0.000 A 
ATOM     34  C   UNL     1       7.012   4.315  12.489  0.00  0.00    +0.000 A 
ATOM     35  C   UNL     1       5.858   3.567  12.691  0.00  0.00    +0.000 A 
ATOM     36  C   UNL     1       5.299   3.486  13.968  0.00  0.00    +0.000 A 
ENDBRANCH  30  31
ENDBRANCH  21  30
ENDBRANCH   1  21
TORSDOF 9
ENDMDL
MODEL 4
REMARK VINA RESULT:      -7.6      1.079      1.285
REMARK  Name = 
REMARK  10 active torsions:
REMARK  status: ('A' for Active; 'I' for Inactive)
REMARK    1  A    between atoms: C_1  and  O_2
REMARK    2  A    between atoms: O_2  and  C_3
REMARK    3  A    between atoms: C_8  and  N_9
REMARK    4  A    between atoms: N_9  and  C_10
REMARK    5  A    between atoms: N_9  and  S_17
REMARK    6  A    between atoms: C_10  and  C_11
REMARK    7  A    between atoms: S_17  and  C_20
REMARK    8  A    between atoms: C_24  and  C_25
REMARK    9  A    between atoms: N_27  and  C_28
REMARK   10  A    between atoms: C_28  and  C_29
REMARK                            x       y       z     vdW  Elec       q    Type
REMARK                         _______ _______ _______ _____ _____    ______ ____
ROOT
ATOM      1  S   UNL     1      -1.052  13.010  21.699  0.00  0.00    +0.000 S 
ATOM      2  O   UNL     1      -0.074  13.905  22.309  0.00  0.00    +0.000 OA
ATOM      3  O   UNL     1      -2.429  13.084  22.124  0.00  0.00    +0.000 OA
ENDROOT
BRANCH   1   4
ATOM      4  C   UNL     1      -0.478  11.351  22.054  0.00  0.00    +0.000 A 
ATOM      5  C   UNL     1      -0.966  10.673  23.178  0.00  0.00    +0.000 A 
ATOM      6  C   UNL     1      -0.621   9.335  23.384  0.00  0.00    +0.000 A 
ATOM      7  C   UNL     1       0.172   8.660  22.452  0.00  0.00    +0.000 A 
ATOM      8  C   UNL     1       0.608   9.309  21.287  0.00  0.00    +0.000 A 
ATOM      9  C   UNL     1       0.288  10.666  21.103  0.00  0.00    +0.000 A 
BRANCH   8  10
ATOM     10  C   UNL     1       1.387   8.610  20.212  0.00  0.00    +0.000 C 
ATOM     11  O   UNL     1       1.457   9.100  19.089  0.00  0.00    +0.000 OA
ATOM     12  N   UNL     1       1.993   7.414  20.533  0.00  0.00    +0.000 N 
ATOM     13  H   UNL     1       1.758   6.920  21.380  0.00  0.00    +0.000 HD
BRANCH  12  14
ATOM     14  C   UNL     1       2.708   6.628  19.545  0.00  0.00    +0.000 C 
BRANCH  14  15
ATOM     15  C   UNL     1       2.095   5.259  19.352  0.00  0.00    +0.000 A 
ATOM     16  C   UNL     1       2.014   4.697  18.079  0.00  0.00    +0.000 A 
ATOM     17  C   UNL     1       1.457   3.429  17.938  0.00  0.00    +0.000 A 
ATOM     18  C   UNL     1       0.988   2.761  19.063  0.00  0.00    +0.000 A 
ATOM     19  C   UNL     1       1.088   3.397  20.289  0.00  0.00    +0.000 A 
ATOM     20  N   UNL     1       1.621   4.629  20.459  0.00  0.00    +0.000 NA
ENDBRANCH  14  15
ENDBRANCH  12  14
ENDBRANCH   8  10
ENDBRANCH   1   4
BRANCH   1  21
ATOM     21  N   UNL     1      -0.973  13.224  20.006  0.00  0.00    +0.000 N 
BRANCH  21  27
ATOM     22  C   UNL     1      -0.254  15.562  19.379  0.00  0.00    +0.000 A 
ATOM     23  C   UNL     1       0.697  16.366  18.730  0.00  0.00    +0.000 A 
ATOM     24  C   UNL     1       1.894  15.822  18.258  0.00  0.00    +0.000 A 
ATOM     25  C   UNL     1       2.178  14.479  18.474  0.00  0.00    +0.000 A 
ATOM     26  C   UNL     1       1.233  13.666  19.103  0.00  0.00    +0.000 A 
ATOM     27  C   UNL     1      -0.010  14.181  19.501  0.00  0.00    +0.000 A 
BRANCH  22  29
ATOM     28  C   UNL     1      -1.823  17.350  19.555  0.00  0.00    +0.000 C 
ATOM     29  O   UNL     1      -1.414  16.042  19.932  0.00  0.00    +0.000 OA
ENDBRANCH  22  29
ENDBRANCH  21  27
BRANCH  21  30
ATOM     30  C   UNL     1      -2.259  13.054  19.292  0.00  0.00    +0.000 C 
BRANCH  30  31
ATOM     31  C   UNL     1      -2.517  11.793  18.476  0.00  0.00    +0.000 A 
ATOM     32  C   UNL     1      -3.703  11.561  17.766  0.00  0.00    +0.000 A 
ATOM     33  C   UNL     1      -3.765  10.542  16.804  0.00  0.00    +0.000 A 
ATOM     34  C   UNL     1      -2.649   9.750  16.536  0.00  0.00    +0.000 A 
ATOM     35  C   UNL     1      -1.479   9.939  17.264  0.00  0.00    +0.000 A 
ATOM     36  C   UNL     1      -1.418  10.946  18.230  0.00  0.00    +0.000 A 
ENDBRANCH  30  31
ENDBRANCH  21  30
ENDBRANCH   1  21
TORSDOF 9
ENDMDL
MODEL 5
REMARK VINA RESULT:      -7.3      3.297      9.112
REMARK  Name = 
REMARK  10 active torsions:
REMARK  status: ('A' for Active; 'I' for Inactive)
REMARK    1  A    between atoms: C_1  and  O_2
REMARK    2  A    between atoms: O_2  and  C_3
REMARK    3  A    between atoms: C_8  and  N_9
REMARK    4  A    between atoms: N_9  and  C_10
REMARK    5  A    between atoms: N_9  and  S_17
REMARK    6  A    between atoms: C_10  and  C_11
REMARK    7  A    between atoms: S_17  and  C_20
REMARK    8  A    between atoms: C_24  and  C_25
REMARK    9  A    between atoms: N_27  and  C_28
REMARK   10  A    between atoms: C_28  and  C_29
REMARK                            x       y       z     vdW  Elec       q    Type
REMARK                         _______ _______ _______ _____ _____    ______ ____
ROOT
ATOM      1  S   UNL     1       3.731   7.274  17.620  0.00  0.00    +0.000 S 
ATOM      2  O   UNL     1       4.976   7.876  18.083  0.00  0.00    +0.000 OA
ATOM      3  O   UNL     1       3.223   7.630  16.317  0.00  0.00    +0.000 OA
ENDROOT
BRANCH   1   4
ATOM      4  C   UNL     1       2.487   7.749  18.819  0.00  0.00    +0.000 A 
ATOM      5  C   UNL     1       2.401   7.065  20.037  0.00  0.00    +0.000 A 
ATOM      6  C   UNL     1       1.522   7.515  21.025  0.00  0.00    +0.000 A 
ATOM      7  C   UNL     1       0.760   8.669  20.818  0.00  0.00    +0.000 A 
ATOM      8  C   UNL     1       0.891   9.401  19.628  0.00  0.00    +0.000 A 
ATOM      9  C   UNL     1       1.750   8.923  18.623  0.00  0.00    +0.000 A 
BRANCH   8  10
ATOM     10  C   UNL     1       0.164  10.693  19.387  0.00  0.00    +0.000 C 
ATOM     11  O   UNL     1       0.718  11.601  18.774  0.00  0.00    +0.000 OA
ATOM     12  N   UNL     1      -1.114  10.813  19.887  0.00  0.00    +0.000 N 
ATOM     13  H   UNL     1      -1.476  10.156  20.561  0.00  0.00    +0.000 HD
BRANCH  12  14
ATOM     14  C   UNL     1      -1.870  12.046  19.768  0.00  0.00    +0.000 C 
BRANCH  14  15
ATOM     15  C   UNL     1      -3.082  11.888  18.877  0.00  0.00    +0.000 A 
ATOM     16  C   UNL     1      -2.943  11.405  17.578  0.00  0.00    +0.000 A 
ATOM     17  C   UNL     1      -4.081  11.258  16.789  0.00  0.00    +0.000 A 
ATOM     18  C   UNL     1      -5.321  11.605  17.310  0.00  0.00    +0.000 A 
ATOM     19  C   UNL     1      -5.372  12.095  18.604  0.00  0.00    +0.000 A 
ATOM     20  N   UNL     1      -4.286  12.252  19.395  0.00  0.00    +0.000 NA
ENDBRANCH  14  15
ENDBRANCH  12  14
ENDBRANCH   8  10
ENDBRANCH   1   4
BRANCH   1  21
ATOM     21  N   UNL     1       3.904   5.577  17.713  0.00  0.00    +0.000 N 
BRANCH  21  27
ATOM     22  C   UNL     1       6.295   4.770  17.611  0.00  0.00    +0.000 A 
ATOM     23  C   UNL     1       7.356   4.335  16.800  0.00  0.00    +0.000 A 
ATOM     24  C   UNL     1       7.158   4.065  15.444  0.00  0.00    +0.000 A 
ATOM     25  C   UNL     1       5.887   4.177  14.892  0.00  0.00    +0.000 A 
ATOM     26  C   UNL     1       4.829   4.625  15.684  0.00  0.00    +0.000 A 
ATOM     27  C   UNL     1       5.033   4.985  17.025  0.00  0.00    +0.000 A 
BRANCH  22  29
ATOM     28  C   UNL     1       7.518   5.730  19.420  0.00  0.00    +0.000 C 
ATOM     29  O   UNL     1       6.399   4.981  18.962  0.00  0.00    +0.000 OA
ENDBRANCH  22  29
ENDBRANCH  21  27
BRANCH  21  30
ATOM     30  C   UNL     1       2.633   4.821  17.792  0.00  0.00    +0.000 C 
BRANCH  30  31
ATOM     31  C   UNL     1       2.380   3.874  18.959  0.00  0.00    +0.000 A 
ATOM     32  C   UNL     1       3.405   3.294  19.719  0.00  0.00    +0.000 A 
ATOM     33  C   UNL     1       3.117   2.684  20.949  0.00  0.00    +0.000 A 
ATOM     34  C   UNL     1       1.810   2.650  21.435  0.00  0.00    +0.000 A 
ATOM     35  C   UNL     1       0.776   3.180  20.671  0.00  0.00    +0.000 A 
ATOM     36  C   UNL     1       1.060   3.779  19.442  0.00  0.00    +0.000 A 
ENDBRANCH  30  31
ENDBRANCH  21  30
ENDBRANCH   1  21
TORSDOF 9
ENDMDL
MODEL 6
REMARK VINA RESULT:      -7.2      3.377      7.819
REMARK  Name = 
REMARK  10 active torsions:
REMARK  status: ('A' for Active; 'I' for Inactive)
REMARK    1  A    between atoms: C_1  and  O_2
REMARK    2  A    between atoms: O_2  and  C_3
REMARK    3  A    between atoms: C_8  and  N_9
REMARK    4  A    between atoms: N_9  and  C_10
REMARK    5  A    between atoms: N_9  and  S_17
REMARK    6  A    between atoms: C_10  and  C_11
REMARK    7  A    between atoms: S_17  and  C_20
REMARK    8  A    between atoms: C_24  and  C_25
REMARK    9  A    between atoms: N_27  and  C_28
REMARK   10  A    between atoms: C_28  and  C_29
REMARK                            x       y       z     vdW  Elec       q    Type
REMARK                         _______ _______ _______ _____ _____    ______ ____
ROOT
ATOM      1  S   UNL     1       1.272  13.186  20.050  0.00  0.00    +0.000 S 
ATOM      2  O   UNL     1       1.834  13.187  21.396  0.00  0.00    +0.000 OA
ATOM      3  O   UNL     1       2.165  13.128  18.918  0.00  0.00    +0.000 OA
ENDROOT
BRANCH   1   4
ATOM      4  C   UNL     1       0.343  14.712  19.911  0.00  0.00    +0.000 A 
ATOM      5  C   UNL     1       0.795  15.725  19.057  0.00  0.00    +0.000 A 
ATOM      6  C   UNL     1       0.006  16.858  18.848  0.00  0.00    +0.000 A 
ATOM      7  C   UNL     1      -1.249  16.966  19.454  0.00  0.00    +0.000 A 
ATOM      8  C   UNL     1      -1.741  15.925  20.256  0.00  0.00    +0.000 A 
ATOM      9  C   UNL     1      -0.928  14.803  20.492  0.00  0.00    +0.000 A 
BRANCH   8  10
ATOM     10  C   UNL     1      -3.115  15.948  20.859  0.00  0.00    +0.000 C 
ATOM     11  O   UNL     1      -3.249  16.109  22.069  0.00  0.00    +0.000 OA
ATOM     12  N   UNL     1      -4.190  15.769  20.016  0.00  0.00    +0.000 N 
ATOM     13  H   UNL     1      -4.065  15.431  19.074  0.00  0.00    +0.000 HD
BRANCH  12  14
ATOM     14  C   UNL     1      -5.552  15.705  20.514  0.00  0.00    +0.000 C 
BRANCH  14  15
ATOM     15  C   UNL     1      -6.181  14.350  20.280  0.00  0.00    +0.000 A 
ATOM     16  C   UNL     1      -5.929  13.295  21.155  0.00  0.00    +0.000 A 
ATOM     17  C   UNL     1      -6.536  12.065  20.919  0.00  0.00    +0.000 A 
ATOM     18  C   UNL     1      -7.367  11.915  19.815  0.00  0.00    +0.000 A 
ATOM     19  C   UNL     1      -7.551  13.006  18.983  0.00  0.00    +0.000 A 
ATOM     20  N   UNL     1      -6.975  14.214  19.184  0.00  0.00    +0.000 NA
ENDBRANCH  14  15
ENDBRANCH  12  14
ENDBRANCH   8  10
ENDBRANCH   1   4
BRANCH   1  21
ATOM     21  N   UNL     1       0.153  11.900  19.952  0.00  0.00    +0.000 N 
BRANCH  21  27
ATOM     22  C   UNL     1      -0.800  11.207  22.185  0.00  0.00    +0.000 A 
ATOM     23  C   UNL     1      -0.687  10.362  23.301  0.00  0.00    +0.000 A 
ATOM     24  C   UNL     1       0.227   9.306  23.311  0.00  0.00    +0.000 A 
ATOM     25  C   UNL     1       1.003   9.049  22.187  0.00  0.00    +0.000 A 
ATOM     26  C   UNL     1       0.911   9.892  21.078  0.00  0.00    +0.000 A 
ATOM     27  C   UNL     1       0.062  11.008  21.090  0.00  0.00    +0.000 A 
BRANCH  22  29
ATOM     28  C   UNL     1      -2.827  12.186  22.975  0.00  0.00    +0.000 C 
ATOM     29  O   UNL     1      -1.725  12.213  22.076  0.00  0.00    +0.000 OA
ENDBRANCH  22  29
ENDBRANCH  21  27
BRANCH  21  30
ATOM     30  C   UNL     1      -0.054  11.351  18.591  0.00  0.00    +0.000 C 
BRANCH  30  31
ATOM     31  C   UNL     1      -1.466  11.150  18.056  0.00  0.00    +0.000 A 
ATOM     32  C   UNL     1      -1.837  10.076  17.236  0.00  0.00    +0.000 A 
ATOM     33  C   UNL     1      -3.191   9.778  17.026  0.00  0.00    +0.000 A 
ATOM     34  C   UNL     1      -4.188  10.541  17.634  0.00  0.00    +0.000 A 
ATOM     35  C   UNL     1      -3.837  11.638  18.414  0.00  0.00    +0.000 A 
ATOM     36  C   UNL     1      -2.489  11.942  18.616  0.00  0.00    +0.000 A 
ENDBRANCH  30  31
ENDBRANCH  21  30
ENDBRANCH   1  21
TORSDOF 9
ENDMDL
MODEL 7
REMARK VINA RESULT:      -7.0      2.309      3.170
REMARK  Name = 
REMARK  10 active torsions:
REMARK  status: ('A' for Active; 'I' for Inactive)
REMARK    1  A    between atoms: C_1  and  O_2
REMARK    2  A    between atoms: O_2  and  C_3
REMARK    3  A    between atoms: C_8  and  N_9
REMARK    4  A    between atoms: N_9  and  C_10
REMARK    5  A    between atoms: N_9  and  S_17
REMARK    6  A    between atoms: C_10  and  C_11
REMARK    7  A    between atoms: S_17  and  C_20
REMARK    8  A    between atoms: C_24  and  C_25
REMARK    9  A    between atoms: N_27  and  C_28
REMARK   10  A    between atoms: C_28  and  C_29
REMARK                            x       y       z     vdW  Elec       q    Type
REMARK                         _______ _______ _______ _____ _____    ______ ____
ROOT
ATOM      1  S   UNL     1       0.490  12.544  20.470  0.00  0.00    +0.000 S 
ATOM      2  O   UNL     1       0.932  12.830  19.110  0.00  0.00    +0.000 OA
ATOM      3  O   UNL     1       1.074  13.279  21.565  0.00  0.00    +0.000 OA
ENDROOT
BRANCH   1   4
ATOM      4  C   UNL     1       0.852  10.812  20.743  0.00  0.00    +0.000 A 
ATOM      5  C   UNL     1       0.403  10.184  21.912  0.00  0.00    +0.000 A 
ATOM      6  C   UNL     1       0.570   8.807  22.067  0.00  0.00    +0.000 A 
ATOM      7  C   UNL     1       1.144   8.046  21.045  0.00  0.00    +0.000 A 
ATOM      8  C   UNL     1       1.533   8.653  19.841  0.00  0.00    +0.000 A 
ATOM      9  C   UNL     1       1.396  10.046  19.704  0.00  0.00    +0.000 A 
BRANCH   8  10
ATOM     10  C   UNL     1       2.073   7.874  18.678  0.00  0.00    +0.000 C 
ATOM     11  O   UNL     1       1.754   8.184  17.533  0.00  0.00    +0.000 OA
ATOM     12  N   UNL     1       2.911   6.815  18.948  0.00  0.00    +0.000 N 
ATOM     13  H   UNL     1       2.998   6.441  19.881  0.00  0.00    +0.000 HD
BRANCH  12  14
ATOM     14  C   UNL     1       3.428   5.958  17.896  0.00  0.00    +0.000 C 
BRANCH  14  15
ATOM     15  C   UNL     1       3.267   4.491  18.224  0.00  0.00    +0.000 A 
ATOM     16  C   UNL     1       2.301   3.726  17.575  0.00  0.00    +0.000 A 
ATOM     17  C   UNL     1       2.189   2.374  17.889  0.00  0.00    +0.000 A 
ATOM     18  C   UNL     1       3.032   1.825  18.848  0.00  0.00    +0.000 A 
ATOM     19  C   UNL     1       3.953   2.657  19.461  0.00  0.00    +0.000 A 
ATOM     20  N   UNL     1       4.086   3.974  19.179  0.00  0.00    +0.000 NA
ENDBRANCH  14  15
ENDBRANCH  12  14
ENDBRANCH   8  10
ENDBRANCH   1   4
BRANCH   1  21
ATOM     21  N   UNL     1      -1.209  12.721  20.515  0.00  0.00    +0.000 N 
BRANCH  21  27
ATOM     22  C   UNL     1      -1.839  15.012  21.371  0.00  0.00    +0.000 A 
ATOM     23  C   UNL     1      -2.245  15.787  22.469  0.00  0.00    +0.000 A 
ATOM     24  C   UNL     1      -2.617  15.184  23.673  0.00  0.00    +0.000 A 
ATOM     25  C   UNL     1      -2.638  13.798  23.778  0.00  0.00    +0.000 A 
ATOM     26  C   UNL     1      -2.220  13.019  22.699  0.00  0.00    +0.000 A 
ATOM     27  C   UNL     1      -1.758  13.614  21.515  0.00  0.00    +0.000 A 
BRANCH  22  29
ATOM     28  C   UNL     1      -1.974  16.853  19.860  0.00  0.00    +0.000 C 
ATOM     29  O   UNL     1      -1.532  15.530  20.138  0.00  0.00    +0.000 OA
ENDBRANCH  22  29
ENDBRANCH  21  27
BRANCH  21  30
ATOM     30  C   UNL     1      -1.975  11.512  20.133  0.00  0.00    +0.000 C 
BRANCH  30  31
ATOM     31  C   UNL     1      -2.360  11.283  18.676  0.00  0.00    +0.000 A 
ATOM     32  C   UNL     1      -1.657  10.428  17.817  0.00  0.00    +0.000 A 
ATOM     33  C   UNL     1      -2.222  10.027  16.597  0.00  0.00    +0.000 A 
ATOM     34  C   UNL     1      -3.492  10.468  16.225  0.00  0.00    +0.000 A 
ATOM     35  C   UNL     1      -4.183  11.352  17.046  0.00  0.00    +0.000 A 
ATOM     36  C   UNL     1      -3.617  11.760  18.256  0.00  0.00    +0.000 A 
ENDBRANCH  30  31
ENDBRANCH  21  30
ENDBRANCH   1  21
TORSDOF 9
ENDMDL
MODEL 8
REMARK VINA RESULT:      -7.0      4.347     10.016
REMARK  Name = 
REMARK  10 active torsions:
REMARK  status: ('A' for Active; 'I' for Inactive)
REMARK    1  A    between atoms: C_1  and  O_2
REMARK    2  A    between atoms: O_2  and  C_3
REMARK    3  A    between atoms: C_8  and  N_9
REMARK    4  A    between atoms: N_9  and  C_10
REMARK    5  A    between atoms: N_9  and  S_17
REMARK    6  A    between atoms: C_10  and  C_11
REMARK    7  A    between atoms: S_17  and  C_20
REMARK    8  A    between atoms: C_24  and  C_25
REMARK    9  A    between atoms: N_27  and  C_28
REMARK   10  A    between atoms: C_28  and  C_29
REMARK                            x       y       z     vdW  Elec       q    Type
REMARK                         _______ _______ _______ _____ _____    ______ ____
ROOT
ATOM      1  S   UNL     1       4.990   6.358  16.700  0.00  0.00    +0.000 S 
ATOM      2  O   UNL     1       6.230   6.606  17.427  0.00  0.00    +0.000 OA
ATOM      3  O   UNL     1       4.763   7.041  15.448  0.00  0.00    +0.000 OA
ENDROOT
BRANCH   1   4
ATOM      4  C   UNL     1       3.671   6.842  17.811  0.00  0.00    +0.000 A 
ATOM      5  C   UNL     1       3.507   6.169  19.028  0.00  0.00    +0.000 A 
ATOM      6  C   UNL     1       2.566   6.627  19.952  0.00  0.00    +0.000 A 
ATOM      7  C   UNL     1       1.818   7.778  19.686  0.00  0.00    +0.000 A 
ATOM      8  C   UNL     1       2.024   8.500  18.501  0.00  0.00    +0.000 A 
ATOM      9  C   UNL     1       2.947   8.014  17.558  0.00  0.00    +0.000 A 
BRANCH   8  10
ATOM     10  C   UNL     1       1.314   9.788  18.202  0.00  0.00    +0.000 C 
ATOM     11  O   UNL     1       1.854  10.634  17.495  0.00  0.00    +0.000 OA
ATOM     12  N   UNL     1       0.067   9.977  18.757  0.00  0.00    +0.000 N 
ATOM     13  H   UNL     1      -0.273   9.381  19.496  0.00  0.00    +0.000 HD
BRANCH  12  14
ATOM     14  C   UNL     1      -0.668  11.217  18.585  0.00  0.00    +0.000 C 
BRANCH  14  15
ATOM     15  C   UNL     1      -1.911  11.032  17.745  0.00  0.00    +0.000 A 
ATOM     16  C   UNL     1      -3.084  11.711  18.064  0.00  0.00    +0.000 A 
ATOM     17  C   UNL     1      -4.207  11.530  17.260  0.00  0.00    +0.000 A 
ATOM     18  C   UNL     1      -4.134  10.671  16.171  0.00  0.00    +0.000 A 
ATOM     19  C   UNL     1      -2.936  10.019  15.932  0.00  0.00    +0.000 A 
ATOM     20  N   UNL     1      -1.829  10.172  16.694  0.00  0.00    +0.000 NA
ENDBRANCH  14  15
ENDBRANCH  12  14
ENDBRANCH   8  10
ENDBRANCH   1   4
BRANCH   1  21
ATOM     21  N   UNL     1       4.854   4.673  16.455  0.00  0.00    +0.000 N 
BRANCH  21  27
ATOM     22  C   UNL     1       4.639   3.335  18.587  0.00  0.00    +0.000 A 
ATOM     23  C   UNL     1       3.833   2.496  19.372  0.00  0.00    +0.000 A 
ATOM     24  C   UNL     1       2.492   2.280  19.046  0.00  0.00    +0.000 A 
ATOM     25  C   UNL     1       1.926   2.941  17.963  0.00  0.00    +0.000 A 
ATOM     26  C   UNL     1       2.722   3.765  17.165  0.00  0.00    +0.000 A 
ATOM     27  C   UNL     1       4.091   3.919  17.428  0.00  0.00    +0.000 A 
BRANCH  22  29
ATOM     28  C   UNL     1       6.155   4.732  19.786  0.00  0.00    +0.000 C 
ATOM     29  O   UNL     1       5.939   3.651  18.888  0.00  0.00    +0.000 OA
ENDBRANCH  22  29
ENDBRANCH  21  27
BRANCH  21  30
ATOM     30  C   UNL     1       6.029   4.037  15.813  0.00  0.00    +0.000 C 
BRANCH  30  31
ATOM     31  C   UNL     1       6.341   4.317  14.348  0.00  0.00    +0.000 A 
ATOM     32  C   UNL     1       7.377   5.160  13.927  0.00  0.00    +0.000 A 
ATOM     33  C   UNL     1       7.807   5.144  12.592  0.00  0.00    +0.000 A 
ATOM     34  C   UNL     1       7.213   4.285  11.666  0.00  0.00    +0.000 A 
ATOM     35  C   UNL     1       6.154   3.475  12.059  0.00  0.00    +0.000 A 
ATOM     36  C   UNL     1       5.718   3.497  13.385  0.00  0.00    +0.000 A 
ENDBRANCH  30  31
ENDBRANCH  21  30
ENDBRANCH   1  21
TORSDOF 9
ENDMDL
MODEL 9
REMARK VINA RESULT:      -7.0      3.052      9.354
REMARK  Name = 
REMARK  10 active torsions:
REMARK  status: ('A' for Active; 'I' for Inactive)
REMARK    1  A    between atoms: C_1  and  O_2
REMARK    2  A    between atoms: O_2  and  C_3
REMARK    3  A    between atoms: C_8  and  N_9
REMARK    4  A    between atoms: N_9  and  C_10
REMARK    5  A    between atoms: N_9  and  S_17
REMARK    6  A    between atoms: C_10  and  C_11
REMARK    7  A    between atoms: S_17  and  C_20
REMARK    8  A    between atoms: C_24  and  C_25
REMARK    9  A    between atoms: N_27  and  C_28
REMARK   10  A    between atoms: C_28  and  C_29
REMARK                            x       y       z     vdW  Elec       q    Type
REMARK                         _______ _______ _______ _____ _____    ______ ____
ROOT
ATOM      1  S   UNL     1       3.608   7.340  17.659  0.00  0.00    +0.000 S 
ATOM      2  O   UNL     1       4.847   7.984  18.081  0.00  0.00    +0.000 OA
ATOM      3  O   UNL     1       3.068   7.646  16.357  0.00  0.00    +0.000 OA
ENDROOT
BRANCH   1   4
ATOM      4  C   UNL     1       2.377   7.820  18.868  0.00  0.00    +0.000 A 
ATOM      5  C   UNL     1       2.293   7.131  20.085  0.00  0.00    +0.000 A 
ATOM      6  C   UNL     1       1.424   7.585  21.079  0.00  0.00    +0.000 A 
ATOM      7  C   UNL     1       0.671   8.745  20.882  0.00  0.00    +0.000 A 
ATOM      8  C   UNL     1       0.799   9.482  19.695  0.00  0.00    +0.000 A 
ATOM      9  C   UNL     1       1.648   9.001  18.682  0.00  0.00    +0.000 A 
BRANCH   8  10
ATOM     10  C   UNL     1       0.082  10.780  19.464  0.00  0.00    +0.000 C 
ATOM     11  O   UNL     1      -1.145  10.801  19.417  0.00  0.00    +0.000 OA
ATOM     12  N   UNL     1       0.845  11.915  19.299  0.00  0.00    +0.000 N 
ATOM     13  H   UNL     1       1.838  11.857  19.129  0.00  0.00    +0.000 HD
BRANCH  12  14
ATOM     14  C   UNL     1       0.248  13.204  19.001  0.00  0.00    +0.000 C 
BRANCH  14  15
ATOM     15  C   UNL     1       1.287  14.249  18.662  0.00  0.00    +0.000 A 
ATOM     16  C   UNL     1       2.564  13.867  18.256  0.00  0.00    +0.000 A 
ATOM     17  C   UNL     1       3.492  14.855  17.936  0.00  0.00    +0.000 A 
ATOM     18  C   UNL     1       3.128  16.192  18.039  0.00  0.00    +0.000 A 
ATOM     19  C   UNL     1       1.845  16.488  18.468  0.00  0.00    +0.000 A 
ATOM     20  N   UNL     1       0.921  15.552  18.788  0.00  0.00    +0.000 NA
ENDBRANCH  14  15
ENDBRANCH  12  14
ENDBRANCH   8  10
ENDBRANCH   1   4
BRANCH   1  21
ATOM     21  N   UNL     1       3.823   5.651  17.797  0.00  0.00    +0.000 N 
BRANCH  21  27
ATOM     22  C   UNL     1       6.258   4.986  17.710  0.00  0.00    +0.000 A 
ATOM     23  C   UNL     1       7.330   4.547  16.916  0.00  0.00    +0.000 A 
ATOM     24  C   UNL     1       7.126   4.148  15.593  0.00  0.00    +0.000 A 
ATOM     25  C   UNL     1       5.841   4.133  15.063  0.00  0.00    +0.000 A 
ATOM     26  C   UNL     1       4.770   4.583  15.837  0.00  0.00    +0.000 A 
ATOM     27  C   UNL     1       4.975   5.071  17.136  0.00  0.00    +0.000 A 
BRANCH  22  29
ATOM     28  C   UNL     1       7.666   5.676  19.507  0.00  0.00    +0.000 C 
ATOM     29  O   UNL     1       6.373   5.321  19.035  0.00  0.00    +0.000 OA
ENDBRANCH  22  29
ENDBRANCH  21  27
BRANCH  21  30
ATOM     30  C   UNL     1       2.571   4.864  17.880  0.00  0.00    +0.000 C 
BRANCH  30  31
ATOM     31  C   UNL     1       2.357   3.891  19.033  0.00  0.00    +0.000 A 
ATOM     32  C   UNL     1       3.405   3.287  19.739  0.00  0.00    +0.000 A 
ATOM     33  C   UNL     1       3.161   2.649  20.963  0.00  0.00    +0.000 A 
ATOM     34  C   UNL     1       1.874   2.611  21.499  0.00  0.00    +0.000 A 
ATOM     35  C   UNL     1       0.815   3.167  20.789  0.00  0.00    +0.000 A 
ATOM     36  C   UNL     1       1.055   3.794  19.564  0.00  0.00    +0.000 A 
ENDBRANCH  30  31
ENDBRANCH  21  30
ENDBRANCH   1  21
TORSDOF 9
ENDMDL
