MODEL 1
REMARK VINA RESULT:      -8.6      0.000      0.000
REMARK  Name = 
REMARK  4 active torsions:
REMARK  status: ('A' for Active; 'I' for Inactive)
REMARK    1  A    between atoms: C_2  and  C_3
REMARK    2  A    between atoms: C_3  and  C_4
REMARK    3  A    between atoms: N_15  and  C_16
REMARK    4  A    between atoms: C_22  and  N_23
REMARK                            x       y       z     vdW  Elec       q    Type
REMARK                         _______ _______ _______ _____ _____    ______ ____
ROOT
ATOM      1  O   UNL     1       1.475   6.429  17.610  0.00  0.00    +0.000 OA
ATOM      2  C   UNL     1       2.237   7.084  18.315  0.00  0.00    +0.000 C 
ATOM      3  N   UNL     1       3.079   6.571  19.282  0.00  0.00    +0.000 N 
ATOM      4  H   UNL     1       3.342   7.197  20.033  0.00  0.00    +0.000 HD
ENDROOT
BRANCH   3   5
ATOM      5  C   UNL     1       3.226   5.201  19.569  0.00  0.00    +0.000 A 
ATOM      6  C   UNL     1       2.356   4.616  20.499  0.00  0.00    +0.000 A 
ATOM      7  C   UNL     1       2.500   3.274  20.828  0.00  0.00    +0.000 A 
ATOM      8 CL   UNL     1       1.473   2.558  22.010  0.00  0.00    +0.000 Cl
ATOM      9  C   UNL     1       3.485   2.505  20.222  0.00  0.00    +0.000 A 
ATOM     10  C   UNL     1       4.345   3.091  19.286  0.00  0.00    +0.000 A 
ATOM     11  C   UNL     1       4.260   4.454  18.941  0.00  0.00    +0.000 A 
BRANCH  11  12
ATOM     12  N   UNL     1       5.140   4.984  18.005  0.00  0.00    +0.000 N 
ATOM     13  C   UNL     1       4.829   4.979  16.571  0.00  0.00    +0.000 C 
ATOM     14  C   UNL     1       5.865   4.143  15.822  0.00  0.00    +0.000 C 
ATOM     15  C   UNL     1       7.283   4.623  16.128  0.00  0.00    +0.000 C 
ATOM     16  C   UNL     1       7.532   4.657  17.631  0.00  0.00    +0.000 C 
ATOM     17  C   UNL     1       6.468   5.471  18.364  0.00  0.00    +0.000 C 
ENDBRANCH  11  12
ENDBRANCH   3   5
BRANCH   2  18
ATOM     18  C   UNL     1       2.461   8.582  18.109  0.00  0.00    +0.000 C 
BRANCH  18  19
ATOM     19  C   UNL     1       1.734   9.416  19.113  0.00  0.00    +0.000 A 
ATOM     20  C   UNL     1       1.148   8.911  20.212  0.00  0.00    +0.000 A 
ATOM     21  C   UNL     1       0.412   9.777  21.132  0.00  0.00    +0.000 A 
ATOM     22  C   UNL     1      -0.233   9.263  22.260  0.00  0.00    +0.000 A 
ATOM     23  C   UNL     1      -0.923  10.121  23.120  0.00  0.00    +0.000 A 
ATOM     24  C   UNL     1      -0.965  11.491  22.857  0.00  0.00    +0.000 A 
ATOM     25  C   UNL     1      -0.328  12.011  21.729  0.00  0.00    +0.000 A 
ATOM     26  C   UNL     1       0.354  11.151  20.870  0.00  0.00    +0.000 A 
ATOM     27  N   UNL     1       0.973  11.655  19.719  0.00  0.00    +0.000 N 
ATOM     28  C   UNL     1       1.629  10.874  18.806  0.00  0.00    +0.000 A 
ATOM     29  O   UNL     1       2.093  11.338  17.769  0.00  0.00    +0.000 OA
ATOM     30  H   UNL     1       0.919  12.641  19.504  0.00  0.00    +0.000 HD
ENDBRANCH  18  19
ENDBRANCH   2  18
TORSDOF 4
ENDMDL
MODEL 2
REMARK VINA RESULT:      -8.5      2.279      2.474
REMARK  Name = 
REMARK  4 active torsions:
REMARK  status: ('A' for Active; 'I' for Inactive)
REMARK    1  A    between atoms: C_2  and  C_3
REMARK    2  A    between atoms: C_3  and  C_4
REMARK    3  A    between atoms: N_15  and  C_16
REMARK    4  A    between atoms: C_22  and  N_23
REMARK                            x       y       z     vdW  Elec       q    Type
REMARK                         _______ _______ _______ _____ _____    ______ ____
ROOT
ATOM      1  O   UNL     1       1.942   7.891  19.924  0.00  0.00    +0.000 OA
ATOM      2  C   UNL     1       2.280   7.927  18.744  0.00  0.00    +0.000 C 
ATOM      3  N   UNL     1       2.772   6.863  18.015  0.00  0.00    +0.000 N 
ATOM      4  H   UNL     1       3.364   7.090  17.225  0.00  0.00    +0.000 HD
ENDROOT
BRANCH   3   5
ATOM      5  C   UNL     1       2.914   5.552  18.509  0.00  0.00    +0.000 A 
ATOM      6  C   UNL     1       1.911   5.040  19.343  0.00  0.00    +0.000 A 
ATOM      7  C   UNL     1       2.041   3.762  19.873  0.00  0.00    +0.000 A 
ATOM      8 CL   UNL     1       0.842   3.144  20.943  0.00  0.00    +0.000 Cl
ATOM      9  C   UNL     1       3.147   2.983  19.559  0.00  0.00    +0.000 A 
ATOM     10  C   UNL     1       4.140   3.494  18.717  0.00  0.00    +0.000 A 
ATOM     11  C   UNL     1       4.070   4.794  18.179  0.00  0.00    +0.000 A 
BRANCH  11  12
ATOM     12  N   UNL     1       5.086   5.252  17.348  0.00  0.00    +0.000 N 
ATOM     13  C   UNL     1       4.948   5.234  15.888  0.00  0.00    +0.000 C 
ATOM     14  C   UNL     1       6.014   4.323  15.281  0.00  0.00    +0.000 C 
ATOM     15  C   UNL     1       7.412   4.727  15.748  0.00  0.00    +0.000 C 
ATOM     16  C   UNL     1       7.481   4.779  17.270  0.00  0.00    +0.000 C 
ATOM     17  C   UNL     1       6.389   5.669  17.857  0.00  0.00    +0.000 C 
ENDBRANCH  11  12
ENDBRANCH   3   5
BRANCH   2  18
ATOM     18  C   UNL     1       2.059   9.159  17.866  0.00  0.00    +0.000 C 
BRANCH  18  19
ATOM     19  C   UNL     1       0.759   9.840  18.148  0.00  0.00    +0.000 A 
ATOM     20  C   UNL     1      -0.421   9.416  17.665  0.00  0.00    +0.000 A 
ATOM     21  C   UNL     1      -1.651  10.156  17.942  0.00  0.00    +0.000 A 
ATOM     22  C   UNL     1      -2.881   9.750  17.419  0.00  0.00    +0.000 A 
ATOM     23  C   UNL     1      -4.037  10.478  17.709  0.00  0.00    +0.000 A 
ATOM     24  C   UNL     1      -3.967  11.609  18.524  0.00  0.00    +0.000 A 
ATOM     25  C   UNL     1      -2.741  12.025  19.046  0.00  0.00    +0.000 A 
ATOM     26  C   UNL     1      -1.589  11.299  18.749  0.00  0.00    +0.000 A 
ATOM     27  N   UNL     1      -0.347  11.721  19.243  0.00  0.00    +0.000 N 
ATOM     28  C   UNL     1       0.834  11.088  18.967  0.00  0.00    +0.000 A 
ATOM     29  O   UNL     1       1.913  11.529  19.351  0.00  0.00    +0.000 OA
ATOM     30  H   UNL     1      -0.283  12.557  19.806  0.00  0.00    +0.000 HD
ENDBRANCH  18  19
ENDBRANCH   2  18
TORSDOF 4
ENDMDL
MODEL 3
REMARK VINA RESULT:      -8.4      3.289      4.851
REMARK  Name = 
REMARK  4 active torsions:
REMARK  status: ('A' for Active; 'I' for Inactive)
REMARK    1  A    between atoms: C_2  and  C_3
REMARK    2  A    between atoms: C_3  and  C_4
REMARK    3  A    between atoms: N_15  and  C_16
REMARK    4  A    between atoms: C_22  and  N_23
REMARK                            x       y       z     vdW  Elec       q    Type
REMARK                         _______ _______ _______ _____ _____    ______ ____
ROOT
ATOM      1  O   UNL     1       2.227   8.922  17.168  0.00  0.00    +0.000 OA
ATOM      2  C   UNL     1       2.003   8.570  18.323  0.00  0.00    +0.000 C 
ATOM      3  N   UNL     1       2.383   7.369  18.886  0.00  0.00    +0.000 N 
ATOM      4  H   UNL     1       1.827   7.036  19.664  0.00  0.00    +0.000 HD
ENDROOT
BRANCH   3   5
ATOM      5  C   UNL     1       3.137   6.379  18.226  0.00  0.00    +0.000 A 
ATOM      6  C   UNL     1       4.070   6.782  17.261  0.00  0.00    +0.000 A 
ATOM      7  C   UNL     1       4.804   5.825  16.571  0.00  0.00    +0.000 A 
ATOM      8 CL   UNL     1       5.913   6.305  15.345  0.00  0.00    +0.000 Cl
ATOM      9  C   UNL     1       4.633   4.475  16.850  0.00  0.00    +0.000 A 
ATOM     10  C   UNL     1       3.708   4.079  17.821  0.00  0.00    +0.000 A 
ATOM     11  C   UNL     1       2.919   5.007  18.528  0.00  0.00    +0.000 A 
BRANCH  11  12
ATOM     12  N   UNL     1       2.015   4.557  19.483  0.00  0.00    +0.000 N 
ATOM     13  C   UNL     1       2.155   4.913  20.899  0.00  0.00    +0.000 C 
ATOM     14  C   UNL     1       2.367   3.648  21.729  0.00  0.00    +0.000 C 
ATOM     15  C   UNL     1       1.256   2.631  21.472  0.00  0.00    +0.000 C 
ATOM     16  C   UNL     1       1.122   2.339  19.982  0.00  0.00    +0.000 C 
ATOM     17  C   UNL     1       0.943   3.618  19.168  0.00  0.00    +0.000 C 
ENDBRANCH  11  12
ENDBRANCH   3   5
BRANCH   2  18
ATOM     18  C   UNL     1       1.377   9.506  19.358  0.00  0.00    +0.000 C 
BRANCH  18  19
ATOM     19  C   UNL     1       0.032  10.006  18.942  0.00  0.00    +0.000 A 
ATOM     20  C   UNL     1      -0.555   9.677  17.779  0.00  0.00    +0.000 A 
ATOM     21  C   UNL     1      -1.854  10.238  17.413  0.00  0.00    +0.000 A 
ATOM     22  C   UNL     1      -2.463   9.935  16.191  0.00  0.00    +0.000 A 
ATOM     23  C   UNL     1      -3.707  10.485  15.877  0.00  0.00    +0.000 A 
ATOM     24  C   UNL     1      -4.347  11.335  16.781  0.00  0.00    +0.000 A 
ATOM     25  C   UNL     1      -3.742  11.647  18.000  0.00  0.00    +0.000 A 
ATOM     26  C   UNL     1      -2.498  11.101  18.308  0.00  0.00    +0.000 A 
ATOM     27  N   UNL     1      -1.867  11.429  19.515  0.00  0.00    +0.000 N 
ATOM     28  C   UNL     1      -0.630  10.966  19.875  0.00  0.00    +0.000 A 
ATOM     29  O   UNL     1      -0.073  11.335  20.905  0.00  0.00    +0.000 OA
ATOM     30  H   UNL     1      -2.308  12.069  20.161  0.00  0.00    +0.000 HD
ENDBRANCH  18  19
ENDBRANCH   2  18
TORSDOF 4
ENDMDL
MODEL 4
REMARK VINA RESULT:      -8.4      0.738      1.257
REMARK  Name = 
REMARK  4 active torsions:
REMARK  status: ('A' for Active; 'I' for Inactive)
REMARK    1  A    between atoms: C_2  and  C_3
REMARK    2  A    between atoms: C_3  and  C_4
REMARK    3  A    between atoms: N_15  and  C_16
REMARK    4  A    between atoms: C_22  and  N_23
REMARK                            x       y       z     vdW  Elec       q    Type
REMARK                         _______ _______ _______ _____ _____    ______ ____
ROOT
ATOM      1  O   UNL     1       1.598   5.883  17.705  0.00  0.00    +0.000 OA
ATOM      2  C   UNL     1       2.388   6.569  18.347  0.00  0.00    +0.000 C 
ATOM      3  N   UNL     1       3.244   6.106  19.326  0.00  0.00    +0.000 N 
ATOM      4  H   UNL     1       3.536   6.776  20.028  0.00  0.00    +0.000 HD
ENDROOT
BRANCH   3   5
ATOM      5  C   UNL     1       3.375   4.756  19.702  0.00  0.00    +0.000 A 
ATOM      6  C   UNL     1       2.457   4.225  20.619  0.00  0.00    +0.000 A 
ATOM      7  C   UNL     1       2.582   2.905  21.034  0.00  0.00    +0.000 A 
ATOM      8 CL   UNL     1       1.494   2.259  22.201  0.00  0.00    +0.000 Cl
ATOM      9  C   UNL     1       3.597   2.104  20.526  0.00  0.00    +0.000 A 
ATOM     10  C   UNL     1       4.505   2.635  19.603  0.00  0.00    +0.000 A 
ATOM     11  C   UNL     1       4.439   3.975  19.173  0.00  0.00    +0.000 A 
BRANCH  11  12
ATOM     12  N   UNL     1       5.367   4.450  18.255  0.00  0.00    +0.000 N 
ATOM     13  C   UNL     1       6.562   5.184  18.683  0.00  0.00    +0.000 C 
ATOM     14  C   UNL     1       6.530   6.600  18.109  0.00  0.00    +0.000 C 
ATOM     15  C   UNL     1       6.353   6.573  16.592  0.00  0.00    +0.000 C 
ATOM     16  C   UNL     1       5.127   5.754  16.203  0.00  0.00    +0.000 C 
ATOM     17  C   UNL     1       5.164   4.355  16.812  0.00  0.00    +0.000 C 
ENDBRANCH  11  12
ENDBRANCH   3   5
BRANCH   2  18
ATOM     18  C   UNL     1       2.633   8.045  18.036  0.00  0.00    +0.000 C 
BRANCH  18  19
ATOM     19  C   UNL     1       1.906   8.958  18.969  0.00  0.00    +0.000 A 
ATOM     20  C   UNL     1       1.358   8.552  20.128  0.00  0.00    +0.000 A 
ATOM     21  C   UNL     1       0.621   9.488  20.974  0.00  0.00    +0.000 A 
ATOM     22  C   UNL     1       0.015   9.076  22.163  0.00  0.00    +0.000 A 
ATOM     23  C   UNL     1      -0.678   9.998  22.950  0.00  0.00    +0.000 A 
ATOM     24  C   UNL     1      -0.764  11.334  22.552  0.00  0.00    +0.000 A 
ATOM     25  C   UNL     1      -0.166  11.753  21.362  0.00  0.00    +0.000 A 
ATOM     26  C   UNL     1       0.519  10.827  20.577  0.00  0.00    +0.000 A 
ATOM     27  N   UNL     1       1.099  11.228  19.366  0.00  0.00    +0.000 N 
ATOM     28  C   UNL     1       1.755  10.375  18.520  0.00  0.00    +0.000 A 
ATOM     29  O   UNL     1       2.183  10.743  17.430  0.00  0.00    +0.000 OA
ATOM     30  H   UNL     1       1.014  12.185  19.054  0.00  0.00    +0.000 HD
ENDBRANCH  18  19
ENDBRANCH   2  18
TORSDOF 4
ENDMDL
MODEL 5
REMARK VINA RESULT:      -8.3      3.166      8.148
REMARK  Name = 
REMARK  4 active torsions:
REMARK  status: ('A' for Active; 'I' for Inactive)
REMARK    1  A    between atoms: C_2  and  C_3
REMARK    2  A    between atoms: C_3  and  C_4
REMARK    3  A    between atoms: N_15  and  C_16
REMARK    4  A    between atoms: C_22  and  N_23
REMARK                            x       y       z     vdW  Elec       q    Type
REMARK                         _______ _______ _______ _____ _____    ______ ____
ROOT
ATOM      1  O   UNL     1       1.491   8.611  19.688  0.00  0.00    +0.000 OA
ATOM      2  C   UNL     1       1.754   8.881  18.519  0.00  0.00    +0.000 C 
ATOM      3  N   UNL     1       1.038   9.742  17.712  0.00  0.00    +0.000 N 
ATOM      4  H   UNL     1       1.099   9.584  16.714  0.00  0.00    +0.000 HD
ENDROOT
BRANCH   3   5
ATOM      5  C   UNL     1      -0.083  10.485  18.130  0.00  0.00    +0.000 A 
ATOM      6  C   UNL     1      -1.360  10.005  17.810  0.00  0.00    +0.000 A 
ATOM      7  C   UNL     1      -2.483  10.735  18.180  0.00  0.00    +0.000 A 
ATOM      8 CL   UNL     1      -4.054  10.184  17.744  0.00  0.00    +0.000 Cl
ATOM      9  C   UNL     1      -2.345  11.923  18.885  0.00  0.00    +0.000 A 
ATOM     10  C   UNL     1      -1.068  12.393  19.212  0.00  0.00    +0.000 A 
ATOM     11  C   UNL     1       0.102  11.706  18.834  0.00  0.00    +0.000 A 
BRANCH  11  12
ATOM     12  N   UNL     1       1.345  12.218  19.185  0.00  0.00    +0.000 N 
ATOM     13  C   UNL     1       1.710  12.450  20.587  0.00  0.00    +0.000 C 
ATOM     14  C   UNL     1       1.975  13.939  20.810  0.00  0.00    +0.000 C 
ATOM     15  C   UNL     1       3.016  14.465  19.822  0.00  0.00    +0.000 C 
ATOM     16  C   UNL     1       2.610  14.150  18.387  0.00  0.00    +0.000 C 
ATOM     17  C   UNL     1       2.320  12.664  18.194  0.00  0.00    +0.000 C 
ENDBRANCH  11  12
ENDBRANCH   3   5
BRANCH   2  18
ATOM     18  C   UNL     1       3.029   8.391  17.832  0.00  0.00    +0.000 C 
BRANCH  18  19
ATOM     19  C   UNL     1       3.136   6.901  17.815  0.00  0.00    +0.000 A 
ATOM     20  C   UNL     1       2.127   6.080  18.151  0.00  0.00    +0.000 A 
ATOM     21  C   UNL     1       2.313   4.630  18.156  0.00  0.00    +0.000 A 
ATOM     22  C   UNL     1       1.285   3.764  18.537  0.00  0.00    +0.000 A 
ATOM     23  C   UNL     1       1.496   2.383  18.526  0.00  0.00    +0.000 A 
ATOM     24  C   UNL     1       2.732   1.866  18.131  0.00  0.00    +0.000 A 
ATOM     25  C   UNL     1       3.765   2.726  17.754  0.00  0.00    +0.000 A 
ATOM     26  C   UNL     1       3.552   4.104  17.773  0.00  0.00    +0.000 A 
ATOM     27  N   UNL     1       4.590   4.979  17.426  0.00  0.00    +0.000 N 
ATOM     28  C   UNL     1       4.474   6.342  17.455  0.00  0.00    +0.000 A 
ATOM     29  O   UNL     1       5.426   7.080  17.220  0.00  0.00    +0.000 OA
ATOM     30  H   UNL     1       5.497   4.614  17.170  0.00  0.00    +0.000 HD
ENDBRANCH  18  19
ENDBRANCH   2  18
TORSDOF 4
ENDMDL
MODEL 6
REMARK VINA RESULT:      -8.2      2.108      2.505
REMARK  Name = 
REMARK  4 active torsions:
REMARK  status: ('A' for Active; 'I' for Inactive)
REMARK    1  A    between atoms: C_2  and  C_3
REMARK    2  A    between atoms: C_3  and  C_4
REMARK    3  A    between atoms: N_15  and  C_16
REMARK    4  A    between atoms: C_22  and  N_23
REMARK                            x       y       z     vdW  Elec       q    Type
REMARK                         _______ _______ _______ _____ _____    ______ ____
ROOT
ATOM      1  O   UNL     1       1.548   6.537  17.762  0.00  0.00    +0.000 OA
ATOM      2  C   UNL     1       2.156   7.182  18.613  0.00  0.00    +0.000 C 
ATOM      3  N   UNL     1       2.902   6.649  19.645  0.00  0.00    +0.000 N 
ATOM      4  H   UNL     1       3.012   7.226  20.470  0.00  0.00    +0.000 HD
ENDROOT
BRANCH   3   5
ATOM      5  C   UNL     1       3.120   5.273  19.847  0.00  0.00    +0.000 A 
ATOM      6  C   UNL     1       2.254   4.577  20.701  0.00  0.00    +0.000 A 
ATOM      7  C   UNL     1       2.466   3.226  20.946  0.00  0.00    +0.000 A 
ATOM      8 CL   UNL     1       1.441   2.374  22.036  0.00  0.00    +0.000 Cl
ATOM      9  C   UNL     1       3.516   2.558  20.330  0.00  0.00    +0.000 A 
ATOM     10  C   UNL     1       4.372   3.254  19.470  0.00  0.00    +0.000 A 
ATOM     11  C   UNL     1       4.218   4.631  19.212  0.00  0.00    +0.000 A 
BRANCH  11  12
ATOM     12  N   UNL     1       5.097   5.273  18.348  0.00  0.00    +0.000 N 
ATOM     13  C   UNL     1       4.764   5.490  16.936  0.00  0.00    +0.000 C 
ATOM     14  C   UNL     1       5.766   4.749  16.051  0.00  0.00    +0.000 C 
ATOM     15  C   UNL     1       7.201   5.144  16.398  0.00  0.00    +0.000 C 
ATOM     16  C   UNL     1       7.474   4.947  17.885  0.00  0.00    +0.000 C 
ATOM     17  C   UNL     1       6.444   5.669  18.750  0.00  0.00    +0.000 C 
ENDBRANCH  11  12
ENDBRANCH   3   5
BRANCH   2  18
ATOM     18  C   UNL     1       2.283   8.704  18.552  0.00  0.00    +0.000 C 
BRANCH  18  19
ATOM     19  C   UNL     1       0.959   9.395  18.617  0.00  0.00    +0.000 A 
ATOM     20  C   UNL     1       0.089   9.430  17.593  0.00  0.00    +0.000 A 
ATOM     21  C   UNL     1      -1.170  10.162  17.708  0.00  0.00    +0.000 A 
ATOM     22  C   UNL     1      -2.070  10.239  16.642  0.00  0.00    +0.000 A 
ATOM     23  C   UNL     1      -3.267  10.944  16.788  0.00  0.00    +0.000 A 
ATOM     24  C   UNL     1      -3.568  11.569  18.000  0.00  0.00    +0.000 A 
ATOM     25  C   UNL     1      -2.672  11.501  19.068  0.00  0.00    +0.000 A 
ATOM     26  C   UNL     1      -1.475  10.803  18.915  0.00  0.00    +0.000 A 
ATOM     27  N   UNL     1      -0.554  10.751  19.970  0.00  0.00    +0.000 N 
ATOM     28  C   UNL     1       0.657  10.119  19.888  0.00  0.00    +0.000 A 
ATOM     29  O   UNL     1       1.474  10.161  20.803  0.00  0.00    +0.000 OA
ATOM     30  H   UNL     1      -0.750  11.228  20.839  0.00  0.00    +0.000 HD
ENDBRANCH  18  19
ENDBRANCH   2  18
TORSDOF 4
ENDMDL
MODEL 7
REMARK VINA RESULT:      -8.1      3.295      8.005
REMARK  Name = 
REMARK  4 active torsions:
REMARK  status: ('A' for Active; 'I' for Inactive)
REMARK    1  A    between atoms: C_2  and  C_3
REMARK    2  A    between atoms: C_3  and  C_4
REMARK    3  A    between atoms: N_15  and  C_16
REMARK    4  A    between atoms: C_22  and  N_23
REMARK                            x       y       z     vdW  Elec       q    Type
REMARK                         _______ _______ _______ _____ _____    ______ ____
ROOT
ATOM      1  O   UNL     1      -0.257   8.869  21.407  0.00  0.00    +0.000 OA
ATOM      2  C   UNL     1       0.661   8.803  20.594  0.00  0.00    +0.000 C 
ATOM      3  N   UNL     1       0.741   9.510  19.411  0.00  0.00    +0.000 N 
ATOM      4  H   UNL     1       1.301   9.099  18.674  0.00  0.00    +0.000 HD
ENDROOT
BRANCH   3   5
ATOM      5  C   UNL     1      -0.206  10.459  18.980  0.00  0.00    +0.000 A 
ATOM      6  C   UNL     1      -1.487  10.013  18.628  0.00  0.00    +0.000 A 
ATOM      7  C   UNL     1      -2.431  10.923  18.167  0.00  0.00    +0.000 A 
ATOM      8 CL   UNL     1      -3.990  10.380  17.680  0.00  0.00    +0.000 Cl
ATOM      9  C   UNL     1      -2.117  12.273  18.078  0.00  0.00    +0.000 A 
ATOM     10  C   UNL     1      -0.840  12.715  18.441  0.00  0.00    +0.000 A 
ATOM     11  C   UNL     1       0.161  11.829  18.886  0.00  0.00    +0.000 A 
BRANCH  11  12
ATOM     12  N   UNL     1       1.413  12.323  19.233  0.00  0.00    +0.000 N 
ATOM     13  C   UNL     1       1.707  12.775  20.597  0.00  0.00    +0.000 C 
ATOM     14  C   UNL     1       2.060  14.262  20.582  0.00  0.00    +0.000 C 
ATOM     15  C   UNL     1       3.192  14.547  19.597  0.00  0.00    +0.000 C 
ATOM     16  C   UNL     1       2.854  14.009  18.211  0.00  0.00    +0.000 C 
ATOM     17  C   UNL     1       2.474  12.532  18.253  0.00  0.00    +0.000 C 
ENDBRANCH  11  12
ENDBRANCH   3   5
BRANCH   2  18
ATOM     18  C   UNL     1       1.941   8.011  20.865  0.00  0.00    +0.000 C 
BRANCH  18  19
ATOM     19  C   UNL     1       2.026   6.760  20.052  0.00  0.00    +0.000 A 
ATOM     20  C   UNL     1       1.664   5.550  20.512  0.00  0.00    +0.000 A 
ATOM     21  C   UNL     1       1.816   4.359  19.679  0.00  0.00    +0.000 A 
ATOM     22  C   UNL     1       1.479   3.088  20.154  0.00  0.00    +0.000 A 
ATOM     23  C   UNL     1       1.632   1.972  19.328  0.00  0.00    +0.000 A 
ATOM     24  C   UNL     1       2.118   2.123  18.028  0.00  0.00    +0.000 A 
ATOM     25  C   UNL     1       2.462   3.389  17.549  0.00  0.00    +0.000 A 
ATOM     26  C   UNL     1       2.314   4.499  18.378  0.00  0.00    +0.000 A 
ATOM     27  N   UNL     1       2.683   5.771  17.919  0.00  0.00    +0.000 N 
ATOM     28  C   UNL     1       2.604   6.904  18.682  0.00  0.00    +0.000 A 
ATOM     29  O   UNL     1       3.009   7.989  18.277  0.00  0.00    +0.000 OA
ATOM     30  H   UNL     1       3.066   5.884  16.991  0.00  0.00    +0.000 HD
ENDBRANCH  18  19
ENDBRANCH   2  18
TORSDOF 4
ENDMDL
MODEL 8
REMARK VINA RESULT:      -8.0      2.293      2.703
REMARK  Name = 
REMARK  4 active torsions:
REMARK  status: ('A' for Active; 'I' for Inactive)
REMARK    1  A    between atoms: C_2  and  C_3
REMARK    2  A    between atoms: C_3  and  C_4
REMARK    3  A    between atoms: N_15  and  C_16
REMARK    4  A    between atoms: C_22  and  N_23
REMARK                            x       y       z     vdW  Elec       q    Type
REMARK                         _______ _______ _______ _____ _____    ______ ____
ROOT
ATOM      1  O   UNL     1       2.004   7.837  19.899  0.00  0.00    +0.000 OA
ATOM      2  C   UNL     1       2.397   7.803  18.736  0.00  0.00    +0.000 C 
ATOM      3  N   UNL     1       2.968   6.713  18.111  0.00  0.00    +0.000 N 
ATOM      4  H   UNL     1       3.587   6.909  17.334  0.00  0.00    +0.000 HD
ENDROOT
BRANCH   3   5
ATOM      5  C   UNL     1       3.141   5.449  18.706  0.00  0.00    +0.000 A 
ATOM      6  C   UNL     1       2.076   4.901  19.433  0.00  0.00    +0.000 A 
ATOM      7  C   UNL     1       2.230   3.671  20.060  0.00  0.00    +0.000 A 
ATOM      8 CL   UNL     1       0.947   3.014  21.001  0.00  0.00    +0.000 Cl
ATOM      9  C   UNL     1       3.425   2.972  19.949  0.00  0.00    +0.000 A 
ATOM     10  C   UNL     1       4.482   3.518  19.213  0.00  0.00    +0.000 A 
ATOM     11  C   UNL     1       4.387   4.775  18.584  0.00  0.00    +0.000 A 
BRANCH  11  12
ATOM     12  N   UNL     1       5.469   5.270  17.866  0.00  0.00    +0.000 N 
ATOM     13  C   UNL     1       6.849   4.918  18.219  0.00  0.00    +0.000 C 
ATOM     14  C   UNL     1       7.616   6.178  18.615  0.00  0.00    +0.000 C 
ATOM     15  C   UNL     1       7.529   7.241  17.521  0.00  0.00    +0.000 C 
ATOM     16  C   UNL     1       6.076   7.528  17.159  0.00  0.00    +0.000 C 
ATOM     17  C   UNL     1       5.319   6.253  16.797  0.00  0.00    +0.000 C 
ENDBRANCH  11  12
ENDBRANCH   3   5
BRANCH   2  18
ATOM     18  C   UNL     1       2.167   8.957  17.760  0.00  0.00    +0.000 C 
BRANCH  18  19
ATOM     19  C   UNL     1       0.904   9.705  18.041  0.00  0.00    +0.000 A 
ATOM     20  C   UNL     1      -0.309   9.290  17.638  0.00  0.00    +0.000 A 
ATOM     21  C   UNL     1      -1.501  10.093  17.907  0.00  0.00    +0.000 A 
ATOM     22  C   UNL     1      -2.765   9.695  17.464  0.00  0.00    +0.000 A 
ATOM     23  C   UNL     1      -3.883  10.484  17.744  0.00  0.00    +0.000 A 
ATOM     24  C   UNL     1      -3.741  11.669  18.469  0.00  0.00    +0.000 A 
ATOM     25  C   UNL     1      -2.480  12.076  18.910  0.00  0.00    +0.000 A 
ATOM     26  C   UNL     1      -1.366  11.289  18.623  0.00  0.00    +0.000 A 
ATOM     27  N   UNL     1      -0.092  11.700  19.035  0.00  0.00    +0.000 N 
ATOM     28  C   UNL     1       1.055  11.005  18.761  0.00  0.00    +0.000 A 
ATOM     29  O   UNL     1       2.163  11.434  19.068  0.00  0.00    +0.000 OA
ATOM     30  H   UNL     1       0.024  12.572  19.532  0.00  0.00    +0.000 HD
ENDBRANCH  18  19
ENDBRANCH   2  18
TORSDOF 4
ENDMDL
MODEL 9
REMARK VINA RESULT:      -8.0      2.571      3.074
REMARK  Name = 
REMARK  4 active torsions:
REMARK  status: ('A' for Active; 'I' for Inactive)
REMARK    1  A    between atoms: C_2  and  C_3
REMARK    2  A    between atoms: C_3  and  C_4
REMARK    3  A    between atoms: N_15  and  C_16
REMARK    4  A    between atoms: C_22  and  N_23
REMARK                            x       y       z     vdW  Elec       q    Type
REMARK                         _______ _______ _______ _____ _____    ______ ____
ROOT
ATOM      1  O   UNL     1       1.982   7.089  19.834  0.00  0.00    +0.000 OA
ATOM      2  C   UNL     1       2.450   7.463  18.763  0.00  0.00    +0.000 C 
ATOM      3  N   UNL     1       2.957   6.643  17.776  0.00  0.00    +0.000 N 
ATOM      4  H   UNL     1       3.644   7.052  17.155  0.00  0.00    +0.000 HD
ENDROOT
BRANCH   3   5
ATOM      5  C   UNL     1       2.966   5.236  17.831  0.00  0.00    +0.000 A 
ATOM      6  C   UNL     1       1.790   4.574  18.208  0.00  0.00    +0.000 A 
ATOM      7  C   UNL     1       1.781   3.188  18.304  0.00  0.00    +0.000 A 
ATOM      8 CL   UNL     1       0.358   2.367  18.820  0.00  0.00    +0.000 Cl
ATOM      9  C   UNL     1       2.923   2.457  18.005  0.00  0.00    +0.000 A 
ATOM     10  C   UNL     1       4.092   3.121  17.618  0.00  0.00    +0.000 A 
ATOM     11  C   UNL     1       4.162   4.526  17.534  0.00  0.00    +0.000 A 
BRANCH  11  12
ATOM     12  N   UNL     1       5.349   5.134  17.145  0.00  0.00    +0.000 N 
ATOM     13  C   UNL     1       6.647   4.680  17.657  0.00  0.00    +0.000 C 
ATOM     14  C   UNL     1       7.312   5.808  18.445  0.00  0.00    +0.000 C 
ATOM     15  C   UNL     1       7.410   7.080  17.605  0.00  0.00    +0.000 C 
ATOM     16  C   UNL     1       6.042   7.475  17.057  0.00  0.00    +0.000 C 
ATOM     17  C   UNL     1       5.382   6.325  16.301  0.00  0.00    +0.000 C 
ENDBRANCH  11  12
ENDBRANCH   3   5
BRANCH   2  18
ATOM     18  C   UNL     1       2.399   8.924  18.313  0.00  0.00    +0.000 C 
BRANCH  18  19
ATOM     19  C   UNL     1       1.024   9.504  18.397  0.00  0.00    +0.000 A 
ATOM     20  C   UNL     1       0.091   9.340  17.444  0.00  0.00    +0.000 A 
ATOM     21  C   UNL     1      -1.221   9.973  17.567  0.00  0.00    +0.000 A 
ATOM     22  C   UNL     1      -2.191   9.843  16.570  0.00  0.00    +0.000 A 
ATOM     23  C   UNL     1      -3.436  10.457  16.723  0.00  0.00    +0.000 A 
ATOM     24  C   UNL     1      -3.715  11.199  17.872  0.00  0.00    +0.000 A 
ATOM     25  C   UNL     1      -2.749  11.338  18.870  0.00  0.00    +0.000 A 
ATOM     26  C   UNL     1      -1.506  10.729  18.711  0.00  0.00    +0.000 A 
ATOM     27  N   UNL     1      -0.517  10.884  19.692  0.00  0.00    +0.000 N 
ATOM     28  C   UNL     1       0.739  10.351  19.594  0.00  0.00    +0.000 A 
ATOM     29  O   UNL     1       1.606  10.572  20.434  0.00  0.00    +0.000 OA
ATOM     30  H   UNL     1      -0.700  11.446  20.512  0.00  0.00    +0.000 HD
ENDBRANCH  18  19
ENDBRANCH   2  18
TORSDOF 4
ENDMDL
