MODEL 1
REMARK VINA RESULT:      -8.6      0.000      0.000
REMARK  Name = 
REMARK  8 active torsions:
REMARK  status: ('A' for Active; 'I' for Inactive)
REMARK    1  A    between atoms: C_2  and  C_3
REMARK    2  A    between atoms: C_2  and  C_10
REMARK    3  A    between atoms: C_3  and  C_4
REMARK    4  A    between atoms: N_8  and  C_9
REMARK    5  A    between atoms: C_14  and  N_15
REMARK    6  A    between atoms: C_20  and  N_21
REMARK    7  A    between atoms: N_21  and  C_22
REMARK    8  A    between atoms: C_24  and  C_25
REMARK                            x       y       z     vdW  Elec       q    Type
REMARK                         _______ _______ _______ _____ _____    ______ ____
ROOT
ATOM      1  N   UNL     1       3.821   4.924  19.396  0.00  0.00    +0.000 N 
ATOM      2  C   UNL     1       5.178   5.528  19.432  0.00  0.00    +0.000 C 
ATOM      3  C   UNL     1       5.749   5.126  18.109  0.00  0.00    +0.000 A 
ATOM      4  C   UNL     1       5.085   3.976  17.692  0.00  0.00    +0.000 A 
ATOM      5  C   UNL     1       5.245   3.421  16.432  0.00  0.00    +0.000 A 
ATOM      6  C   UNL     1       6.132   4.030  15.540  0.00  0.00    +0.000 A 
ATOM      7  C   UNL     1       6.789   5.215  15.958  0.00  0.00    +0.000 A 
ATOM      8  C   UNL     1       6.623   5.780  17.244  0.00  0.00    +0.000 A 
ATOM      9  C   UNL     1       3.944   3.751  18.605  0.00  0.00    +0.000 C 
ATOM     10  O   UNL     1       3.158   2.827  18.498  0.00  0.00    +0.000 OA
ENDROOT
BRANCH   1  15
ATOM     11  C   UNL     1       1.923   8.010  19.589  0.00  0.00    +0.000 A 
ATOM     12  C   UNL     1       2.424   8.577  18.414  0.00  0.00    +0.000 A 
ATOM     13  C   UNL     1       2.886   7.753  17.400  0.00  0.00    +0.000 A 
ATOM     14  C   UNL     1       2.981   6.386  17.612  0.00  0.00    +0.000 A 
ATOM     15  C   UNL     1       2.844   5.893  18.914  0.00  0.00    +0.000 A 
ATOM     16  C   UNL     1       2.148   6.659  19.857  0.00  0.00    +0.000 A 
BRANCH  11  18
ATOM     17  C   UNL     1       1.177   8.621  21.815  0.00  0.00    +0.000 C 
ATOM     18  C   UNL     1       1.175   8.871  20.502  0.00  0.00    +0.000 C 
BRANCH  18  19
ATOM     19  C   UNL     1       0.483  10.042  19.829  0.00  0.00    +0.000 C 
BRANCH  19  20
ATOM     20  C   UNL     1       0.895  11.406  20.316  0.00  0.00    +0.000 A 
ATOM     21  N   UNL     1       0.563  11.936  21.477  0.00  0.00    +0.000 NA
ATOM     22  N   UNL     1       1.099  13.190  21.554  0.00  0.00    +0.000 NA
ATOM     23  C   UNL     1       1.742  13.415  20.439  0.00  0.00    +0.000 A 
ATOM     24  N   UNL     1       1.670  12.319  19.635  0.00  0.00    +0.000 N 
ATOM     25  C   UNL     1       2.285  12.208  18.338  0.00  0.00    +0.000 C 
ENDBRANCH  19  20
ENDBRANCH  18  19
ENDBRANCH  11  18
ENDBRANCH   1  15
BRANCH   8  26
ATOM     26  C   UNL     1       7.299   7.085  17.572  0.00  0.00    +0.000 C 
ATOM     27  F   UNL     1       8.144   7.534  16.605  0.00  0.00    +0.000 F 
ATOM     28  F   UNL     1       6.399   8.087  17.768  0.00  0.00    +0.000 F 
ATOM     29  F   UNL     1       8.038   7.021  18.712  0.00  0.00    +0.000 F 
ENDBRANCH   8  26
BRANCH   6  30
ATOM     30  N   UNL     1       6.236   3.655  14.197  0.00  0.00    +0.000 N 
ATOM     31  C   UNL     1       6.992   4.475  13.262  0.00  0.00    +0.000 C 
ATOM     32  H   UNL     1       5.345   3.361  13.802  0.00  0.00    +0.000 HD
ENDBRANCH   6  30
TORSDOF 6
ENDMDL
MODEL 2
REMARK VINA RESULT:      -8.4      0.615      1.313
REMARK  Name = 
REMARK  8 active torsions:
REMARK  status: ('A' for Active; 'I' for Inactive)
REMARK    1  A    between atoms: C_2  and  C_3
REMARK    2  A    between atoms: C_2  and  C_10
REMARK    3  A    between atoms: C_3  and  C_4
REMARK    4  A    between atoms: N_8  and  C_9
REMARK    5  A    between atoms: C_14  and  N_15
REMARK    6  A    between atoms: C_20  and  N_21
REMARK    7  A    between atoms: N_21  and  C_22
REMARK    8  A    between atoms: C_24  and  C_25
REMARK                            x       y       z     vdW  Elec       q    Type
REMARK                         _______ _______ _______ _____ _____    ______ ____
ROOT
ATOM      1  N   UNL     1       3.844   4.896  19.421  0.00  0.00    +0.000 N 
ATOM      2  C   UNL     1       5.200   5.501  19.458  0.00  0.00    +0.000 C 
ATOM      3  C   UNL     1       5.769   5.110  18.131  0.00  0.00    +0.000 A 
ATOM      4  C   UNL     1       5.106   3.963  17.706  0.00  0.00    +0.000 A 
ATOM      5  C   UNL     1       5.264   3.420  16.441  0.00  0.00    +0.000 A 
ATOM      6  C   UNL     1       6.148   4.037  15.552  0.00  0.00    +0.000 A 
ATOM      7  C   UNL     1       6.805   5.219  15.979  0.00  0.00    +0.000 A 
ATOM      8  C   UNL     1       6.640   5.773  17.270  0.00  0.00    +0.000 A 
ATOM      9  C   UNL     1       3.967   3.730  18.619  0.00  0.00    +0.000 C 
ATOM     10  O   UNL     1       3.182   2.805  18.506  0.00  0.00    +0.000 OA
ENDROOT
BRANCH   1  15
ATOM     11  C   UNL     1       1.920   7.962  19.658  0.00  0.00    +0.000 A 
ATOM     12  C   UNL     1       2.429   8.559  18.501  0.00  0.00    +0.000 A 
ATOM     13  C   UNL     1       2.909   7.760  17.475  0.00  0.00    +0.000 A 
ATOM     14  C   UNL     1       3.012   6.390  17.659  0.00  0.00    +0.000 A 
ATOM     15  C   UNL     1       2.865   5.867  18.948  0.00  0.00    +0.000 A 
ATOM     16  C   UNL     1       2.152   6.608  19.900  0.00  0.00    +0.000 A 
BRANCH  11  18
ATOM     17  C   UNL     1       1.295   8.644  21.901  0.00  0.00    +0.000 C 
ATOM     18  C   UNL     1       1.155   8.797  20.581  0.00  0.00    +0.000 C 
BRANCH  18  19
ATOM     19  C   UNL     1       0.276   9.833  19.903  0.00  0.00    +0.000 C 
BRANCH  19  20
ATOM     20  C   UNL     1       0.611  11.268  20.210  0.00  0.00    +0.000 A 
ATOM     21  N   UNL     1       1.453  12.020  19.528  0.00  0.00    +0.000 NA
ATOM     22  N   UNL     1       1.515  13.251  20.117  0.00  0.00    +0.000 NA
ATOM     23  C   UNL     1       0.722  13.235  21.154  0.00  0.00    +0.000 A 
ATOM     24  N   UNL     1       0.106  12.024  21.245  0.00  0.00    +0.000 N 
ATOM     25  C   UNL     1      -0.852  11.663  22.257  0.00  0.00    +0.000 C 
ENDBRANCH  19  20
ENDBRANCH  18  19
ENDBRANCH  11  18
ENDBRANCH   1  15
BRANCH   8  26
ATOM     26  C   UNL     1       7.315   7.076  17.608  0.00  0.00    +0.000 C 
ATOM     27  F   UNL     1       8.085   7.032  18.730  0.00  0.00    +0.000 F 
ATOM     28  F   UNL     1       8.144   7.490  16.611  0.00  0.00    +0.000 F 
ATOM     29  F   UNL     1       6.430   8.091  17.803  0.00  0.00    +0.000 F 
ENDBRANCH   8  26
BRANCH   6  30
ATOM     30  N   UNL     1       6.250   3.672  14.206  0.00  0.00    +0.000 N 
ATOM     31  C   UNL     1       6.940   4.539  13.262  0.00  0.00    +0.000 C 
ATOM     32  H   UNL     1       5.371   3.328  13.826  0.00  0.00    +0.000 HD
ENDBRANCH   6  30
TORSDOF 6
ENDMDL
MODEL 3
REMARK VINA RESULT:      -8.3      1.356      1.810
REMARK  Name = 
REMARK  8 active torsions:
REMARK  status: ('A' for Active; 'I' for Inactive)
REMARK    1  A    between atoms: C_2  and  C_3
REMARK    2  A    between atoms: C_2  and  C_10
REMARK    3  A    between atoms: C_3  and  C_4
REMARK    4  A    between atoms: N_8  and  C_9
REMARK    5  A    between atoms: C_14  and  N_15
REMARK    6  A    between atoms: C_20  and  N_21
REMARK    7  A    between atoms: N_21  and  C_22
REMARK    8  A    between atoms: C_24  and  C_25
REMARK                            x       y       z     vdW  Elec       q    Type
REMARK                         _______ _______ _______ _____ _____    ______ ____
ROOT
ATOM      1  N   UNL     1       3.802   4.986  19.400  0.00  0.00    +0.000 N 
ATOM      2  C   UNL     1       5.161   5.587  19.440  0.00  0.00    +0.000 C 
ATOM      3  C   UNL     1       5.745   5.161  18.131  0.00  0.00    +0.000 A 
ATOM      4  C   UNL     1       5.083   4.006  17.725  0.00  0.00    +0.000 A 
ATOM      5  C   UNL     1       5.256   3.430  16.477  0.00  0.00    +0.000 A 
ATOM      6  C   UNL     1       6.154   4.022  15.585  0.00  0.00    +0.000 A 
ATOM      7  C   UNL     1       6.810   5.212  15.991  0.00  0.00    +0.000 A 
ATOM      8  C   UNL     1       6.631   5.799  17.265  0.00  0.00    +0.000 A 
ATOM      9  C   UNL     1       3.931   3.800  18.629  0.00  0.00    +0.000 C 
ATOM     10  O   UNL     1       3.143   2.876  18.528  0.00  0.00    +0.000 OA
ENDROOT
BRANCH   1  15
ATOM     11  C   UNL     1       1.881   8.060  19.540  0.00  0.00    +0.000 A 
ATOM     12  C   UNL     1       2.411   8.631  18.380  0.00  0.00    +0.000 A 
ATOM     13  C   UNL     1       2.908   7.811  17.379  0.00  0.00    +0.000 A 
ATOM     14  C   UNL     1       3.005   6.444  17.593  0.00  0.00    +0.000 A 
ATOM     15  C   UNL     1       2.834   5.949  18.890  0.00  0.00    +0.000 A 
ATOM     16  C   UNL     1       2.106   6.711  19.814  0.00  0.00    +0.000 A 
BRANCH  11  18
ATOM     17  C   UNL     1       0.618   8.428  21.579  0.00  0.00    +0.000 C 
ATOM     18  C   UNL     1       1.102   8.916  20.432  0.00  0.00    +0.000 C 
BRANCH  18  19
ATOM     19  C   UNL     1       0.962  10.350  19.955  0.00  0.00    +0.000 C 
BRANCH  19  20
ATOM     20  C   UNL     1      -0.368  10.702  19.342  0.00  0.00    +0.000 A 
ATOM     21  N   UNL     1      -0.787  10.321  18.152  0.00  0.00    +0.000 NA
ATOM     22  N   UNL     1      -2.026  10.853  17.933  0.00  0.00    +0.000 NA
ATOM     23  C   UNL     1      -2.345  11.559  18.984  0.00  0.00    +0.000 A 
ATOM     24  N   UNL     1      -1.353  11.479  19.913  0.00  0.00    +0.000 N 
ATOM     25  C   UNL     1      -1.380  12.117  21.203  0.00  0.00    +0.000 C 
ENDBRANCH  19  20
ENDBRANCH  18  19
ENDBRANCH  11  18
ENDBRANCH   1  15
BRANCH   8  26
ATOM     26  C   UNL     1       7.307   7.107  17.579  0.00  0.00    +0.000 C 
ATOM     27  F   UNL     1       8.154   7.544  16.608  0.00  0.00    +0.000 F 
ATOM     28  F   UNL     1       6.407   8.112  17.760  0.00  0.00    +0.000 F 
ATOM     29  F   UNL     1       8.043   7.057  18.722  0.00  0.00    +0.000 F 
ENDBRANCH   8  26
BRANCH   6  30
ATOM     30  N   UNL     1       6.272   3.624  14.250  0.00  0.00    +0.000 N 
ATOM     31  C   UNL     1       6.964   4.471  13.290  0.00  0.00    +0.000 C 
ATOM     32  H   UNL     1       5.400   3.262  13.870  0.00  0.00    +0.000 HD
ENDBRANCH   6  30
TORSDOF 6
ENDMDL
MODEL 4
REMARK VINA RESULT:      -8.3      3.724      8.149
REMARK  Name = 
REMARK  8 active torsions:
REMARK  status: ('A' for Active; 'I' for Inactive)
REMARK    1  A    between atoms: C_2  and  C_3
REMARK    2  A    between atoms: C_2  and  C_10
REMARK    3  A    between atoms: C_3  and  C_4
REMARK    4  A    between atoms: N_8  and  C_9
REMARK    5  A    between atoms: C_14  and  N_15
REMARK    6  A    between atoms: C_20  and  N_21
REMARK    7  A    between atoms: N_21  and  C_22
REMARK    8  A    between atoms: C_24  and  C_25
REMARK                            x       y       z     vdW  Elec       q    Type
REMARK                         _______ _______ _______ _____ _____    ______ ____
ROOT
ATOM      1  N   UNL     1       2.551   7.897  19.366  0.00  0.00    +0.000 N 
ATOM      2  C   UNL     1       2.135   8.634  20.587  0.00  0.00    +0.000 C 
ATOM      3  C   UNL     1       0.913   9.364  20.127  0.00  0.00    +0.000 A 
ATOM      4  C   UNL     1       1.004   9.517  18.747  0.00  0.00    +0.000 A 
ATOM      5  C   UNL     1      -0.032  10.004  17.966  0.00  0.00    +0.000 A 
ATOM      6  C   UNL     1      -1.222  10.381  18.593  0.00  0.00    +0.000 A 
ATOM      7  C   UNL     1      -1.322  10.202  19.996  0.00  0.00    +0.000 A 
ATOM      8  C   UNL     1      -0.263   9.703  20.791  0.00  0.00    +0.000 A 
ATOM      9  C   UNL     1       2.147   8.707  18.273  0.00  0.00    +0.000 C 
ATOM     10  O   UNL     1       2.483   8.621  17.105  0.00  0.00    +0.000 OA
ENDROOT
BRANCH   1  15
ATOM     11  C   UNL     1       2.673   4.321  18.763  0.00  0.00    +0.000 A 
ATOM     12  C   UNL     1       2.504   3.930  20.094  0.00  0.00    +0.000 A 
ATOM     13  C   UNL     1       1.841   4.770  20.974  0.00  0.00    +0.000 A 
ATOM     14  C   UNL     1       1.477   6.045  20.568  0.00  0.00    +0.000 A 
ATOM     15  C   UNL     1       1.997   6.548  19.371  0.00  0.00    +0.000 A 
ATOM     16  C   UNL     1       2.437   5.646  18.394  0.00  0.00    +0.000 A 
BRANCH  11  18
ATOM     17  C   UNL     1       2.586   2.076  17.848  0.00  0.00    +0.000 C 
ATOM     18  C   UNL     1       3.098   3.309  17.799  0.00  0.00    +0.000 C 
BRANCH  18  19
ATOM     19  C   UNL     1       4.090   3.811  16.765  0.00  0.00    +0.000 C 
BRANCH  19  20
ATOM     20  C   UNL     1       5.471   4.113  17.284  0.00  0.00    +0.000 A 
ATOM     21  N   UNL     1       5.817   4.156  18.556  0.00  0.00    +0.000 NA
ATOM     22  N   UNL     1       7.142   4.483  18.638  0.00  0.00    +0.000 NA
ATOM     23  C   UNL     1       7.585   4.646  17.420  0.00  0.00    +0.000 A 
ATOM     24  N   UNL     1       6.586   4.399  16.528  0.00  0.00    +0.000 N 
ATOM     25  C   UNL     1       6.728   4.463  15.096  0.00  0.00    +0.000 C 
ENDBRANCH  19  20
ENDBRANCH  18  19
ENDBRANCH  11  18
ENDBRANCH   1  15
BRANCH   8  26
ATOM     26  C   UNL     1      -0.487   9.471  22.262  0.00  0.00    +0.000 C 
ATOM     27  F   UNL     1      -0.984   8.240  22.562  0.00  0.00    +0.000 F 
ATOM     28  F   UNL     1       0.666   9.586  22.974  0.00  0.00    +0.000 F 
ATOM     29  F   UNL     1      -1.354  10.366  22.809  0.00  0.00    +0.000 F 
ENDBRANCH   8  26
BRANCH   6  30
ATOM     30  N   UNL     1      -2.380  10.719  17.885  0.00  0.00    +0.000 N 
ATOM     31  C   UNL     1      -2.800   9.920  16.743  0.00  0.00    +0.000 C 
ATOM     32  H   UNL     1      -2.443  11.716  17.689  0.00  0.00    +0.000 HD
ENDBRANCH   6  30
TORSDOF 6
ENDMDL
MODEL 5
REMARK VINA RESULT:      -8.3      1.291      1.590
REMARK  Name = 
REMARK  8 active torsions:
REMARK  status: ('A' for Active; 'I' for Inactive)
REMARK    1  A    between atoms: C_2  and  C_3
REMARK    2  A    between atoms: C_2  and  C_10
REMARK    3  A    between atoms: C_3  and  C_4
REMARK    4  A    between atoms: N_8  and  C_9
REMARK    5  A    between atoms: C_14  and  N_15
REMARK    6  A    between atoms: C_20  and  N_21
REMARK    7  A    between atoms: N_21  and  C_22
REMARK    8  A    between atoms: C_24  and  C_25
REMARK                            x       y       z     vdW  Elec       q    Type
REMARK                         _______ _______ _______ _____ _____    ______ ____
ROOT
ATOM      1  N   UNL     1       4.020   4.768  19.025  0.00  0.00    +0.000 N 
ATOM      2  C   UNL     1       5.349   5.408  19.205  0.00  0.00    +0.000 C 
ATOM      3  C   UNL     1       5.983   5.226  17.863  0.00  0.00    +0.000 A 
ATOM      4  C   UNL     1       5.383   4.127  17.255  0.00  0.00    +0.000 A 
ATOM      5  C   UNL     1       5.611   3.770  15.936  0.00  0.00    +0.000 A 
ATOM      6  C   UNL     1       6.504   4.535  15.180  0.00  0.00    +0.000 A 
ATOM      7  C   UNL     1       7.096   5.667  15.794  0.00  0.00    +0.000 A 
ATOM      8  C   UNL     1       6.860   6.031  17.141  0.00  0.00    +0.000 A 
ATOM      9  C   UNL     1       4.220   3.731  18.078  0.00  0.00    +0.000 C 
ATOM     10  O   UNL     1       3.476   2.805  17.803  0.00  0.00    +0.000 OA
ENDROOT
BRANCH   1  15
ATOM     11  C   UNL     1       2.015   7.742  19.573  0.00  0.00    +0.000 A 
ATOM     12  C   UNL     1       2.523   8.476  18.497  0.00  0.00    +0.000 A 
ATOM     13  C   UNL     1       3.036   7.809  17.396  0.00  0.00    +0.000 A 
ATOM     14  C   UNL     1       3.172   6.429  17.428  0.00  0.00    +0.000 A 
ATOM     15  C   UNL     1       3.022   5.763  18.648  0.00  0.00    +0.000 A 
ATOM     16  C   UNL     1       2.278   6.376  19.666  0.00  0.00    +0.000 A 
BRANCH  11  18
ATOM     17  C   UNL     1       0.700   7.790  21.611  0.00  0.00    +0.000 C 
ATOM     18  C   UNL     1       1.217   8.451  20.571  0.00  0.00    +0.000 C 
BRANCH  18  19
ATOM     19  C   UNL     1       1.099   9.945  20.329  0.00  0.00    +0.000 C 
BRANCH  19  20
ATOM     20  C   UNL     1       0.171  10.680  21.259  0.00  0.00    +0.000 A 
ATOM     21  N   UNL     1       0.326  10.792  22.564  0.00  0.00    +0.000 NA
ATOM     22  N   UNL     1      -0.724  11.506  23.069  0.00  0.00    +0.000 NA
ATOM     23  C   UNL     1      -1.510  11.814  22.073  0.00  0.00    +0.000 A 
ATOM     24  N   UNL     1      -0.984  11.344  20.908  0.00  0.00    +0.000 N 
ATOM     25  C   UNL     1      -1.577  11.522  19.607  0.00  0.00    +0.000 C 
ENDBRANCH  19  20
ENDBRANCH  18  19
ENDBRANCH  11  18
ENDBRANCH   1  15
BRANCH   8  26
ATOM     26  C   UNL     1       7.470   7.296  17.683  0.00  0.00    +0.000 C 
ATOM     27  F   UNL     1       8.179   7.125  18.832  0.00  0.00    +0.000 F 
ATOM     28  F   UNL     1       8.335   7.862  16.798  0.00  0.00    +0.000 F 
ATOM     29  F   UNL     1       6.541   8.251  17.958  0.00  0.00    +0.000 F 
ENDBRANCH   8  26
BRANCH   6  30
ATOM     30  N   UNL     1       6.672   4.365  13.802  0.00  0.00    +0.000 N 
ATOM     31  C   UNL     1       5.774   3.495  13.056  0.00  0.00    +0.000 C 
ATOM     32  H   UNL     1       7.643   4.212  13.541  0.00  0.00    +0.000 HD
ENDBRANCH   6  30
TORSDOF 6
ENDMDL
MODEL 6
REMARK VINA RESULT:      -8.2      1.196      1.628
REMARK  Name = 
REMARK  8 active torsions:
REMARK  status: ('A' for Active; 'I' for Inactive)
REMARK    1  A    between atoms: C_2  and  C_3
REMARK    2  A    between atoms: C_2  and  C_10
REMARK    3  A    between atoms: C_3  and  C_4
REMARK    4  A    between atoms: N_8  and  C_9
REMARK    5  A    between atoms: C_14  and  N_15
REMARK    6  A    between atoms: C_20  and  N_21
REMARK    7  A    between atoms: N_21  and  C_22
REMARK    8  A    between atoms: C_24  and  C_25
REMARK                            x       y       z     vdW  Elec       q    Type
REMARK                         _______ _______ _______ _____ _____    ______ ____
ROOT
ATOM      1  N   UNL     1       3.700   5.034  19.462  0.00  0.00    +0.000 N 
ATOM      2  C   UNL     1       5.070   5.610  19.496  0.00  0.00    +0.000 C 
ATOM      3  C   UNL     1       5.649   5.152  18.195  0.00  0.00    +0.000 A 
ATOM      4  C   UNL     1       4.966   4.004  17.806  0.00  0.00    +0.000 A 
ATOM      5  C   UNL     1       5.130   3.405  16.568  0.00  0.00    +0.000 A 
ATOM      6  C   UNL     1       6.042   3.965  15.669  0.00  0.00    +0.000 A 
ATOM      7  C   UNL     1       6.719   5.148  16.057  0.00  0.00    +0.000 A 
ATOM      8  C   UNL     1       6.548   5.759  17.322  0.00  0.00    +0.000 A 
ATOM      9  C   UNL     1       3.808   3.834  18.711  0.00  0.00    +0.000 C 
ATOM     10  O   UNL     1       3.003   2.923  18.623  0.00  0.00    +0.000 OA
ENDROOT
BRANCH   1  15
ATOM     11  C   UNL     1       1.805   8.126  19.569  0.00  0.00    +0.000 A 
ATOM     12  C   UNL     1       2.364   8.694  18.421  0.00  0.00    +0.000 A 
ATOM     13  C   UNL     1       2.873   7.871  17.430  0.00  0.00    +0.000 A 
ATOM     14  C   UNL     1       2.953   6.503  17.643  0.00  0.00    +0.000 A 
ATOM     15  C   UNL     1       2.751   6.007  18.934  0.00  0.00    +0.000 A 
ATOM     16  C   UNL     1       2.011   6.774  19.845  0.00  0.00    +0.000 A 
BRANCH  11  18
ATOM     17  C   UNL     1       0.415   8.477  21.527  0.00  0.00    +0.000 C 
ATOM     18  C   UNL     1       1.016   8.987  20.447  0.00  0.00    +0.000 C 
BRANCH  18  19
ATOM     19  C   UNL     1       1.004  10.449  20.040  0.00  0.00    +0.000 C 
BRANCH  19  20
ATOM     20  C   UNL     1      -0.360  11.071  19.897  0.00  0.00    +0.000 A 
ATOM     21  N   UNL     1      -0.928  11.878  20.772  0.00  0.00    +0.000 NA
ATOM     22  N   UNL     1      -2.168  12.219  20.312  0.00  0.00    +0.000 NA
ATOM     23  C   UNL     1      -2.348  11.610  19.170  0.00  0.00    +0.000 A 
ATOM     24  N   UNL     1      -1.234  10.897  18.847  0.00  0.00    +0.000 N 
ATOM     25  C   UNL     1      -1.074  10.121  17.644  0.00  0.00    +0.000 C 
ENDBRANCH  19  20
ENDBRANCH  18  19
ENDBRANCH  11  18
ENDBRANCH   1  15
BRANCH   8  26
ATOM     26  C   UNL     1       7.248   7.059  17.617  0.00  0.00    +0.000 C 
ATOM     27  F   UNL     1       6.410   8.118  17.789  0.00  0.00    +0.000 F 
ATOM     28  F   UNL     1       7.988   6.989  18.757  0.00  0.00    +0.000 F 
ATOM     29  F   UNL     1       8.113   7.425  16.633  0.00  0.00    +0.000 F 
ENDBRANCH   8  26
BRANCH   6  30
ATOM     30  N   UNL     1       6.155   3.543  14.340  0.00  0.00    +0.000 N 
ATOM     31  C   UNL     1       6.774   4.409  13.347  0.00  0.00    +0.000 C 
ATOM     32  H   UNL     1       5.298   3.121  13.989  0.00  0.00    +0.000 HD
ENDBRANCH   6  30
TORSDOF 6
ENDMDL
MODEL 7
REMARK VINA RESULT:      -8.2      3.882      8.564
REMARK  Name = 
REMARK  8 active torsions:
REMARK  status: ('A' for Active; 'I' for Inactive)
REMARK    1  A    between atoms: C_2  and  C_3
REMARK    2  A    between atoms: C_2  and  C_10
REMARK    3  A    between atoms: C_3  and  C_4
REMARK    4  A    between atoms: N_8  and  C_9
REMARK    5  A    between atoms: C_14  and  N_15
REMARK    6  A    between atoms: C_20  and  N_21
REMARK    7  A    between atoms: N_21  and  C_22
REMARK    8  A    between atoms: C_24  and  C_25
REMARK                            x       y       z     vdW  Elec       q    Type
REMARK                         _______ _______ _______ _____ _____    ______ ____
ROOT
ATOM      1  N   UNL     1       0.071   9.196  20.823  0.00  0.00    +0.000 N 
ATOM      2  C   UNL     1      -1.084   9.115  19.891  0.00  0.00    +0.000 C 
ATOM      3  C   UNL     1      -1.190  10.517  19.381  0.00  0.00    +0.000 A 
ATOM      4  C   UNL     1      -0.623  11.359  20.332  0.00  0.00    +0.000 A 
ATOM      5  C   UNL     1      -0.402  12.710  20.115  0.00  0.00    +0.000 A 
ATOM      6  C   UNL     1      -0.787  13.263  18.891  0.00  0.00    +0.000 A 
ATOM      7  C   UNL     1      -1.343  12.399  17.914  0.00  0.00    +0.000 A 
ATOM      8  C   UNL     1      -1.566  11.019  18.137  0.00  0.00    +0.000 A 
ATOM      9  C   UNL     1       0.051  10.517  21.343  0.00  0.00    +0.000 C 
ATOM     10  O   UNL     1       0.655  10.959  22.304  0.00  0.00    +0.000 OA
ENDROOT
BRANCH   1  15
ATOM     11  C   UNL     1       2.381   6.828  19.333  0.00  0.00    +0.000 A 
ATOM     12  C   UNL     1       2.333   7.353  18.039  0.00  0.00    +0.000 A 
ATOM     13  C   UNL     1       2.021   8.690  17.855  0.00  0.00    +0.000 A 
ATOM     14  C   UNL     1       1.621   9.460  18.937  0.00  0.00    +0.000 A 
ATOM     15  C   UNL     1       1.304   8.822  20.141  0.00  0.00    +0.000 A 
ATOM     16  C   UNL     1       1.847   7.555  20.397  0.00  0.00    +0.000 A 
BRANCH  11  18
ATOM     17  C   UNL     1       2.643   4.747  20.553  0.00  0.00    +0.000 C 
ATOM     18  C   UNL     1       2.998   5.517  19.520  0.00  0.00    +0.000 C 
BRANCH  18  19
ATOM     19  C   UNL     1       3.989   5.134  18.436  0.00  0.00    +0.000 C 
BRANCH  19  20
ATOM     20  C   UNL     1       5.439   5.365  18.772  0.00  0.00    +0.000 A 
ATOM     21  N   UNL     1       6.069   4.871  19.819  0.00  0.00    +0.000 NA
ATOM     22  N   UNL     1       7.361   5.316  19.803  0.00  0.00    +0.000 NA
ATOM     23  C   UNL     1       7.501   6.084  18.756  0.00  0.00    +0.000 A 
ATOM     24  N   UNL     1       6.334   6.129  18.056  0.00  0.00    +0.000 N 
ATOM     25  C   UNL     1       6.136   6.864  16.834  0.00  0.00    +0.000 C 
ENDBRANCH  19  20
ENDBRANCH  18  19
ENDBRANCH  11  18
ENDBRANCH   1  15
BRANCH   8  26
ATOM     26  C   UNL     1      -2.086  10.162  17.014  0.00  0.00    +0.000 C 
ATOM     27  F   UNL     1      -3.231   9.488  17.311  0.00  0.00    +0.000 F 
ATOM     28  F   UNL     1      -2.370  10.899  15.906  0.00  0.00    +0.000 F 
ATOM     29  F   UNL     1      -1.191   9.219  16.615  0.00  0.00    +0.000 F 
ENDBRANCH   8  26
BRANCH   6  30
ATOM     30  N   UNL     1      -0.454  14.567  18.509  0.00  0.00    +0.000 N 
ATOM     31  C   UNL     1      -0.531  15.655  19.472  0.00  0.00    +0.000 C 
ATOM     32  H   UNL     1      -0.861  14.829  17.614  0.00  0.00    +0.000 HD
ENDBRANCH   6  30
TORSDOF 6
ENDMDL
MODEL 8
REMARK VINA RESULT:      -8.1      3.447      8.406
REMARK  Name = 
REMARK  8 active torsions:
REMARK  status: ('A' for Active; 'I' for Inactive)
REMARK    1  A    between atoms: C_2  and  C_3
REMARK    2  A    between atoms: C_2  and  C_10
REMARK    3  A    between atoms: C_3  and  C_4
REMARK    4  A    between atoms: N_8  and  C_9
REMARK    5  A    between atoms: C_14  and  N_15
REMARK    6  A    between atoms: C_20  and  N_21
REMARK    7  A    between atoms: N_21  and  C_22
REMARK    8  A    between atoms: C_24  and  C_25
REMARK                            x       y       z     vdW  Elec       q    Type
REMARK                         _______ _______ _______ _____ _____    ______ ____
ROOT
ATOM      1  N   UNL     1       0.773   8.312  21.123  0.00  0.00    +0.000 N 
ATOM      2  C   UNL     1      -0.467   8.611  20.361  0.00  0.00    +0.000 C 
ATOM      3  C   UNL     1      -0.343  10.078  20.098  0.00  0.00    +0.000 A 
ATOM      4  C   UNL     1       0.481  10.618  21.081  0.00  0.00    +0.000 A 
ATOM      5  C   UNL     1       0.946  11.923  21.050  0.00  0.00    +0.000 A 
ATOM      6  C   UNL     1       0.552  12.749  19.995  0.00  0.00    +0.000 A 
ATOM      7  C   UNL     1      -0.269  12.191  18.982  0.00  0.00    +0.000 A 
ATOM      8  C   UNL     1      -0.740  10.857  19.014  0.00  0.00    +0.000 A 
ATOM      9  C   UNL     1       1.076   9.498  21.842  0.00  0.00    +0.000 C 
ATOM     10  O   UNL     1       1.856   9.642  22.767  0.00  0.00    +0.000 OA
ENDROOT
BRANCH   1  15
ATOM     11  C   UNL     1       2.481   5.822  19.111  0.00  0.00    +0.000 A 
ATOM     12  C   UNL     1       2.311   6.468  17.883  0.00  0.00    +0.000 A 
ATOM     13  C   UNL     1       2.162   7.845  17.849  0.00  0.00    +0.000 A 
ATOM     14  C   UNL     1       2.040   8.554  19.034  0.00  0.00    +0.000 A 
ATOM     15  C   UNL     1       1.825   7.852  20.224  0.00  0.00    +0.000 A 
ATOM     16  C   UNL     1       2.220   6.509  20.297  0.00  0.00    +0.000 A 
BRANCH  11  18
ATOM     17  C   UNL     1       2.571   3.601  20.082  0.00  0.00    +0.000 C 
ATOM     18  C   UNL     1       2.932   4.433  19.100  0.00  0.00    +0.000 C 
BRANCH  18  19
ATOM     19  C   UNL     1       3.764   4.057  17.887  0.00  0.00    +0.000 C 
BRANCH  19  20
ATOM     20  C   UNL     1       5.243   4.308  18.012  0.00  0.00    +0.000 A 
ATOM     21  N   UNL     1       5.892   4.509  19.142  0.00  0.00    +0.000 NA
ATOM     22  N   UNL     1       7.211   4.725  18.858  0.00  0.00    +0.000 NA
ATOM     23  C   UNL     1       7.350   4.664  17.560  0.00  0.00    +0.000 A 
ATOM     24  N   UNL     1       6.152   4.378  16.980  0.00  0.00    +0.000 N 
ATOM     25  C   UNL     1       5.942   4.215  15.564  0.00  0.00    +0.000 C 
ENDBRANCH  19  20
ENDBRANCH  18  19
ENDBRANCH  11  18
ENDBRANCH   1  15
BRANCH   8  26
ATOM     26  C   UNL     1      -1.540  10.327  17.854  0.00  0.00    +0.000 C 
ATOM     27  F   UNL     1      -1.943  11.282  16.972  0.00  0.00    +0.000 F 
ATOM     28  F   UNL     1      -0.832   9.425  17.121  0.00  0.00    +0.000 F 
ATOM     29  F   UNL     1      -2.671   9.682  18.248  0.00  0.00    +0.000 F 
ENDBRANCH   8  26
BRANCH   6  30
ATOM     30  N   UNL     1       1.098  14.019  19.780  0.00  0.00    +0.000 N 
ATOM     31  C   UNL     1       0.395  14.988  18.952  0.00  0.00    +0.000 C 
ATOM     32  H   UNL     1       2.090  13.986  19.559  0.00  0.00    +0.000 HD
ENDBRANCH   6  30
TORSDOF 6
ENDMDL
MODEL 9
REMARK VINA RESULT:      -8.1      3.890      6.232
REMARK  Name = 
REMARK  8 active torsions:
REMARK  status: ('A' for Active; 'I' for Inactive)
REMARK    1  A    between atoms: C_2  and  C_3
REMARK    2  A    between atoms: C_2  and  C_10
REMARK    3  A    between atoms: C_3  and  C_4
REMARK    4  A    between atoms: N_8  and  C_9
REMARK    5  A    between atoms: C_14  and  N_15
REMARK    6  A    between atoms: C_20  and  N_21
REMARK    7  A    between atoms: N_21  and  C_22
REMARK    8  A    between atoms: C_24  and  C_25
REMARK                            x       y       z     vdW  Elec       q    Type
REMARK                         _______ _______ _______ _____ _____    ______ ____
ROOT
ATOM      1  N   UNL     1       6.012   5.428  15.678  0.00  0.00    +0.000 N 
ATOM      2  C   UNL     1       4.823   6.271  15.966  0.00  0.00    +0.000 C 
ATOM      3  C   UNL     1       4.081   5.454  16.975  0.00  0.00    +0.000 A 
ATOM      4  C   UNL     1       4.449   4.124  16.800  0.00  0.00    +0.000 A 
ATOM      5  C   UNL     1       4.079   3.112  17.671  0.00  0.00    +0.000 A 
ATOM      6  C   UNL     1       3.279   3.434  18.770  0.00  0.00    +0.000 A 
ATOM      7  C   UNL     1       2.924   4.793  18.961  0.00  0.00    +0.000 A 
ATOM      8  C   UNL     1       3.305   5.825  18.071  0.00  0.00    +0.000 A 
ATOM      9  C   UNL     1       5.581   4.086  15.849  0.00  0.00    +0.000 C 
ATOM     10  O   UNL     1       6.141   3.063  15.497  0.00  0.00    +0.000 OA
ENDROOT
BRANCH   1  15
ATOM     11  C   UNL     1       7.784   7.694  17.889  0.00  0.00    +0.000 A 
ATOM     12  C   UNL     1       7.816   6.842  18.997  0.00  0.00    +0.000 A 
ATOM     13  C   UNL     1       7.768   5.471  18.806  0.00  0.00    +0.000 A 
ATOM     14  C   UNL     1       7.547   4.959  17.536  0.00  0.00    +0.000 A 
ATOM     15  C   UNL     1       7.135   5.826  16.519  0.00  0.00    +0.000 A 
ATOM     16  C   UNL     1       7.423   7.193  16.638  0.00  0.00    +0.000 A 
BRANCH  11  18
ATOM     17  C   UNL     1       7.535  10.052  17.374  0.00  0.00    +0.000 C 
ATOM     18  C   UNL     1       8.136   9.098  18.092  0.00  0.00    +0.000 C 
BRANCH  18  19
ATOM     19  C   UNL     1       9.162   9.332  19.186  0.00  0.00    +0.000 C 
BRANCH  19  20
ATOM     20  C   UNL     1       9.739  10.721  19.247  0.00  0.00    +0.000 A 
ATOM     21  N   UNL     1      10.490  11.279  18.317  0.00  0.00    +0.000 NA
ATOM     22  N   UNL     1      10.844  12.531  18.734  0.00  0.00    +0.000 NA
ATOM     23  C   UNL     1      10.315  12.720  19.913  0.00  0.00    +0.000 A 
ATOM     24  N   UNL     1       9.588  11.627  20.274  0.00  0.00    +0.000 N 
ATOM     25  C   UNL     1       8.850  11.499  21.504  0.00  0.00    +0.000 C 
ENDBRANCH  19  20
ENDBRANCH  18  19
ENDBRANCH  11  18
ENDBRANCH   1  15
BRANCH   8  26
ATOM     26  C   UNL     1       2.951   7.252  18.397  0.00  0.00    +0.000 C 
ATOM     27  F   UNL     1       3.930   8.151  18.103  0.00  0.00    +0.000 F 
ATOM     28  F   UNL     1       1.851   7.670  17.713  0.00  0.00    +0.000 F 
ATOM     29  F   UNL     1       2.662   7.433  19.714  0.00  0.00    +0.000 F 
ENDBRANCH   8  26
BRANCH   6  30
ATOM     30  N   UNL     1       2.996   2.526  19.795  0.00  0.00    +0.000 N 
ATOM     31  C   UNL     1       1.811   2.700  20.623  0.00  0.00    +0.000 C 
ATOM     32  H   UNL     1       3.814   2.299  20.355  0.00  0.00    +0.000 HD
ENDBRANCH   6  30
TORSDOF 6
ENDMDL
