MODEL 1
REMARK VINA RESULT:      -9.4      0.000      0.000
REMARK  Name = 
REMARK  4 active torsions:
REMARK  status: ('A' for Active; 'I' for Inactive)
REMARK    1  A    between atoms: C_2  and  C_15
REMARK    2  A    between atoms: C_6  and  C_7
REMARK    3  A    between atoms: C_17  and  C_18
REMARK    4  A    between atoms: C_23  and  C_24
REMARK                            x       y       z     vdW  Elec       q    Type
REMARK                         _______ _______ _______ _____ _____    ______ ____
ROOT
ATOM      1  O   UNL     1       3.048   3.825  18.445  0.00  0.00    +0.000 OA
ATOM      2  C   UNL     1       3.451   4.458  19.410  0.00  0.00    +0.000 C 
ATOM      3  N   UNL     1       4.682   5.041  19.565  0.00  0.00    +0.000 N 
ATOM      4  C   UNL     1       5.604   5.038  18.559  0.00  0.00    +0.000 A 
ATOM      5  N   UNL     1       5.434   4.786  17.289  0.00  0.00    +0.000 NA
ATOM      6  C   UNL     1       6.656   4.865  16.632  0.00  0.00    +0.000 A 
ATOM      7  C   UNL     1       7.732   5.142  17.455  0.00  0.00    +0.000 A 
ATOM      8  S   UNL     1       7.187   5.426  19.058  0.00  0.00    +0.000 S 
ATOM      9  H   UNL     1       4.977   5.412  20.455  0.00  0.00    +0.000 HD
ENDROOT
BRANCH   6  10
ATOM     10  C   UNL     1       6.772   4.674  15.188  0.00  0.00    +0.000 A 
ATOM     11  C   UNL     1       5.912   3.804  14.522  0.00  0.00    +0.000 A 
ATOM     12  C   UNL     1       6.038   3.663  13.141  0.00  0.00    +0.000 A 
ATOM     13  C   UNL     1       7.014   4.387  12.470  0.00  0.00    +0.000 A 
ATOM     14  C   UNL     1       7.827   5.232  13.209  0.00  0.00    +0.000 A 
ATOM     15  N   UNL     1       7.728   5.396  14.546  0.00  0.00    +0.000 NA
ENDBRANCH   6  10
BRANCH   2  16
ATOM     16  C   UNL     1       2.568   4.638  20.608  0.00  0.00    +0.000 C 
ATOM     17  C   UNL     1       1.071   4.581  20.459  0.00  0.00    +0.000 C 
ATOM     18  C   UNL     1       1.733   5.903  20.770  0.00  0.00    +0.000 C 
BRANCH  18  19
ATOM     19  C   UNL     1       1.863   7.022  19.751  0.00  0.00    +0.000 A 
ATOM     20  C   UNL     1       2.496   6.787  18.513  0.00  0.00    +0.000 A 
ATOM     21  C   UNL     1       2.656   7.792  17.556  0.00  0.00    +0.000 A 
ATOM     22  C   UNL     1       2.151   9.059  17.796  0.00  0.00    +0.000 A 
ATOM     23  C   UNL     1       1.512   9.328  19.000  0.00  0.00    +0.000 A 
ATOM     24  C   UNL     1       1.372   8.329  19.991  0.00  0.00    +0.000 A 
BRANCH  24  25
ATOM     25  C   UNL     1       0.714   8.748  21.288  0.00  0.00    +0.000 C 
ATOM     26  F   UNL     1      -0.399   8.045  21.643  0.00  0.00    +0.000 F 
ATOM     27  F   UNL     1       1.556   8.639  22.357  0.00  0.00    +0.000 F 
ATOM     28  F   UNL     1       0.320  10.053  21.268  0.00  0.00    +0.000 F 
ENDBRANCH  24  25
ENDBRANCH  18  19
ENDBRANCH   2  16
TORSDOF 4
ENDMDL
MODEL 2
REMARK VINA RESULT:      -8.6      4.145      7.558
REMARK  Name = 
REMARK  4 active torsions:
REMARK  status: ('A' for Active; 'I' for Inactive)
REMARK    1  A    between atoms: C_2  and  C_15
REMARK    2  A    between atoms: C_6  and  C_7
REMARK    3  A    between atoms: C_17  and  C_18
REMARK    4  A    between atoms: C_23  and  C_24
REMARK                            x       y       z     vdW  Elec       q    Type
REMARK                         _______ _______ _______ _____ _____    ______ ____
ROOT
ATOM      1  O   UNL     1       3.240   6.799  17.295  0.00  0.00    +0.000 OA
ATOM      2  C   UNL     1       2.801   5.946  18.052  0.00  0.00    +0.000 C 
ATOM      3  N   UNL     1       2.119   6.149  19.224  0.00  0.00    +0.000 N 
ATOM      4  C   UNL     1       1.773   7.403  19.640  0.00  0.00    +0.000 A 
ATOM      5  N   UNL     1       1.745   8.517  18.959  0.00  0.00    +0.000 NA
ATOM      6  C   UNL     1       1.363   9.561  19.791  0.00  0.00    +0.000 A 
ATOM      7  C   UNL     1       1.149   9.195  21.108  0.00  0.00    +0.000 A 
ATOM      8  S   UNL     1       1.314   7.495  21.279  0.00  0.00    +0.000 S 
ATOM      9  H   UNL     1       1.929   5.388  19.858  0.00  0.00    +0.000 HD
ENDROOT
BRANCH   6  10
ATOM     10  C   UNL     1       1.200  10.926  19.296  0.00  0.00    +0.000 A 
ATOM     11  C   UNL     1       0.057  11.656  19.611  0.00  0.00    +0.000 A 
ATOM     12  C   UNL     1      -0.056  12.962  19.139  0.00  0.00    +0.000 A 
ATOM     13  C   UNL     1       0.967  13.497  18.367  0.00  0.00    +0.000 A 
ATOM     14  C   UNL     1       2.070  12.702  18.100  0.00  0.00    +0.000 A 
ATOM     15  N   UNL     1       2.213  11.435  18.547  0.00  0.00    +0.000 NA
ENDBRANCH   6  10
BRANCH   2  16
ATOM     16  C   UNL     1       3.015   4.494  17.748  0.00  0.00    +0.000 C 
ATOM     17  C   UNL     1       3.465   3.553  18.833  0.00  0.00    +0.000 C 
ATOM     18  C   UNL     1       4.423   3.910  17.721  0.00  0.00    +0.000 C 
BRANCH  18  19
ATOM     19  C   UNL     1       5.618   4.825  17.922  0.00  0.00    +0.000 A 
ATOM     20  C   UNL     1       6.129   5.055  19.217  0.00  0.00    +0.000 A 
ATOM     21  C   UNL     1       7.214   5.905  19.449  0.00  0.00    +0.000 A 
ATOM     22  C   UNL     1       7.845   6.525  18.384  0.00  0.00    +0.000 A 
ATOM     23  C   UNL     1       7.377   6.316  17.092  0.00  0.00    +0.000 A 
ATOM     24  C   UNL     1       6.261   5.484  16.845  0.00  0.00    +0.000 A 
BRANCH  24  25
ATOM     25  C   UNL     1       5.800   5.377  15.407  0.00  0.00    +0.000 C 
ATOM     26  F   UNL     1       5.040   4.285  15.108  0.00  0.00    +0.000 F 
ATOM     27  F   UNL     1       5.046   6.448  15.022  0.00  0.00    +0.000 F 
ATOM     28  F   UNL     1       6.845   5.335  14.532  0.00  0.00    +0.000 F 
ENDBRANCH  24  25
ENDBRANCH  18  19
ENDBRANCH   2  16
TORSDOF 4
ENDMDL
MODEL 3
REMARK VINA RESULT:      -8.6      3.014      4.494
REMARK  Name = 
REMARK  4 active torsions:
REMARK  status: ('A' for Active; 'I' for Inactive)
REMARK    1  A    between atoms: C_2  and  C_15
REMARK    2  A    between atoms: C_6  and  C_7
REMARK    3  A    between atoms: C_17  and  C_18
REMARK    4  A    between atoms: C_23  and  C_24
REMARK                            x       y       z     vdW  Elec       q    Type
REMARK                         _______ _______ _______ _____ _____    ______ ____
ROOT
ATOM      1  O   UNL     1       1.855   9.135  20.000  0.00  0.00    +0.000 OA
ATOM      2  C   UNL     1       1.458   8.535  20.989  0.00  0.00    +0.000 C 
ATOM      3  N   UNL     1       1.437   7.178  21.183  0.00  0.00    +0.000 N 
ATOM      4  C   UNL     1       1.967   6.318  20.265  0.00  0.00    +0.000 A 
ATOM      5  N   UNL     1       2.778   6.571  19.273  0.00  0.00    +0.000 NA
ATOM      6  C   UNL     1       3.035   5.400  18.572  0.00  0.00    +0.000 A 
ATOM      7  C   UNL     1       2.363   4.288  19.048  0.00  0.00    +0.000 A 
ATOM      8  S   UNL     1       1.489   4.695  20.468  0.00  0.00    +0.000 S 
ATOM      9  H   UNL     1       0.953   6.769  21.967  0.00  0.00    +0.000 HD
ENDROOT
BRANCH   6  10
ATOM     10  C   UNL     1       3.949   5.364  17.433  0.00  0.00    +0.000 A 
ATOM     11  C   UNL     1       4.334   4.147  16.877  0.00  0.00    +0.000 A 
ATOM     12  C   UNL     1       5.191   4.151  15.778  0.00  0.00    +0.000 A 
ATOM     13  C   UNL     1       5.638   5.364  15.271  0.00  0.00    +0.000 A 
ATOM     14  C   UNL     1       5.206   6.529  15.882  0.00  0.00    +0.000 A 
ATOM     15  N   UNL     1       4.372   6.560  16.945  0.00  0.00    +0.000 NA
ENDBRANCH   6  10
BRANCH   2  16
ATOM     16  C   UNL     1       0.892   9.298  22.149  0.00  0.00    +0.000 C 
ATOM     17  C   UNL     1      -0.544   9.102  22.554  0.00  0.00    +0.000 C 
ATOM     18  C   UNL     1      -0.127  10.408  21.921  0.00  0.00    +0.000 C 
BRANCH  18  19
ATOM     19  C   UNL     1      -0.505  10.797  20.502  0.00  0.00    +0.000 A 
ATOM     20  C   UNL     1      -1.328   9.952  19.728  0.00  0.00    +0.000 A 
ATOM     21  C   UNL     1      -1.685  10.262  18.413  0.00  0.00    +0.000 A 
ATOM     22  C   UNL     1      -1.256  11.449  17.843  0.00  0.00    +0.000 A 
ATOM     23  C   UNL     1      -0.452  12.313  18.576  0.00  0.00    +0.000 A 
ATOM     24  C   UNL     1      -0.057  11.998  19.897  0.00  0.00    +0.000 A 
BRANCH  24  25
ATOM     25  C   UNL     1       0.869  12.981  20.581  0.00  0.00    +0.000 C 
ATOM     26  F   UNL     1       0.444  13.457  21.786  0.00  0.00    +0.000 F 
ATOM     27  F   UNL     1       2.101  12.448  20.827  0.00  0.00    +0.000 F 
ATOM     28  F   UNL     1       1.098  14.089  19.820  0.00  0.00    +0.000 F 
ENDBRANCH  24  25
ENDBRANCH  18  19
ENDBRANCH   2  16
TORSDOF 4
ENDMDL
MODEL 4
REMARK VINA RESULT:      -8.6      4.223      7.623
REMARK  Name = 
REMARK  4 active torsions:
REMARK  status: ('A' for Active; 'I' for Inactive)
REMARK    1  A    between atoms: C_2  and  C_15
REMARK    2  A    between atoms: C_6  and  C_7
REMARK    3  A    between atoms: C_17  and  C_18
REMARK    4  A    between atoms: C_23  and  C_24
REMARK                            x       y       z     vdW  Elec       q    Type
REMARK                         _______ _______ _______ _____ _____    ______ ____
ROOT
ATOM      1  O   UNL     1       3.233   6.879  17.328  0.00  0.00    +0.000 OA
ATOM      2  C   UNL     1       2.778   6.025  18.075  0.00  0.00    +0.000 C 
ATOM      3  N   UNL     1       2.089   6.226  19.244  0.00  0.00    +0.000 N 
ATOM      4  C   UNL     1       1.754   7.480  19.667  0.00  0.00    +0.000 A 
ATOM      5  N   UNL     1       1.744   8.600  18.995  0.00  0.00    +0.000 NA
ATOM      6  C   UNL     1       1.367   9.642  19.833  0.00  0.00    +0.000 A 
ATOM      7  C   UNL     1       1.139   9.267  21.146  0.00  0.00    +0.000 A 
ATOM      8  S   UNL     1       1.284   7.564  21.303  0.00  0.00    +0.000 S 
ATOM      9  H   UNL     1       1.886   5.462  19.869  0.00  0.00    +0.000 HD
ENDROOT
BRANCH   6  10
ATOM     10  C   UNL     1       1.223  11.012  19.348  0.00  0.00    +0.000 A 
ATOM     11  C   UNL     1       2.177  11.560  18.495  0.00  0.00    +0.000 A 
ATOM     12  C   UNL     1       1.996  12.863  18.035  0.00  0.00    +0.000 A 
ATOM     13  C   UNL     1       0.876  13.577  18.440  0.00  0.00    +0.000 A 
ATOM     14  C   UNL     1      -0.025  12.956  19.289  0.00  0.00    +0.000 A 
ATOM     15  N   UNL     1       0.118  11.694  19.748  0.00  0.00    +0.000 NA
ENDBRANCH   6  10
BRANCH   2  16
ATOM     16  C   UNL     1       2.979   4.573  17.761  0.00  0.00    +0.000 C 
ATOM     17  C   UNL     1       3.418   3.620  18.839  0.00  0.00    +0.000 C 
ATOM     18  C   UNL     1       4.380   3.975  17.731  0.00  0.00    +0.000 C 
BRANCH  18  19
ATOM     19  C   UNL     1       5.584   4.878  17.940  0.00  0.00    +0.000 A 
ATOM     20  C   UNL     1       6.090   5.100  19.237  0.00  0.00    +0.000 A 
ATOM     21  C   UNL     1       7.182   5.938  19.477  0.00  0.00    +0.000 A 
ATOM     22  C   UNL     1       7.826   6.553  18.416  0.00  0.00    +0.000 A 
ATOM     23  C   UNL     1       7.364   6.350  17.121  0.00  0.00    +0.000 A 
ATOM     24  C   UNL     1       6.240   5.531  16.866  0.00  0.00    +0.000 A 
BRANCH  24  25
ATOM     25  C   UNL     1       5.786   5.430  15.426  0.00  0.00    +0.000 C 
ATOM     26  F   UNL     1       5.008   6.455  14.976  0.00  0.00    +0.000 F 
ATOM     27  F   UNL     1       6.835   5.375  14.554  0.00  0.00    +0.000 F 
ATOM     28  F   UNL     1       5.059   4.300  15.192  0.00  0.00    +0.000 F 
ENDBRANCH  24  25
ENDBRANCH  18  19
ENDBRANCH   2  16
TORSDOF 4
ENDMDL
MODEL 5
REMARK VINA RESULT:      -8.6      3.001      4.597
REMARK  Name = 
REMARK  4 active torsions:
REMARK  status: ('A' for Active; 'I' for Inactive)
REMARK    1  A    between atoms: C_2  and  C_15
REMARK    2  A    between atoms: C_6  and  C_7
REMARK    3  A    between atoms: C_17  and  C_18
REMARK    4  A    between atoms: C_23  and  C_24
REMARK                            x       y       z     vdW  Elec       q    Type
REMARK                         _______ _______ _______ _____ _____    ______ ____
ROOT
ATOM      1  O   UNL     1       1.833   9.142  19.983  0.00  0.00    +0.000 OA
ATOM      2  C   UNL     1       1.455   8.546  20.981  0.00  0.00    +0.000 C 
ATOM      3  N   UNL     1       1.450   7.190  21.186  0.00  0.00    +0.000 N 
ATOM      4  C   UNL     1       1.976   6.328  20.267  0.00  0.00    +0.000 A 
ATOM      5  N   UNL     1       2.771   6.581  19.263  0.00  0.00    +0.000 NA
ATOM      6  C   UNL     1       3.030   5.407  18.567  0.00  0.00    +0.000 A 
ATOM      7  C   UNL     1       2.375   4.293  19.061  0.00  0.00    +0.000 A 
ATOM      8  S   UNL     1       1.516   4.702  20.489  0.00  0.00    +0.000 S 
ATOM      9  H   UNL     1       0.980   6.783  21.979  0.00  0.00    +0.000 HD
ENDROOT
BRANCH   6  10
ATOM     10  C   UNL     1       3.929   5.371  17.416  0.00  0.00    +0.000 A 
ATOM     11  C   UNL     1       4.408   6.555  16.861  0.00  0.00    +0.000 A 
ATOM     12  C   UNL     1       5.280   6.482  15.776  0.00  0.00    +0.000 A 
ATOM     13  C   UNL     1       5.645   5.238  15.279  0.00  0.00    +0.000 A 
ATOM     14  C   UNL     1       5.123   4.110  15.892  0.00  0.00    +0.000 A 
ATOM     15  N   UNL     1       4.281   4.145  16.947  0.00  0.00    +0.000 NA
ENDBRANCH   6  10
BRANCH   2  16
ATOM     16  C   UNL     1       0.898   9.312  22.143  0.00  0.00    +0.000 C 
ATOM     17  C   UNL     1      -0.537   9.122  22.555  0.00  0.00    +0.000 C 
ATOM     18  C   UNL     1      -0.118  10.425  21.918  0.00  0.00    +0.000 C 
BRANCH  18  19
ATOM     19  C   UNL     1      -0.503  10.814  20.500  0.00  0.00    +0.000 A 
ATOM     20  C   UNL     1      -1.344   9.978  19.737  0.00  0.00    +0.000 A 
ATOM     21  C   UNL     1      -1.706  10.286  18.423  0.00  0.00    +0.000 A 
ATOM     22  C   UNL     1      -1.265  11.464  17.844  0.00  0.00    +0.000 A 
ATOM     23  C   UNL     1      -0.442  12.319  18.568  0.00  0.00    +0.000 A 
ATOM     24  C   UNL     1      -0.041  12.005  19.887  0.00  0.00    +0.000 A 
BRANCH  24  25
ATOM     25  C   UNL     1       0.905  12.977  20.558  0.00  0.00    +0.000 C 
ATOM     26  F   UNL     1       2.130  12.479  20.891  0.00  0.00    +0.000 F 
ATOM     27  F   UNL     1       1.167  14.067  19.781  0.00  0.00    +0.000 F 
ATOM     28  F   UNL     1       0.394  13.474  21.721  0.00  0.00    +0.000 F 
ENDBRANCH  24  25
ENDBRANCH  18  19
ENDBRANCH   2  16
TORSDOF 4
ENDMDL
MODEL 6
REMARK VINA RESULT:      -8.4      3.998      8.097
REMARK  Name = 
REMARK  4 active torsions:
REMARK  status: ('A' for Active; 'I' for Inactive)
REMARK    1  A    between atoms: C_2  and  C_15
REMARK    2  A    between atoms: C_6  and  C_7
REMARK    3  A    between atoms: C_17  and  C_18
REMARK    4  A    between atoms: C_23  and  C_24
REMARK                            x       y       z     vdW  Elec       q    Type
REMARK                         _______ _______ _______ _____ _____    ______ ____
ROOT
ATOM      1  O   UNL     1       3.139   6.110  19.988  0.00  0.00    +0.000 OA
ATOM      2  C   UNL     1       3.574   6.467  18.903  0.00  0.00    +0.000 C 
ATOM      3  N   UNL     1       3.145   7.524  18.143  0.00  0.00    +0.000 N 
ATOM      4  C   UNL     1       2.184   8.383  18.594  0.00  0.00    +0.000 A 
ATOM      5  N   UNL     1       1.737   8.551  19.810  0.00  0.00    +0.000 NA
ATOM      6  C   UNL     1       0.732   9.510  19.807  0.00  0.00    +0.000 A 
ATOM      7  C   UNL     1       0.424  10.013  18.555  0.00  0.00    +0.000 A 
ATOM      8  S   UNL     1       1.493   9.361  17.382  0.00  0.00    +0.000 S 
ATOM      9  H   UNL     1       3.461   7.650  17.194  0.00  0.00    +0.000 HD
ENDROOT
BRANCH   6  10
ATOM     10  C   UNL     1       0.071   9.943  21.036  0.00  0.00    +0.000 A 
ATOM     11  C   UNL     1       0.201   9.197  22.204  0.00  0.00    +0.000 A 
ATOM     12  C   UNL     1      -0.426   9.650  23.363  0.00  0.00    +0.000 A 
ATOM     13  C   UNL     1      -1.162  10.827  23.321  0.00  0.00    +0.000 A 
ATOM     14  C   UNL     1      -1.240  11.509  22.118  0.00  0.00    +0.000 A 
ATOM     15  N   UNL     1      -0.640  11.099  20.979  0.00  0.00    +0.000 NA
ENDBRANCH   6  10
BRANCH   2  16
ATOM     16  C   UNL     1       4.683   5.695  18.252  0.00  0.00    +0.000 C 
ATOM     17  C   UNL     1       4.577   5.293  16.806  0.00  0.00    +0.000 C 
ATOM     18  C   UNL     1       4.489   4.231  17.876  0.00  0.00    +0.000 C 
BRANCH  18  19
ATOM     19  C   UNL     1       3.191   3.530  18.239  0.00  0.00    +0.000 A 
ATOM     20  C   UNL     1       2.010   3.798  17.515  0.00  0.00    +0.000 A 
ATOM     21  C   UNL     1       0.791   3.191  17.828  0.00  0.00    +0.000 A 
ATOM     22  C   UNL     1       0.725   2.266  18.857  0.00  0.00    +0.000 A 
ATOM     23  C   UNL     1       1.869   1.968  19.588  0.00  0.00    +0.000 A 
ATOM     24  C   UNL     1       3.103   2.598  19.303  0.00  0.00    +0.000 A 
BRANCH  24  25
ATOM     25  C   UNL     1       4.269   2.244  20.200  0.00  0.00    +0.000 C 
ATOM     26  F   UNL     1       5.242   3.192  20.311  0.00  0.00    +0.000 F 
ATOM     27  F   UNL     1       3.878   1.989  21.483  0.00  0.00    +0.000 F 
ATOM     28  F   UNL     1       4.914   1.116  19.787  0.00  0.00    +0.000 F 
ENDBRANCH  24  25
ENDBRANCH  18  19
ENDBRANCH   2  16
TORSDOF 4
ENDMDL
MODEL 7
REMARK VINA RESULT:      -8.3      4.000      8.095
REMARK  Name = 
REMARK  4 active torsions:
REMARK  status: ('A' for Active; 'I' for Inactive)
REMARK    1  A    between atoms: C_2  and  C_15
REMARK    2  A    between atoms: C_6  and  C_7
REMARK    3  A    between atoms: C_17  and  C_18
REMARK    4  A    between atoms: C_23  and  C_24
REMARK                            x       y       z     vdW  Elec       q    Type
REMARK                         _______ _______ _______ _____ _____    ______ ____
ROOT
ATOM      1  O   UNL     1       3.179   6.137  20.013  0.00  0.00    +0.000 OA
ATOM      2  C   UNL     1       3.593   6.478  18.914  0.00  0.00    +0.000 C 
ATOM      3  N   UNL     1       3.142   7.520  18.144  0.00  0.00    +0.000 N 
ATOM      4  C   UNL     1       2.183   8.379  18.598  0.00  0.00    +0.000 A 
ATOM      5  N   UNL     1       1.756   8.564  19.818  0.00  0.00    +0.000 NA
ATOM      6  C   UNL     1       0.744   9.516  19.816  0.00  0.00    +0.000 A 
ATOM      7  C   UNL     1       0.411   9.996  18.562  0.00  0.00    +0.000 A 
ATOM      8  S   UNL     1       1.464   9.331  17.381  0.00  0.00    +0.000 S 
ATOM      9  H   UNL     1       3.441   7.631  17.188  0.00  0.00    +0.000 HD
ENDROOT
BRANCH   6  10
ATOM     10  C   UNL     1       0.101   9.965  21.049  0.00  0.00    +0.000 A 
ATOM     11  C   UNL     1      -0.611  11.161  21.076  0.00  0.00    +0.000 A 
ATOM     12  C   UNL     1      -1.228  11.548  22.264  0.00  0.00    +0.000 A 
ATOM     13  C   UNL     1      -1.115  10.736  23.384  0.00  0.00    +0.000 A 
ATOM     14  C   UNL     1      -0.389   9.562  23.271  0.00  0.00    +0.000 A 
ATOM     15  N   UNL     1       0.217   9.155  22.134  0.00  0.00    +0.000 NA
ENDBRANCH   6  10
BRANCH   2  16
ATOM     16  C   UNL     1       4.695   5.704  18.257  0.00  0.00    +0.000 C 
ATOM     17  C   UNL     1       4.584   5.309  16.810  0.00  0.00    +0.000 C 
ATOM     18  C   UNL     1       4.492   4.242  17.875  0.00  0.00    +0.000 C 
BRANCH  18  19
ATOM     19  C   UNL     1       3.192   3.547  18.238  0.00  0.00    +0.000 A 
ATOM     20  C   UNL     1       2.008   3.834  17.527  0.00  0.00    +0.000 A 
ATOM     21  C   UNL     1       0.787   3.232  17.841  0.00  0.00    +0.000 A 
ATOM     22  C   UNL     1       0.721   2.294  18.857  0.00  0.00    +0.000 A 
ATOM     23  C   UNL     1       1.867   1.977  19.575  0.00  0.00    +0.000 A 
ATOM     24  C   UNL     1       3.104   2.601  19.290  0.00  0.00    +0.000 A 
BRANCH  24  25
ATOM     25  C   UNL     1       4.273   2.225  20.174  0.00  0.00    +0.000 C 
ATOM     26  F   UNL     1       4.959   1.105  19.807  0.00  0.00    +0.000 F 
ATOM     27  F   UNL     1       5.216   3.211  20.235  0.00  0.00    +0.000 F 
ATOM     28  F   UNL     1       3.894   2.005  21.465  0.00  0.00    +0.000 F 
ENDBRANCH  24  25
ENDBRANCH  18  19
ENDBRANCH   2  16
TORSDOF 4
ENDMDL
MODEL 8
REMARK VINA RESULT:      -8.2      7.230      9.493
REMARK  Name = 
REMARK  4 active torsions:
REMARK  status: ('A' for Active; 'I' for Inactive)
REMARK    1  A    between atoms: C_2  and  C_15
REMARK    2  A    between atoms: C_6  and  C_7
REMARK    3  A    between atoms: C_17  and  C_18
REMARK    4  A    between atoms: C_23  and  C_24
REMARK                            x       y       z     vdW  Elec       q    Type
REMARK                         _______ _______ _______ _____ _____    ______ ____
ROOT
ATOM      1  O   UNL     1       0.439  13.732  22.379  0.00  0.00    +0.000 OA
ATOM      2  C   UNL     1       0.316  13.667  21.165  0.00  0.00    +0.000 C 
ATOM      3  N   UNL     1       1.286  13.877  20.219  0.00  0.00    +0.000 N 
ATOM      4  C   UNL     1       2.584  14.116  20.570  0.00  0.00    +0.000 A 
ATOM      5  N   UNL     1       3.175  13.918  21.718  0.00  0.00    +0.000 NA
ATOM      6  C   UNL     1       4.498  14.333  21.637  0.00  0.00    +0.000 A 
ATOM      7  C   UNL     1       4.854  14.876  20.415  0.00  0.00    +0.000 A 
ATOM      8  S   UNL     1       3.543  14.755  19.315  0.00  0.00    +0.000 S 
ATOM      9  H   UNL     1       1.056  13.950  19.241  0.00  0.00    +0.000 HD
ENDROOT
BRANCH   6  10
ATOM     10  C   UNL     1       5.423  14.193  22.759  0.00  0.00    +0.000 A 
ATOM     11  C   UNL     1       6.791  14.068  22.531  0.00  0.00    +0.000 A 
ATOM     12  C   UNL     1       7.647  13.957  23.625  0.00  0.00    +0.000 A 
ATOM     13  C   UNL     1       7.114  13.970  24.908  0.00  0.00    +0.000 A 
ATOM     14  C   UNL     1       5.742  14.098  25.046  0.00  0.00    +0.000 A 
ATOM     15  N   UNL     1       4.886  14.214  24.007  0.00  0.00    +0.000 NA
ENDBRANCH   6  10
BRANCH   2  16
ATOM     16  C   UNL     1      -1.022  13.352  20.565  0.00  0.00    +0.000 C 
ATOM     17  C   UNL     1      -2.163  12.923  21.447  0.00  0.00    +0.000 C 
ATOM     18  C   UNL     1      -1.529  11.916  20.518  0.00  0.00    +0.000 C 
BRANCH  18  19
ATOM     19  C   UNL     1      -0.635  10.789  21.007  0.00  0.00    +0.000 A 
ATOM     20  C   UNL     1      -0.585  10.465  22.379  0.00  0.00    +0.000 A 
ATOM     21  C   UNL     1       0.238   9.450  22.875  0.00  0.00    +0.000 A 
ATOM     22  C   UNL     1       1.011   8.702  22.003  0.00  0.00    +0.000 A 
ATOM     23  C   UNL     1       0.982   8.984  20.643  0.00  0.00    +0.000 A 
ATOM     24  C   UNL     1       0.178  10.029  20.131  0.00  0.00    +0.000 A 
BRANCH  24  25
ATOM     25  C   UNL     1       0.270  10.288  18.642  0.00  0.00    +0.000 C 
ATOM     26  F   UNL     1       0.709  11.527  18.282  0.00  0.00    +0.000 F 
ATOM     27  F   UNL     1       1.114   9.418  18.015  0.00  0.00    +0.000 F 
ATOM     28  F   UNL     1      -0.934  10.140  18.018  0.00  0.00    +0.000 F 
ENDBRANCH  24  25
ENDBRANCH  18  19
ENDBRANCH   2  16
TORSDOF 4
ENDMDL
MODEL 9
REMARK VINA RESULT:      -8.1      3.938      7.564
REMARK  Name = 
REMARK  4 active torsions:
REMARK  status: ('A' for Active; 'I' for Inactive)
REMARK    1  A    between atoms: C_2  and  C_15
REMARK    2  A    between atoms: C_6  and  C_7
REMARK    3  A    between atoms: C_17  and  C_18
REMARK    4  A    between atoms: C_23  and  C_24
REMARK                            x       y       z     vdW  Elec       q    Type
REMARK                         _______ _______ _______ _____ _____    ______ ____
ROOT
ATOM      1  O   UNL     1       1.358   4.231  19.029  0.00  0.00    +0.000 OA
ATOM      2  C   UNL     1       2.284   4.267  18.232  0.00  0.00    +0.000 C 
ATOM      3  N   UNL     1       2.905   5.382  17.731  0.00  0.00    +0.000 N 
ATOM      4  C   UNL     1       2.579   6.635  18.164  0.00  0.00    +0.000 A 
ATOM      5  N   UNL     1       1.912   6.989  19.230  0.00  0.00    +0.000 NA
ATOM      6  C   UNL     1       1.786   8.372  19.260  0.00  0.00    +0.000 A 
ATOM      7  C   UNL     1       2.340   9.023  18.173  0.00  0.00    +0.000 A 
ATOM      8  S   UNL     1       3.136   7.892  17.156  0.00  0.00    +0.000 S 
ATOM      9  H   UNL     1       3.557   5.318  16.965  0.00  0.00    +0.000 HD
ENDROOT
BRANCH   6  10
ATOM     10  C   UNL     1       1.124   9.065  20.364  0.00  0.00    +0.000 A 
ATOM     11  C   UNL     1       0.732   8.363  21.501  0.00  0.00    +0.000 A 
ATOM     12  C   UNL     1       0.123   9.059  22.543  0.00  0.00    +0.000 A 
ATOM     13  C   UNL     1      -0.080  10.427  22.418  0.00  0.00    +0.000 A 
ATOM     14  C   UNL     1       0.341  11.048  21.254  0.00  0.00    +0.000 A 
ATOM     15  N   UNL     1       0.939  10.404  20.229  0.00  0.00    +0.000 NA
ENDBRANCH   6  10
BRANCH   2  16
ATOM     16  C   UNL     1       2.841   2.992  17.675  0.00  0.00    +0.000 C 
ATOM     17  C   UNL     1       3.612   2.053  18.563  0.00  0.00    +0.000 C 
ATOM     18  C   UNL     1       4.344   2.821  17.489  0.00  0.00    +0.000 C 
BRANCH  18  19
ATOM     19  C   UNL     1       5.274   3.984  17.792  0.00  0.00    +0.000 A 
ATOM     20  C   UNL     1       5.521   4.368  19.126  0.00  0.00    +0.000 A 
ATOM     21  C   UNL     1       6.353   5.443  19.449  0.00  0.00    +0.000 A 
ATOM     22  C   UNL     1       6.993   6.147  18.443  0.00  0.00    +0.000 A 
ATOM     23  C   UNL     1       6.783   5.793  17.116  0.00  0.00    +0.000 A 
ATOM     24  C   UNL     1       5.919   4.727  16.772  0.00  0.00    +0.000 A 
BRANCH  24  25
ATOM     25  C   UNL     1       5.715   4.468  15.295  0.00  0.00    +0.000 C 
ATOM     26  F   UNL     1       6.274   5.381  14.450  0.00  0.00    +0.000 F 
ATOM     27  F   UNL     1       6.229   3.266  14.903  0.00  0.00    +0.000 F 
ATOM     28  F   UNL     1       4.396   4.428  14.955  0.00  0.00    +0.000 F 
ENDBRANCH  24  25
ENDBRANCH  18  19
ENDBRANCH   2  16
TORSDOF 4
ENDMDL
