MODEL 1
REMARK VINA RESULT:      -8.5      0.000      0.000
REMARK  Name = 
REMARK  10 active torsions:
REMARK  status: ('A' for Active; 'I' for Inactive)
REMARK    1  A    between atoms: C_1  and  C_2
REMARK    2  A    between atoms: C_6  and  C_7
REMARK    3  A    between atoms: C_7  and  O_8
REMARK    4  A    between atoms: O_8  and  C_9
REMARK    5  A    between atoms: C_13  and  C_14
REMARK    6  A    between atoms: C_14  and  C_15
REMARK    7  A    between atoms: N_17  and  C_18
REMARK    8  A    between atoms: C_22  and  C_23
REMARK    9  A    between atoms: C_23  and  C_24
REMARK   10  A    between atoms: C_24  and  O_26
REMARK                            x       y       z     vdW  Elec       q    Type
REMARK                         _______ _______ _______ _____ _____    ______ ____
ROOT
ATOM      1  C   UNL     1       8.026   7.174  18.401  0.00  0.00    +0.000 C 
ENDROOT
BRANCH   1   6
ATOM      2  C   UNL     1       4.501   6.478  17.134  0.00  0.00    +0.000 A 
ATOM      3  C   UNL     1       4.755   5.647  16.045  0.00  0.00    +0.000 A 
ATOM      4  C   UNL     1       6.066   5.301  15.716  0.00  0.00    +0.000 A 
ATOM      5  C   UNL     1       7.130   5.798  16.470  0.00  0.00    +0.000 A 
ATOM      6  C   UNL     1       6.892   6.672  17.539  0.00  0.00    +0.000 A 
ATOM      7  C   UNL     1       5.567   7.015  17.857  0.00  0.00    +0.000 A 
BRANCH   2   8
ATOM      8  O   UNL     1       3.179   6.706  17.410  0.00  0.00    +0.000 OA
BRANCH   8   9
ATOM      9  C   UNL     1       2.812   6.547  18.783  0.00  0.00    +0.000 C 
BRANCH   9  15
ATOM     10  C   UNL     1       1.718   2.768  21.918  0.00  0.00    +0.000 C 
ATOM     11  C   UNL     1       1.721   3.332  20.529  0.00  0.00    +0.000 A 
ATOM     12  C   UNL     1       1.178   2.618  19.458  0.00  0.00    +0.000 A 
ATOM     13  C   UNL     1       1.180   3.162  18.172  0.00  0.00    +0.000 A 
ATOM     14  C   UNL     1       1.722   4.425  17.947  0.00  0.00    +0.000 A 
ATOM     15  C   UNL     1       2.273   5.157  19.005  0.00  0.00    +0.000 A 
ATOM     16  C   UNL     1       2.264   4.602  20.295  0.00  0.00    +0.000 A 
ENDBRANCH   9  15
ENDBRANCH   8   9
ENDBRANCH   2   8
ENDBRANCH   1   6
BRANCH   1  17
ATOM     17  C   UNL     1       8.332   8.657  18.287  0.00  0.00    +0.000 C 
ATOM     18  O   UNL     1       8.003   9.285  17.281  0.00  0.00    +0.000 OA
ATOM     19  N   UNL     1       9.104   9.173  19.316  0.00  0.00    +0.000 N 
ATOM     20  H   UNL     1       9.618   8.502  19.875  0.00  0.00    +0.000 HD
BRANCH  19  21
ATOM     21  C   UNL     1       9.555  10.507  19.333  0.00  0.00    +0.000 A 
ATOM     22  C   UNL     1       9.461  11.219  20.528  0.00  0.00    +0.000 A 
ATOM     23  C   UNL     1       9.965  12.517  20.605  0.00  0.00    +0.000 A 
ATOM     24  C   UNL     1      10.498  13.134  19.473  0.00  0.00    +0.000 A 
ATOM     25  C   UNL     1      10.532  12.457  18.246  0.00  0.00    +0.000 A 
ATOM     26  C   UNL     1      10.085  11.126  18.194  0.00  0.00    +0.000 A 
BRANCH  25  27
ATOM     27  C   UNL     1      11.059  13.148  17.007  0.00  0.00    +0.000 C 
BRANCH  27  28
ATOM     28  C   UNL     1      11.091  14.663  17.067  0.00  0.00    +0.000 C 
ATOM     29  O   UNL     1      10.102  15.344  17.283  0.00  0.00    +0.000 OA
BRANCH  28  30
ATOM     30  O   UNL     1      12.317  15.220  16.942  0.00  0.00    +0.000 OA
ATOM     31  H   UNL     1      12.458  15.995  17.524  0.00  0.00    +0.000 HD
ENDBRANCH  28  30
ENDBRANCH  27  28
ENDBRANCH  25  27
ENDBRANCH  19  21
ENDBRANCH   1  17
TORSDOF 9
ENDMDL
MODEL 2
REMARK VINA RESULT:      -8.2      1.736      2.679
REMARK  Name = 
REMARK  10 active torsions:
REMARK  status: ('A' for Active; 'I' for Inactive)
REMARK    1  A    between atoms: C_1  and  C_2
REMARK    2  A    between atoms: C_6  and  C_7
REMARK    3  A    between atoms: C_7  and  O_8
REMARK    4  A    between atoms: O_8  and  C_9
REMARK    5  A    between atoms: C_13  and  C_14
REMARK    6  A    between atoms: C_14  and  C_15
REMARK    7  A    between atoms: N_17  and  C_18
REMARK    8  A    between atoms: C_22  and  C_23
REMARK    9  A    between atoms: C_23  and  C_24
REMARK   10  A    between atoms: C_24  and  O_26
REMARK                            x       y       z     vdW  Elec       q    Type
REMARK                         _______ _______ _______ _____ _____    ______ ____
ROOT
ATOM      1  C   UNL     1       7.753   9.006  17.615  0.00  0.00    +0.000 C 
ENDROOT
BRANCH   1   6
ATOM      2  C   UNL     1       7.177   5.266  17.170  0.00  0.00    +0.000 A 
ATOM      3  C   UNL     1       7.708   4.760  18.355  0.00  0.00    +0.000 A 
ATOM      4  C   UNL     1       8.251   5.623  19.307  0.00  0.00    +0.000 A 
ATOM      5  C   UNL     1       8.276   6.998  19.071  0.00  0.00    +0.000 A 
ATOM      6  C   UNL     1       7.787   7.517  17.865  0.00  0.00    +0.000 A 
ATOM      7  C   UNL     1       7.247   6.636  16.912  0.00  0.00    +0.000 A 
BRANCH   2   8
ATOM      8  O   UNL     1       6.613   4.343  16.331  0.00  0.00    +0.000 OA
BRANCH   8   9
ATOM      9  C   UNL     1       5.380   4.746  15.731  0.00  0.00    +0.000 C 
BRANCH   9  15
ATOM     10  C   UNL     1       2.306   2.113  18.718  0.00  0.00    +0.000 C 
ATOM     11  C   UNL     1       2.806   3.439  18.228  0.00  0.00    +0.000 A 
ATOM     12  C   UNL     1       2.313   4.636  18.755  0.00  0.00    +0.000 A 
ATOM     13  C   UNL     1       2.795   5.862  18.294  0.00  0.00    +0.000 A 
ATOM     14  C   UNL     1       3.775   5.902  17.304  0.00  0.00    +0.000 A 
ATOM     15  C   UNL     1       4.281   4.715  16.762  0.00  0.00    +0.000 A 
ATOM     16  C   UNL     1       3.791   3.487  17.234  0.00  0.00    +0.000 A 
ENDBRANCH   9  15
ENDBRANCH   8   9
ENDBRANCH   2   8
ENDBRANCH   1   6
BRANCH   1  17
ATOM     17  C   UNL     1       8.764   9.827  18.396  0.00  0.00    +0.000 C 
ATOM     18  O   UNL     1       8.799   9.766  19.625  0.00  0.00    +0.000 OA
ATOM     19  N   UNL     1       9.509  10.712  17.633  0.00  0.00    +0.000 N 
ATOM     20  H   UNL     1       9.142  10.939  16.717  0.00  0.00    +0.000 HD
BRANCH  19  21
ATOM     21  C   UNL     1      10.432  11.613  18.199  0.00  0.00    +0.000 A 
ATOM     22  C   UNL     1      11.041  11.261  19.404  0.00  0.00    +0.000 A 
ATOM     23  C   UNL     1      12.015  12.091  19.959  0.00  0.00    +0.000 A 
ATOM     24  C   UNL     1      12.333  13.307  19.353  0.00  0.00    +0.000 A 
ATOM     25  C   UNL     1      11.677  13.708  18.181  0.00  0.00    +0.000 A 
ATOM     26  C   UNL     1      10.747  12.835  17.592  0.00  0.00    +0.000 A 
BRANCH  25  27
ATOM     27  C   UNL     1      11.983  15.052  17.556  0.00  0.00    +0.000 C 
BRANCH  27  28
ATOM     28  C   UNL     1      10.774  15.874  17.148  0.00  0.00    +0.000 C 
ATOM     29  O   UNL     1      10.000  16.366  17.953  0.00  0.00    +0.000 OA
BRANCH  28  30
ATOM     30  O   UNL     1      10.650  16.098  15.821  0.00  0.00    +0.000 OA
ATOM     31  H   UNL     1      11.338  15.659  15.281  0.00  0.00    +0.000 HD
ENDBRANCH  28  30
ENDBRANCH  27  28
ENDBRANCH  25  27
ENDBRANCH  19  21
ENDBRANCH   1  17
TORSDOF 9
ENDMDL
MODEL 3
REMARK VINA RESULT:      -8.2      5.664      8.551
REMARK  Name = 
REMARK  10 active torsions:
REMARK  status: ('A' for Active; 'I' for Inactive)
REMARK    1  A    between atoms: C_1  and  C_2
REMARK    2  A    between atoms: C_6  and  C_7
REMARK    3  A    between atoms: C_7  and  O_8
REMARK    4  A    between atoms: O_8  and  C_9
REMARK    5  A    between atoms: C_13  and  C_14
REMARK    6  A    between atoms: C_14  and  C_15
REMARK    7  A    between atoms: N_17  and  C_18
REMARK    8  A    between atoms: C_22  and  C_23
REMARK    9  A    between atoms: C_23  and  C_24
REMARK   10  A    between atoms: C_24  and  O_26
REMARK                            x       y       z     vdW  Elec       q    Type
REMARK                         _______ _______ _______ _____ _____    ______ ____
ROOT
ATOM      1  C   UNL     1       6.412   5.243  18.390  0.00  0.00    +0.000 C 
ENDROOT
BRANCH   1   6
ATOM      2  C   UNL     1       2.927   6.748  18.077  0.00  0.00    +0.000 A 
ATOM      3  C   UNL     1       2.166   5.846  18.818  0.00  0.00    +0.000 A 
ATOM      4  C   UNL     1       2.775   4.748  19.427  0.00  0.00    +0.000 A 
ATOM      5  C   UNL     1       4.148   4.543  19.287  0.00  0.00    +0.000 A 
ATOM      6  C   UNL     1       4.917   5.417  18.507  0.00  0.00    +0.000 A 
ATOM      7  C   UNL     1       4.290   6.515  17.895  0.00  0.00    +0.000 A 
BRANCH   2   8
ATOM      8  O   UNL     1       2.245   7.824  17.573  0.00  0.00    +0.000 OA
BRANCH   8   9
ATOM      9  C   UNL     1       2.387   9.034  18.322  0.00  0.00    +0.000 C 
BRANCH   9  15
ATOM     10  C   UNL     1      -2.295  10.006  16.759  0.00  0.00    +0.000 C 
ATOM     11  C   UNL     1      -1.251  10.082  17.832  0.00  0.00    +0.000 A 
ATOM     12  C   UNL     1      -1.539  10.640  19.081  0.00  0.00    +0.000 A 
ATOM     13  C   UNL     1      -0.558  10.695  20.073  0.00  0.00    +0.000 A 
ATOM     14  C   UNL     1       0.718  10.192  19.826  0.00  0.00    +0.000 A 
ATOM     15  C   UNL     1       1.027   9.631  18.582  0.00  0.00    +0.000 A 
ATOM     16  C   UNL     1       0.034   9.578  17.592  0.00  0.00    +0.000 A 
ENDBRANCH   9  15
ENDBRANCH   8   9
ENDBRANCH   2   8
ENDBRANCH   1   6
BRANCH   1  17
ATOM     17  C   UNL     1       6.916   4.764  17.039  0.00  0.00    +0.000 C 
ATOM     18  O   UNL     1       8.012   4.212  16.944  0.00  0.00    +0.000 OA
ATOM     19  N   UNL     1       6.120   5.119  15.961  0.00  0.00    +0.000 N 
ATOM     20  H   UNL     1       5.461   5.873  16.115  0.00  0.00    +0.000 HD
BRANCH  19  21
ATOM     21  C   UNL     1       6.475   4.834  14.628  0.00  0.00    +0.000 A 
ATOM     22  C   UNL     1       7.464   5.614  14.030  0.00  0.00    +0.000 A 
ATOM     23  C   UNL     1       7.896   5.317  12.738  0.00  0.00    +0.000 A 
ATOM     24  C   UNL     1       7.293   4.288  12.013  0.00  0.00    +0.000 A 
ATOM     25  C   UNL     1       6.248   3.543  12.574  0.00  0.00    +0.000 A 
ATOM     26  C   UNL     1       5.866   3.804  13.901  0.00  0.00    +0.000 A 
BRANCH  25  27
ATOM     27  C   UNL     1       5.558   2.465  11.766  0.00  0.00    +0.000 C 
BRANCH  27  28
ATOM     28  C   UNL     1       6.454   1.348  11.266  0.00  0.00    +0.000 C 
ATOM     29  O   UNL     1       7.580   1.538  10.837  0.00  0.00    +0.000 OA
BRANCH  28  30
ATOM     30  O   UNL     1       5.950   0.100  11.399  0.00  0.00    +0.000 OA
ATOM     31  H   UNL     1       5.827  -0.177  12.330  0.00  0.00    +0.000 HD
ENDBRANCH  28  30
ENDBRANCH  27  28
ENDBRANCH  25  27
ENDBRANCH  19  21
ENDBRANCH   1  17
TORSDOF 9
ENDMDL
MODEL 4
REMARK VINA RESULT:      -8.1      6.129      8.890
REMARK  Name = 
REMARK  10 active torsions:
REMARK  status: ('A' for Active; 'I' for Inactive)
REMARK    1  A    between atoms: C_1  and  C_2
REMARK    2  A    between atoms: C_6  and  C_7
REMARK    3  A    between atoms: C_7  and  O_8
REMARK    4  A    between atoms: O_8  and  C_9
REMARK    5  A    between atoms: C_13  and  C_14
REMARK    6  A    between atoms: C_14  and  C_15
REMARK    7  A    between atoms: N_17  and  C_18
REMARK    8  A    between atoms: C_22  and  C_23
REMARK    9  A    between atoms: C_23  and  C_24
REMARK   10  A    between atoms: C_24  and  O_26
REMARK                            x       y       z     vdW  Elec       q    Type
REMARK                         _______ _______ _______ _____ _____    ______ ____
ROOT
ATOM      1  C   UNL     1       2.352   6.765  19.883  0.00  0.00    +0.000 C 
ENDROOT
BRANCH   1   6
ATOM      2  C   UNL     1       4.012   4.424  17.377  0.00  0.00    +0.000 A 
ATOM      3  C   UNL     1       2.969   3.547  17.083  0.00  0.00    +0.000 A 
ATOM      4  C   UNL     1       1.723   3.709  17.687  0.00  0.00    +0.000 A 
ATOM      5  C   UNL     1       1.518   4.744  18.600  0.00  0.00    +0.000 A 
ATOM      6  C   UNL     1       2.570   5.605  18.940  0.00  0.00    +0.000 A 
ATOM      7  C   UNL     1       3.822   5.428  18.328  0.00  0.00    +0.000 A 
BRANCH   2   8
ATOM      8  O   UNL     1       5.175   4.216  16.685  0.00  0.00    +0.000 OA
BRANCH   8   9
ATOM      9  C   UNL     1       5.618   5.328  15.902  0.00  0.00    +0.000 C 
BRANCH   9  15
ATOM     10  C   UNL     1       4.811   2.788  11.635  0.00  0.00    +0.000 C 
ATOM     11  C   UNL     1       5.717   3.627  12.486  0.00  0.00    +0.000 A 
ATOM     12  C   UNL     1       6.982   4.011  12.033  0.00  0.00    +0.000 A 
ATOM     13  C   UNL     1       7.810   4.800  12.834  0.00  0.00    +0.000 A 
ATOM     14  C   UNL     1       7.379   5.214  14.093  0.00  0.00    +0.000 A 
ATOM     15  C   UNL     1       6.116   4.840  14.566  0.00  0.00    +0.000 A 
ATOM     16  C   UNL     1       5.290   4.048  13.752  0.00  0.00    +0.000 A 
ENDBRANCH   9  15
ENDBRANCH   8   9
ENDBRANCH   2   8
ENDBRANCH   1   6
BRANCH   1  17
ATOM     17  C   UNL     1       1.814   8.036  19.250  0.00  0.00    +0.000 C 
ATOM     18  O   UNL     1       2.199   8.387  18.135  0.00  0.00    +0.000 OA
ATOM     19  N   UNL     1       0.995   8.795  20.071  0.00  0.00    +0.000 N 
ATOM     20  H   UNL     1       1.052   8.605  21.064  0.00  0.00    +0.000 HD
BRANCH  19  21
ATOM     21  C   UNL     1       0.476  10.045  19.681  0.00  0.00    +0.000 A 
ATOM     22  C   UNL     1       1.085  11.195  20.181  0.00  0.00    +0.000 A 
ATOM     23  C   UNL     1       0.649  12.451  19.760  0.00  0.00    +0.000 A 
ATOM     24  C   UNL     1      -0.442  12.566  18.898  0.00  0.00    +0.000 A 
ATOM     25  C   UNL     1      -1.111  11.421  18.445  0.00  0.00    +0.000 A 
ATOM     26  C   UNL     1      -0.622  10.158  18.819  0.00  0.00    +0.000 A 
BRANCH  25  27
ATOM     27  C   UNL     1      -2.329  11.549  17.556  0.00  0.00    +0.000 C 
BRANCH  27  28
ATOM     28  C   UNL     1      -2.890  10.244  17.023  0.00  0.00    +0.000 C 
ATOM     29  O   UNL     1      -3.658   9.540  17.658  0.00  0.00    +0.000 OA
BRANCH  28  30
ATOM     30  O   UNL     1      -2.545   9.944  15.751  0.00  0.00    +0.000 OA
ATOM     31  H   UNL     1      -3.225   9.429  15.270  0.00  0.00    +0.000 HD
ENDBRANCH  28  30
ENDBRANCH  27  28
ENDBRANCH  25  27
ENDBRANCH  19  21
ENDBRANCH   1  17
TORSDOF 9
ENDMDL
MODEL 5
REMARK VINA RESULT:      -8.0      5.229      8.614
REMARK  Name = 
REMARK  10 active torsions:
REMARK  status: ('A' for Active; 'I' for Inactive)
REMARK    1  A    between atoms: C_1  and  C_2
REMARK    2  A    between atoms: C_6  and  C_7
REMARK    3  A    between atoms: C_7  and  O_8
REMARK    4  A    between atoms: O_8  and  C_9
REMARK    5  A    between atoms: C_13  and  C_14
REMARK    6  A    between atoms: C_14  and  C_15
REMARK    7  A    between atoms: N_17  and  C_18
REMARK    8  A    between atoms: C_22  and  C_23
REMARK    9  A    between atoms: C_23  and  C_24
REMARK   10  A    between atoms: C_24  and  O_26
REMARK                            x       y       z     vdW  Elec       q    Type
REMARK                         _______ _______ _______ _____ _____    ______ ____
ROOT
ATOM      1  C   UNL     1       2.029   6.928  21.017  0.00  0.00    +0.000 C 
ENDROOT
BRANCH   1   6
ATOM      2  C   UNL     1       3.112   3.612  19.486  0.00  0.00    +0.000 A 
ATOM      3  C   UNL     1       1.906   2.915  19.450  0.00  0.00    +0.000 A 
ATOM      4  C   UNL     1       0.735   3.513  19.916  0.00  0.00    +0.000 A 
ATOM      5  C   UNL     1       0.769   4.809  20.431  0.00  0.00    +0.000 A 
ATOM      6  C   UNL     1       1.982   5.505  20.515  0.00  0.00    +0.000 A 
ATOM      7  C   UNL     1       3.155   4.889  20.048  0.00  0.00    +0.000 A 
BRANCH   2   8
ATOM      8  O   UNL     1       4.190   2.961  18.949  0.00  0.00    +0.000 OA
BRANCH   8   9
ATOM      9  C   UNL     1       4.419   3.214  17.560  0.00  0.00    +0.000 C 
BRANCH   9  15
ATOM     10  C   UNL     1       8.099   6.356  18.936  0.00  0.00    +0.000 C 
ATOM     11  C   UNL     1       6.931   6.046  18.048  0.00  0.00    +0.000 A 
ATOM     12  C   UNL     1       6.538   6.929  17.038  0.00  0.00    +0.000 A 
ATOM     13  C   UNL     1       5.454   6.621  16.214  0.00  0.00    +0.000 A 
ATOM     14  C   UNL     1       4.755   5.428  16.390  0.00  0.00    +0.000 A 
ATOM     15  C   UNL     1       5.132   4.531  17.396  0.00  0.00    +0.000 A 
ATOM     16  C   UNL     1       6.224   4.848  18.218  0.00  0.00    +0.000 A 
ENDBRANCH   9  15
ENDBRANCH   8   9
ENDBRANCH   2   8
ENDBRANCH   1   6
BRANCH   1  17
ATOM     17  C   UNL     1       1.558   7.988  20.037  0.00  0.00    +0.000 C 
ATOM     18  O   UNL     1       1.976   7.995  18.880  0.00  0.00    +0.000 OA
ATOM     19  N   UNL     1       0.759   8.978  20.588  0.00  0.00    +0.000 N 
ATOM     20  H   UNL     1       0.791   9.074  21.596  0.00  0.00    +0.000 HD
BRANCH  19  21
ATOM     21  C   UNL     1       0.302  10.085  19.848  0.00  0.00    +0.000 A 
ATOM     22  C   UNL     1       1.120  11.213  19.778  0.00  0.00    +0.000 A 
ATOM     23  C   UNL     1       0.737  12.301  18.994  0.00  0.00    +0.000 A 
ATOM     24  C   UNL     1      -0.494  12.298  18.338  0.00  0.00    +0.000 A 
ATOM     25  C   UNL     1      -1.359  11.202  18.458  0.00  0.00    +0.000 A 
ATOM     26  C   UNL     1      -0.936  10.082  19.193  0.00  0.00    +0.000 A 
BRANCH  25  27
ATOM     27  C   UNL     1      -2.718  11.224  17.791  0.00  0.00    +0.000 C 
BRANCH  27  28
ATOM     28  C   UNL     1      -2.749  10.736  16.355  0.00  0.00    +0.000 C 
ATOM     29  O   UNL     1      -2.561   9.572  16.042  0.00  0.00    +0.000 OA
BRANCH  28  30
ATOM     30  O   UNL     1      -3.083  11.669  15.435  0.00  0.00    +0.000 OA
ATOM     31  H   UNL     1      -3.439  12.495  15.823  0.00  0.00    +0.000 HD
ENDBRANCH  28  30
ENDBRANCH  27  28
ENDBRANCH  25  27
ENDBRANCH  19  21
ENDBRANCH   1  17
TORSDOF 9
ENDMDL
MODEL 6
REMARK VINA RESULT:      -7.9      5.451      8.981
REMARK  Name = 
REMARK  10 active torsions:
REMARK  status: ('A' for Active; 'I' for Inactive)
REMARK    1  A    between atoms: C_1  and  C_2
REMARK    2  A    between atoms: C_6  and  C_7
REMARK    3  A    between atoms: C_7  and  O_8
REMARK    4  A    between atoms: O_8  and  C_9
REMARK    5  A    between atoms: C_13  and  C_14
REMARK    6  A    between atoms: C_14  and  C_15
REMARK    7  A    between atoms: N_17  and  C_18
REMARK    8  A    between atoms: C_22  and  C_23
REMARK    9  A    between atoms: C_23  and  C_24
REMARK   10  A    between atoms: C_24  and  O_26
REMARK                            x       y       z     vdW  Elec       q    Type
REMARK                         _______ _______ _______ _____ _____    ______ ____
ROOT
ATOM      1  C   UNL     1       2.346   8.964  17.874  0.00  0.00    +0.000 C 
ENDROOT
BRANCH   1   6
ATOM      2  C   UNL     1       2.298   5.240  18.675  0.00  0.00    +0.000 A 
ATOM      3  C   UNL     1       1.995   5.252  20.035  0.00  0.00    +0.000 A 
ATOM      4  C   UNL     1       1.799   6.462  20.701  0.00  0.00    +0.000 A 
ATOM      5  C   UNL     1       1.918   7.668  20.010  0.00  0.00    +0.000 A 
ATOM      6  C   UNL     1       2.268   7.672  18.653  0.00  0.00    +0.000 A 
ATOM      7  C   UNL     1       2.467   6.447  17.995  0.00  0.00    +0.000 A 
BRANCH   2   8
ATOM      8  O   UNL     1       2.409   4.001  18.103  0.00  0.00    +0.000 OA
BRANCH   8   9
ATOM      9  C   UNL     1       3.573   3.262  18.483  0.00  0.00    +0.000 C 
BRANCH   9  15
ATOM     10  C   UNL     1       7.899   5.748  19.125  0.00  0.00    +0.000 C 
ATOM     11  C   UNL     1       6.909   5.095  18.207  0.00  0.00    +0.000 A 
ATOM     12  C   UNL     1       7.138   5.027  16.830  0.00  0.00    +0.000 A 
ATOM     13  C   UNL     1       6.211   4.409  15.989  0.00  0.00    +0.000 A 
ATOM     14  C   UNL     1       5.048   3.851  16.518  0.00  0.00    +0.000 A 
ATOM     15  C   UNL     1       4.799   3.910  17.894  0.00  0.00    +0.000 A 
ATOM     16  C   UNL     1       5.739   4.532  18.731  0.00  0.00    +0.000 A 
ENDBRANCH   9  15
ENDBRANCH   8   9
ENDBRANCH   2   8
ENDBRANCH   1   6
BRANCH   1  17
ATOM     17  C   UNL     1       1.239   9.967  18.149  0.00  0.00    +0.000 C 
ATOM     18  O   UNL     1       1.465  10.975  18.818  0.00  0.00    +0.000 OA
ATOM     19  N   UNL     1      -0.019   9.580  17.713  0.00  0.00    +0.000 N 
ATOM     20  H   UNL     1      -0.146   8.594  17.519  0.00  0.00    +0.000 HD
BRANCH  19  21
ATOM     21  C   UNL     1      -1.176  10.345  17.958  0.00  0.00    +0.000 A 
ATOM     22  C   UNL     1      -2.169  10.368  16.979  0.00  0.00    +0.000 A 
ATOM     23  C   UNL     1      -3.362  11.051  17.213  0.00  0.00    +0.000 A 
ATOM     24  C   UNL     1      -3.538  11.774  18.394  0.00  0.00    +0.000 A 
ATOM     25  C   UNL     1      -2.520  11.820  19.356  0.00  0.00    +0.000 A 
ATOM     26  C   UNL     1      -1.350  11.073  19.141  0.00  0.00    +0.000 A 
BRANCH  25  27
ATOM     27  C   UNL     1      -2.691  12.650  20.610  0.00  0.00    +0.000 C 
BRANCH  27  28
ATOM     28  C   UNL     1      -2.177  14.074  20.527  0.00  0.00    +0.000 C 
ATOM     29  O   UNL     1      -0.993  14.351  20.428  0.00  0.00    +0.000 OA
BRANCH  28  30
ATOM     30  O   UNL     1      -3.131  15.032  20.490  0.00  0.00    +0.000 OA
ATOM     31  H   UNL     1      -3.918  14.783  19.963  0.00  0.00    +0.000 HD
ENDBRANCH  28  30
ENDBRANCH  27  28
ENDBRANCH  25  27
ENDBRANCH  19  21
ENDBRANCH   1  17
TORSDOF 9
ENDMDL
MODEL 7
REMARK VINA RESULT:      -7.9      5.700      8.847
REMARK  Name = 
REMARK  10 active torsions:
REMARK  status: ('A' for Active; 'I' for Inactive)
REMARK    1  A    between atoms: C_1  and  C_2
REMARK    2  A    between atoms: C_6  and  C_7
REMARK    3  A    between atoms: C_7  and  O_8
REMARK    4  A    between atoms: O_8  and  C_9
REMARK    5  A    between atoms: C_13  and  C_14
REMARK    6  A    between atoms: C_14  and  C_15
REMARK    7  A    between atoms: N_17  and  C_18
REMARK    8  A    between atoms: C_22  and  C_23
REMARK    9  A    between atoms: C_23  and  C_24
REMARK   10  A    between atoms: C_24  and  O_26
REMARK                            x       y       z     vdW  Elec       q    Type
REMARK                         _______ _______ _______ _____ _____    ______ ____
ROOT
ATOM      1  C   UNL     1       2.130   8.818  17.718  0.00  0.00    +0.000 C 
ENDROOT
BRANCH   1   6
ATOM      2  C   UNL     1       2.553   5.193  18.810  0.00  0.00    +0.000 A 
ATOM      3  C   UNL     1       2.272   5.278  20.173  0.00  0.00    +0.000 A 
ATOM      4  C   UNL     1       1.939   6.505  20.746  0.00  0.00    +0.000 A 
ATOM      5  C   UNL     1       1.898   7.656  19.959  0.00  0.00    +0.000 A 
ATOM      6  C   UNL     1       2.223   7.593  18.597  0.00  0.00    +0.000 A 
ATOM      7  C   UNL     1       2.562   6.352  18.034  0.00  0.00    +0.000 A 
BRANCH   2   8
ATOM      8  O   UNL     1       2.808   3.934  18.335  0.00  0.00    +0.000 OA
BRANCH   8   9
ATOM      9  C   UNL     1       4.075   3.391  18.711  0.00  0.00    +0.000 C 
BRANCH   9  15
ATOM     10  C   UNL     1       5.884   4.078  14.067  0.00  0.00    +0.000 C 
ATOM     11  C   UNL     1       6.014   4.284  15.546  0.00  0.00    +0.000 A 
ATOM     12  C   UNL     1       7.077   5.017  16.082  0.00  0.00    +0.000 A 
ATOM     13  C   UNL     1       7.179   5.207  17.461  0.00  0.00    +0.000 A 
ATOM     14  C   UNL     1       6.220   4.669  18.317  0.00  0.00    +0.000 A 
ATOM     15  C   UNL     1       5.148   3.930  17.801  0.00  0.00    +0.000 A 
ATOM     16  C   UNL     1       5.053   3.746  16.412  0.00  0.00    +0.000 A 
ENDBRANCH   9  15
ENDBRANCH   8   9
ENDBRANCH   2   8
ENDBRANCH   1   6
BRANCH   1  17
ATOM     17  C   UNL     1       1.391  10.002  18.316  0.00  0.00    +0.000 C 
ATOM     18  O   UNL     1       1.958  11.087  18.446  0.00  0.00    +0.000 OA
ATOM     19  N   UNL     1       0.126   9.715  18.803  0.00  0.00    +0.000 N 
ATOM     20  H   UNL     1      -0.079   8.739  18.978  0.00  0.00    +0.000 HD
BRANCH  19  21
ATOM     21  C   UNL     1      -0.668  10.670  19.467  0.00  0.00    +0.000 A 
ATOM     22  C   UNL     1      -1.579  11.408  18.712  0.00  0.00    +0.000 A 
ATOM     23  C   UNL     1      -2.436  12.310  19.343  0.00  0.00    +0.000 A 
ATOM     24  C   UNL     1      -2.336  12.532  20.716  0.00  0.00    +0.000 A 
ATOM     25  C   UNL     1      -1.376  11.852  21.477  0.00  0.00    +0.000 A 
ATOM     26  C   UNL     1      -0.564  10.895  20.845  0.00  0.00    +0.000 A 
BRANCH  25  27
ATOM     27  C   UNL     1      -1.232  12.136  22.957  0.00  0.00    +0.000 C 
BRANCH  27  28
ATOM     28  C   UNL     1      -1.245  13.602  23.346  0.00  0.00    +0.000 C 
ATOM     29  O   UNL     1      -0.335  14.371  23.083  0.00  0.00    +0.000 OA
BRANCH  28  30
ATOM     30  O   UNL     1      -2.380  14.031  23.942  0.00  0.00    +0.000 OA
ATOM     31  H   UNL     1      -2.336  14.031  24.920  0.00  0.00    +0.000 HD
ENDBRANCH  28  30
ENDBRANCH  27  28
ENDBRANCH  25  27
ENDBRANCH  19  21
ENDBRANCH   1  17
TORSDOF 9
ENDMDL
MODEL 8
REMARK VINA RESULT:      -7.9      1.828      2.368
REMARK  Name = 
REMARK  10 active torsions:
REMARK  status: ('A' for Active; 'I' for Inactive)
REMARK    1  A    between atoms: C_1  and  C_2
REMARK    2  A    between atoms: C_6  and  C_7
REMARK    3  A    between atoms: C_7  and  O_8
REMARK    4  A    between atoms: O_8  and  C_9
REMARK    5  A    between atoms: C_13  and  C_14
REMARK    6  A    between atoms: C_14  and  C_15
REMARK    7  A    between atoms: N_17  and  C_18
REMARK    8  A    between atoms: C_22  and  C_23
REMARK    9  A    between atoms: C_23  and  C_24
REMARK   10  A    between atoms: C_24  and  O_26
REMARK                            x       y       z     vdW  Elec       q    Type
REMARK                         _______ _______ _______ _____ _____    ______ ____
ROOT
ATOM      1  C   UNL     1       7.821   6.403  18.400  0.00  0.00    +0.000 C 
ENDROOT
BRANCH   1   6
ATOM      2  C   UNL     1       5.278   3.996  16.898  0.00  0.00    +0.000 A 
ATOM      3  C   UNL     1       5.615   4.043  15.546  0.00  0.00    +0.000 A 
ATOM      4  C   UNL     1       6.667   4.849  15.112  0.00  0.00    +0.000 A 
ATOM      5  C   UNL     1       7.381   5.621  16.029  0.00  0.00    +0.000 A 
ATOM      6  C   UNL     1       7.025   5.618  17.384  0.00  0.00    +0.000 A 
ATOM      7  C   UNL     1       5.959   4.806  17.807  0.00  0.00    +0.000 A 
BRANCH   2   8
ATOM      8  O   UNL     1       4.272   3.128  17.229  0.00  0.00    +0.000 OA
BRANCH   8   9
ATOM      9  C   UNL     1       2.951   3.660  17.105  0.00  0.00    +0.000 C 
BRANCH   9  15
ATOM     10  C   UNL     1       1.299   2.676  21.754  0.00  0.00    +0.000 C 
ATOM     11  C   UNL     1       1.697   3.677  20.711  0.00  0.00    +0.000 A 
ATOM     12  C   UNL     1       1.691   5.048  20.985  0.00  0.00    +0.000 A 
ATOM     13  C   UNL     1       2.072   5.966  20.005  0.00  0.00    +0.000 A 
ATOM     14  C   UNL     1       2.465   5.522  18.743  0.00  0.00    +0.000 A 
ATOM     15  C   UNL     1       2.476   4.154  18.448  0.00  0.00    +0.000 A 
ATOM     16  C   UNL     1       2.093   3.239  19.440  0.00  0.00    +0.000 A 
ENDBRANCH   9  15
ENDBRANCH   8   9
ENDBRANCH   2   8
ENDBRANCH   1   6
BRANCH   1  17
ATOM     17  C   UNL     1       7.950   7.892  18.127  0.00  0.00    +0.000 C 
ATOM     18  O   UNL     1       7.480   8.379  17.099  0.00  0.00    +0.000 OA
ATOM     19  N   UNL     1       8.733   8.585  19.037  0.00  0.00    +0.000 N 
ATOM     20  H   UNL     1       9.358   8.031  19.609  0.00  0.00    +0.000 HD
BRANCH  19  21
ATOM     21  C   UNL     1       9.032   9.954  18.894  0.00  0.00    +0.000 A 
ATOM     22  C   UNL     1      10.081  10.480  19.647  0.00  0.00    +0.000 A 
ATOM     23  C   UNL     1      10.457  11.813  19.479  0.00  0.00    +0.000 A 
ATOM     24  C   UNL     1       9.743  12.642  18.615  0.00  0.00    +0.000 A 
ATOM     25  C   UNL     1       8.640  12.146  17.905  0.00  0.00    +0.000 A 
ATOM     26  C   UNL     1       8.311  10.786  18.029  0.00  0.00    +0.000 A 
BRANCH  25  27
ATOM     27  C   UNL     1       7.832  13.062  17.011  0.00  0.00    +0.000 C 
BRANCH  27  28
ATOM     28  C   UNL     1       7.177  14.242  17.704  0.00  0.00    +0.000 C 
ATOM     29  O   UNL     1       7.805  15.199  18.128  0.00  0.00    +0.000 OA
BRANCH  28  30
ATOM     30  O   UNL     1       5.827  14.206  17.754  0.00  0.00    +0.000 OA
ATOM     31  H   UNL     1       5.438  14.853  18.377  0.00  0.00    +0.000 HD
ENDBRANCH  28  30
ENDBRANCH  27  28
ENDBRANCH  25  27
ENDBRANCH  19  21
ENDBRANCH   1  17
TORSDOF 9
ENDMDL
MODEL 9
REMARK VINA RESULT:      -7.9      5.715      9.317
REMARK  Name = 
REMARK  10 active torsions:
REMARK  status: ('A' for Active; 'I' for Inactive)
REMARK    1  A    between atoms: C_1  and  C_2
REMARK    2  A    between atoms: C_6  and  C_7
REMARK    3  A    between atoms: C_7  and  O_8
REMARK    4  A    between atoms: O_8  and  C_9
REMARK    5  A    between atoms: C_13  and  C_14
REMARK    6  A    between atoms: C_14  and  C_15
REMARK    7  A    between atoms: N_17  and  C_18
REMARK    8  A    between atoms: C_22  and  C_23
REMARK    9  A    between atoms: C_23  and  C_24
REMARK   10  A    between atoms: C_24  and  O_26
REMARK                            x       y       z     vdW  Elec       q    Type
REMARK                         _______ _______ _______ _____ _____    ______ ____
ROOT
ATOM      1  C   UNL     1       2.342   8.301  19.485  0.00  0.00    +0.000 C 
ENDROOT
BRANCH   1   6
ATOM      2  C   UNL     1       2.318   4.648  18.404  0.00  0.00    +0.000 A 
ATOM      3  C   UNL     1       1.795   4.026  19.536  0.00  0.00    +0.000 A 
ATOM      4  C   UNL     1       1.442   4.783  20.654  0.00  0.00    +0.000 A 
ATOM      5  C   UNL     1       1.623   6.166  20.647  0.00  0.00    +0.000 A 
ATOM      6  C   UNL     1       2.191   6.799  19.533  0.00  0.00    +0.000 A 
ATOM      7  C   UNL     1       2.546   6.025  18.416  0.00  0.00    +0.000 A 
BRANCH   2   8
ATOM      8  O   UNL     1       2.574   3.825  17.340  0.00  0.00    +0.000 OA
BRANCH   8   9
ATOM      9  C   UNL     1       3.801   3.096  17.421  0.00  0.00    +0.000 C 
BRANCH   9  15
ATOM     10  C   UNL     1       7.801   5.721  18.975  0.00  0.00    +0.000 C 
ATOM     11  C   UNL     1       6.911   5.266  17.858  0.00  0.00    +0.000 A 
ATOM     12  C   UNL     1       7.172   5.627  16.533  0.00  0.00    +0.000 A 
ATOM     13  C   UNL     1       6.339   5.188  15.503  0.00  0.00    +0.000 A 
ATOM     14  C   UNL     1       5.237   4.383  15.788  0.00  0.00    +0.000 A 
ATOM     15  C   UNL     1       4.957   4.011  17.108  0.00  0.00    +0.000 A 
ATOM     16  C   UNL     1       5.802   4.456  18.136  0.00  0.00    +0.000 A 
ENDBRANCH   9  15
ENDBRANCH   8   9
ENDBRANCH   2   8
ENDBRANCH   1   6
BRANCH   1  17
ATOM     17  C   UNL     1       1.047   9.094  19.488  0.00  0.00    +0.000 C 
ATOM     18  O   UNL     1       0.375   9.183  20.515  0.00  0.00    +0.000 OA
ATOM     19  N   UNL     1       0.648   9.563  18.247  0.00  0.00    +0.000 N 
ATOM     20  H   UNL     1       1.070   9.120  17.440  0.00  0.00    +0.000 HD
BRANCH  19  21
ATOM     21  C   UNL     1      -0.569  10.244  18.046  0.00  0.00    +0.000 A 
ATOM     22  C   UNL     1      -0.768  11.447  18.721  0.00  0.00    +0.000 A 
ATOM     23  C   UNL     1      -1.928  12.189  18.493  0.00  0.00    +0.000 A 
ATOM     24  C   UNL     1      -2.922  11.697  17.647  0.00  0.00    +0.000 A 
ATOM     25  C   UNL     1      -2.768  10.454  17.018  0.00  0.00    +0.000 A 
ATOM     26  C   UNL     1      -1.568   9.746  17.201  0.00  0.00    +0.000 A 
BRANCH  25  27
ATOM     27  C   UNL     1      -3.872   9.897  16.146  0.00  0.00    +0.000 C 
BRANCH  27  28
ATOM     28  C   UNL     1      -3.640  10.000  14.651  0.00  0.00    +0.000 C 
ATOM     29  O   UNL     1      -2.534  10.147  14.156  0.00  0.00    +0.000 OA
BRANCH  28  30
ATOM     30  O   UNL     1      -4.740   9.838  13.882  0.00  0.00    +0.000 OA
ATOM     31  H   UNL     1      -4.844  10.526  13.193  0.00  0.00    +0.000 HD
ENDBRANCH  28  30
ENDBRANCH  27  28
ENDBRANCH  25  27
ENDBRANCH  19  21
ENDBRANCH   1  17
TORSDOF 9
ENDMDL
