MODEL 1
REMARK VINA RESULT:      -8.8      0.000      0.000
REMARK  Name = 
REMARK  5 active torsions:
REMARK  status: ('A' for Active; 'I' for Inactive)
REMARK    1  A    between atoms: C_1  and  C_2
REMARK    2  A    between atoms: C_4  and  C_5
REMARK    3  A    between atoms: C_13  and  C_14
REMARK    4  A    between atoms: N_16  and  C_17
REMARK    5  A    between atoms: C_24  and  N_25
REMARK                            x       y       z     vdW  Elec       q    Type
REMARK                         _______ _______ _______ _____ _____    ______ ____
ROOT
ATOM      1  C   UNL     1       2.546   6.822  19.203  0.00  0.00    +0.000 C 
ATOM      2  O   UNL     1       3.449   7.015  18.399  0.00  0.00    +0.000 OA
ATOM      3  N   UNL     1       2.163   5.570  19.630  0.00  0.00    +0.000 N 
ATOM      4  H   UNL     1       1.627   5.521  20.476  0.00  0.00    +0.000 HD
ENDROOT
BRANCH   3   5
ATOM      5  C   UNL     1       2.727   4.315  19.139  0.00  0.00    +0.000 C 
ATOM      6  C   UNL     1       1.604   3.422  18.610  0.00  0.00    +0.000 C 
ATOM      7  C   UNL     1       0.578   3.078  19.699  0.00  0.00    +0.000 C 
ATOM      8  C   UNL     1       1.086   2.935  21.136  0.00  0.00    +0.000 C 
ATOM      9  C   UNL     1       2.529   3.325  21.449  0.00  0.00    +0.000 C 
ATOM     10  C   UNL     1       3.455   3.559  20.250  0.00  0.00    +0.000 C 
ATOM     11  C   UNL     1       4.085   2.260  19.725  0.00  0.00    +0.000 C 
ATOM     12  C   UNL     1       3.256   1.431  18.731  0.00  0.00    +0.000 C 
ATOM     13  C   UNL     1       2.187   2.181  17.931  0.00  0.00    +0.000 C 
BRANCH  12  14
ATOM     14  N   UNL     1       4.182   0.778  17.793  0.00  0.00    +0.000 NA
ATOM     15  H   UNL     1       4.332  -0.191  18.087  0.00  0.00    +0.000 HD
ATOM     16  H   UNL     1       5.102   1.216  17.844  0.00  0.00    +0.000 HD
ENDBRANCH  12  14
ENDBRANCH   3   5
BRANCH   1  23
ATOM     17  C   UNL     1       1.775   9.431  17.720  0.00  0.00    +0.000 C 
ATOM     18  C   UNL     1       1.467   9.136  19.157  0.00  0.00    +0.000 A 
ATOM     19  N   UNL     1       0.823  10.155  19.787  0.00  0.00    +0.000 NA
ATOM     20  C   UNL     1       0.525  10.050  21.106  0.00  0.00    +0.000 A 
ATOM     21  C   UNL     1       0.837   8.901  21.824  0.00  0.00    +0.000 A 
ATOM     22  C   UNL     1       1.492   7.850  21.175  0.00  0.00    +0.000 A 
ATOM     23  C   UNL     1       1.813   7.954  19.820  0.00  0.00    +0.000 A 
BRANCH  20  24
ATOM     24  C   UNL     1      -0.087  11.252  21.707  0.00  0.00    +0.000 A 
ATOM     25  C   UNL     1      -1.073  11.178  22.706  0.00  0.00    +0.000 A 
ATOM     26  C   UNL     1      -1.618  12.338  23.272  0.00  0.00    +0.000 A 
ATOM     27  C   UNL     1      -1.195  13.595  22.844  0.00  0.00    +0.000 A 
ATOM     28  C   UNL     1      -0.231  13.694  21.845  0.00  0.00    +0.000 A 
ATOM     29  C   UNL     1       0.312  12.536  21.284  0.00  0.00    +0.000 A 
ENDBRANCH  20  24
ENDBRANCH   1  23
TORSDOF 4
ENDMDL
MODEL 2
REMARK VINA RESULT:      -8.4      1.253      1.885
REMARK  Name = 
REMARK  5 active torsions:
REMARK  status: ('A' for Active; 'I' for Inactive)
REMARK    1  A    between atoms: C_1  and  C_2
REMARK    2  A    between atoms: C_4  and  C_5
REMARK    3  A    between atoms: C_13  and  C_14
REMARK    4  A    between atoms: N_16  and  C_17
REMARK    5  A    between atoms: C_24  and  N_25
REMARK                            x       y       z     vdW  Elec       q    Type
REMARK                         _______ _______ _______ _____ _____    ______ ____
ROOT
ATOM      1  C   UNL     1       2.909   6.907  18.403  0.00  0.00    +0.000 C 
ATOM      2  O   UNL     1       3.966   6.939  17.784  0.00  0.00    +0.000 OA
ATOM      3  N   UNL     1       2.332   5.745  18.862  0.00  0.00    +0.000 N 
ATOM      4  H   UNL     1       1.640   5.833  19.582  0.00  0.00    +0.000 HD
ENDROOT
BRANCH   3   5
ATOM      5  C   UNL     1       2.857   4.403  18.621  0.00  0.00    +0.000 C 
ATOM      6  C   UNL     1       1.712   3.469  18.228  0.00  0.00    +0.000 C 
ATOM      7  C   UNL     1       0.649   3.362  19.331  0.00  0.00    +0.000 C 
ATOM      8  C   UNL     1       1.119   3.463  20.784  0.00  0.00    +0.000 C 
ATOM      9  C   UNL     1       2.569   3.852  21.063  0.00  0.00    +0.000 C 
ATOM     10  C   UNL     1       3.530   3.835  19.870  0.00  0.00    +0.000 C 
ATOM     11  C   UNL     1       4.120   2.441  19.604  0.00  0.00    +0.000 C 
ATOM     12  C   UNL     1       3.281   1.476  18.751  0.00  0.00    +0.000 C 
ATOM     13  C   UNL     1       2.261   2.106  17.799  0.00  0.00    +0.000 C 
BRANCH  12  14
ATOM     14  N   UNL     1       4.201   0.633  17.972  0.00  0.00    +0.000 NA
ATOM     15  H   UNL     1       4.339  -0.255  18.460  0.00  0.00    +0.000 HD
ATOM     16  H   UNL     1       5.126   1.062  17.935  0.00  0.00    +0.000 HD
ENDBRANCH  12  14
ENDBRANCH   3   5
BRANCH   1  23
ATOM     17  C   UNL     1       1.495   7.428  21.110  0.00  0.00    +0.000 C 
ATOM     18  C   UNL     1       1.539   8.393  19.964  0.00  0.00    +0.000 A 
ATOM     19  N   UNL     1       0.859   9.546  20.206  0.00  0.00    +0.000 NA
ATOM     20  C   UNL     1       0.768  10.491  19.238  0.00  0.00    +0.000 A 
ATOM     21  C   UNL     1       1.389  10.319  18.006  0.00  0.00    +0.000 A 
ATOM     22  C   UNL     1       2.095   9.138  17.758  0.00  0.00    +0.000 A 
ATOM     23  C   UNL     1       2.183   8.155  18.745  0.00  0.00    +0.000 A 
BRANCH  20  24
ATOM     24  C   UNL     1      -0.072  11.657  19.578  0.00  0.00    +0.000 A 
ATOM     25  C   UNL     1      -1.133  11.580  20.498  0.00  0.00    +0.000 A 
ATOM     26  C   UNL     1      -1.896  12.711  20.816  0.00  0.00    +0.000 A 
ATOM     27  C   UNL     1      -1.622  13.938  20.214  0.00  0.00    +0.000 A 
ATOM     28  C   UNL     1      -0.588  14.035  19.289  0.00  0.00    +0.000 A 
ATOM     29  C   UNL     1       0.174  12.906  18.976  0.00  0.00    +0.000 A 
ENDBRANCH  20  24
ENDBRANCH   1  23
TORSDOF 4
ENDMDL
MODEL 3
REMARK VINA RESULT:      -8.0      5.313      7.008
REMARK  Name = 
REMARK  5 active torsions:
REMARK  status: ('A' for Active; 'I' for Inactive)
REMARK    1  A    between atoms: C_1  and  C_2
REMARK    2  A    between atoms: C_4  and  C_5
REMARK    3  A    between atoms: C_13  and  C_14
REMARK    4  A    between atoms: N_16  and  C_17
REMARK    5  A    between atoms: C_24  and  N_25
REMARK                            x       y       z     vdW  Elec       q    Type
REMARK                         _______ _______ _______ _____ _____    ______ ____
ROOT
ATOM      1  C   UNL     1       5.959   5.540  17.675  0.00  0.00    +0.000 C 
ATOM      2  O   UNL     1       6.157   4.757  16.754  0.00  0.00    +0.000 OA
ATOM      3  N   UNL     1       4.921   5.412  18.571  0.00  0.00    +0.000 N 
ATOM      4  H   UNL     1       4.999   5.916  19.434  0.00  0.00    +0.000 HD
ENDROOT
BRANCH   3   5
ATOM      5  C   UNL     1       3.889   4.381  18.508  0.00  0.00    +0.000 C 
ATOM      6  C   UNL     1       2.706   4.889  17.682  0.00  0.00    +0.000 C 
ATOM      7  C   UNL     1       2.072   6.146  18.295  0.00  0.00    +0.000 C 
ATOM      8  C   UNL     1       2.081   6.276  19.820  0.00  0.00    +0.000 C 
ATOM      9  C   UNL     1       2.877   5.263  20.641  0.00  0.00    +0.000 C 
ATOM     10  C   UNL     1       3.377   4.017  19.902  0.00  0.00    +0.000 C 
ATOM     11  C   UNL     1       2.322   2.901  19.839  0.00  0.00    +0.000 C 
ATOM     12  C   UNL     1       1.289   2.977  18.704  0.00  0.00    +0.000 C 
ATOM     13  C   UNL     1       1.694   3.765  17.454  0.00  0.00    +0.000 C 
BRANCH  12  14
ATOM     14  N   UNL     1       0.941   1.604  18.308  0.00  0.00    +0.000 NA
ATOM     15  H   UNL     1      -0.055   1.564  18.074  0.00  0.00    +0.000 HD
ATOM     16  H   UNL     1       1.053   0.970  19.099  0.00  0.00    +0.000 HD
ENDBRANCH  12  14
ENDBRANCH   3   5
BRANCH   1  23
ATOM     17  C   UNL     1       8.280   5.524  19.728  0.00  0.00    +0.000 C 
ATOM     18  C   UNL     1       7.918   6.683  18.849  0.00  0.00    +0.000 A 
ATOM     19  N   UNL     1       8.700   7.776  19.053  0.00  0.00    +0.000 NA
ATOM     20  C   UNL     1       8.456   8.919  18.364  0.00  0.00    +0.000 A 
ATOM     21  C   UNL     1       7.434   8.985  17.423  0.00  0.00    +0.000 A 
ATOM     22  C   UNL     1       6.634   7.860  17.206  0.00  0.00    +0.000 A 
ATOM     23  C   UNL     1       6.872   6.683  17.920  0.00  0.00    +0.000 A 
BRANCH  20  24
ATOM     24  C   UNL     1       9.306  10.068  18.735  0.00  0.00    +0.000 A 
ATOM     25  C   UNL     1      10.032  10.807  17.785  0.00  0.00    +0.000 A 
ATOM     26  C   UNL     1      10.812  11.906  18.167  0.00  0.00    +0.000 A 
ATOM     27  C   UNL     1      10.890  12.282  19.507  0.00  0.00    +0.000 A 
ATOM     28  C   UNL     1      10.192  11.557  20.467  0.00  0.00    +0.000 A 
ATOM     29  C   UNL     1       9.414  10.462  20.083  0.00  0.00    +0.000 A 
ENDBRANCH  20  24
ENDBRANCH   1  23
TORSDOF 4
ENDMDL
MODEL 4
REMARK VINA RESULT:      -8.0      1.098      1.523
REMARK  Name = 
REMARK  5 active torsions:
REMARK  status: ('A' for Active; 'I' for Inactive)
REMARK    1  A    between atoms: C_1  and  C_2
REMARK    2  A    between atoms: C_4  and  C_5
REMARK    3  A    between atoms: C_13  and  C_14
REMARK    4  A    between atoms: N_16  and  C_17
REMARK    5  A    between atoms: C_24  and  N_25
REMARK                            x       y       z     vdW  Elec       q    Type
REMARK                         _______ _______ _______ _____ _____    ______ ____
ROOT
ATOM      1  C   UNL     1       2.391   7.098  19.722  0.00  0.00    +0.000 C 
ATOM      2  O   UNL     1       3.244   7.236  18.854  0.00  0.00    +0.000 OA
ATOM      3  N   UNL     1       2.240   5.947  20.462  0.00  0.00    +0.000 N 
ATOM      4  H   UNL     1       1.721   6.020  21.318  0.00  0.00    +0.000 HD
ENDROOT
BRANCH   3   5
ATOM      5  C   UNL     1       3.020   4.727  20.273  0.00  0.00    +0.000 C 
ATOM      6  C   UNL     1       2.907   4.268  18.818  0.00  0.00    +0.000 C 
ATOM      7  C   UNL     1       1.456   3.960  18.421  0.00  0.00    +0.000 C 
ATOM      8  C   UNL     1       0.528   3.395  19.498  0.00  0.00    +0.000 C 
ATOM      9  C   UNL     1       1.021   3.345  20.943  0.00  0.00    +0.000 C 
ATOM     10  C   UNL     1       2.515   3.597  21.171  0.00  0.00    +0.000 C 
ATOM     11  C   UNL     1       3.363   2.326  21.003  0.00  0.00    +0.000 C 
ATOM     12  C   UNL     1       3.796   1.955  19.576  0.00  0.00    +0.000 C 
ATOM     13  C   UNL     1       3.856   3.096  18.556  0.00  0.00    +0.000 C 
BRANCH  12  14
ATOM     14  N   UNL     1       5.117   1.313  19.648  0.00  0.00    +0.000 NA
ATOM     15  H   UNL     1       5.765   1.933  20.141  0.00  0.00    +0.000 HD
ATOM     16  H   UNL     1       5.510   1.209  18.712  0.00  0.00    +0.000 HD
ENDBRANCH  12  14
ENDBRANCH   3   5
BRANCH   1  23
ATOM     17  C   UNL     1       1.710   9.475  17.854  0.00  0.00    +0.000 C 
ATOM     18  C   UNL     1       1.159   9.281  19.235  0.00  0.00    +0.000 A 
ATOM     19  N   UNL     1       0.328  10.284  19.627  0.00  0.00    +0.000 NA
ATOM     20  C   UNL     1      -0.205  10.270  20.874  0.00  0.00    +0.000 A 
ATOM     21  C   UNL     1       0.056   9.226  21.754  0.00  0.00    +0.000 A 
ATOM     22  C   UNL     1       0.903   8.190  21.350  0.00  0.00    +0.000 A 
ATOM     23  C   UNL     1       1.466   8.204  20.072  0.00  0.00    +0.000 A 
BRANCH  20  24
ATOM     24  C   UNL     1      -1.014  11.455  21.222  0.00  0.00    +0.000 A 
ATOM     25  C   UNL     1      -1.610  12.275  20.249  0.00  0.00    +0.000 A 
ATOM     26  C   UNL     1      -2.392  13.379  20.614  0.00  0.00    +0.000 A 
ATOM     27  C   UNL     1      -2.584  13.692  21.958  0.00  0.00    +0.000 A 
ATOM     28  C   UNL     1      -1.991  12.904  22.940  0.00  0.00    +0.000 A 
ATOM     29  C   UNL     1      -1.215  11.802  22.573  0.00  0.00    +0.000 A 
ENDBRANCH  20  24
ENDBRANCH   1  23
TORSDOF 4
ENDMDL
MODEL 5
REMARK VINA RESULT:      -7.7      1.294      1.731
REMARK  Name = 
REMARK  5 active torsions:
REMARK  status: ('A' for Active; 'I' for Inactive)
REMARK    1  A    between atoms: C_1  and  C_2
REMARK    2  A    between atoms: C_4  and  C_5
REMARK    3  A    between atoms: C_13  and  C_14
REMARK    4  A    between atoms: N_16  and  C_17
REMARK    5  A    between atoms: C_24  and  N_25
REMARK                            x       y       z     vdW  Elec       q    Type
REMARK                         _______ _______ _______ _____ _____    ______ ____
ROOT
ATOM      1  C   UNL     1       1.915   8.060  19.224  0.00  0.00    +0.000 C 
ATOM      2  O   UNL     1       2.490   8.454  18.217  0.00  0.00    +0.000 OA
ATOM      3  N   UNL     1       2.009   6.771  19.698  0.00  0.00    +0.000 N 
ATOM      4  H   UNL     1       1.746   6.617  20.653  0.00  0.00    +0.000 HD
ENDROOT
BRANCH   3   5
ATOM      5  C   UNL     1       2.741   5.693  19.039  0.00  0.00    +0.000 C 
ATOM      6  C   UNL     1       1.755   4.765  18.328  0.00  0.00    +0.000 C 
ATOM      7  C   UNL     1       0.760   4.123  19.305  0.00  0.00    +0.000 C 
ATOM      8  C   UNL     1       1.251   3.813  20.720  0.00  0.00    +0.000 C 
ATOM      9  C   UNL     1       2.625   4.323  21.151  0.00  0.00    +0.000 C 
ATOM     10  C   UNL     1       3.538   4.864  20.045  0.00  0.00    +0.000 C 
ATOM     11  C   UNL     1       4.343   3.756  19.347  0.00  0.00    +0.000 C 
ATOM     12  C   UNL     1       3.649   3.002  18.201  0.00  0.00    +0.000 C 
ATOM     13  C   UNL     1       2.509   3.734  17.486  0.00  0.00    +0.000 C 
BRANCH  12  14
ATOM     14  N   UNL     1       4.671   2.632  17.210  0.00  0.00    +0.000 NA
ATOM     15  H   UNL     1       4.210   2.334  16.346  0.00  0.00    +0.000 HD
ATOM     16  H   UNL     1       5.191   1.814  17.528  0.00  0.00    +0.000 HD
ENDBRANCH  12  14
ENDBRANCH   3   5
BRANCH   1  23
ATOM     17  C   UNL     1      -0.090  10.124  18.074  0.00  0.00    +0.000 C 
ATOM     18  C   UNL     1       0.189   9.918  19.532  0.00  0.00    +0.000 A 
ATOM     19  N   UNL     1      -0.514  10.759  20.338  0.00  0.00    +0.000 NA
ATOM     20  C   UNL     1      -0.324  10.721  21.680  0.00  0.00    +0.000 A 
ATOM     21  C   UNL     1       0.555   9.811  22.257  0.00  0.00    +0.000 A 
ATOM     22  C   UNL     1       1.272   8.940  21.431  0.00  0.00    +0.000 A 
ATOM     23  C   UNL     1       1.092   8.981  20.046  0.00  0.00    +0.000 A 
BRANCH  20  24
ATOM     24  C   UNL     1      -1.068  11.742  22.446  0.00  0.00    +0.000 A 
ATOM     25  C   UNL     1      -0.627  13.072  22.557  0.00  0.00    +0.000 A 
ATOM     26  C   UNL     1      -1.368  14.021  23.273  0.00  0.00    +0.000 A 
ATOM     27  C   UNL     1      -2.559  13.659  23.899  0.00  0.00    +0.000 A 
ATOM     28  C   UNL     1      -3.008  12.345  23.816  0.00  0.00    +0.000 A 
ATOM     29  C   UNL     1      -2.268  11.400  23.100  0.00  0.00    +0.000 A 
ENDBRANCH  20  24
ENDBRANCH   1  23
TORSDOF 4
ENDMDL
MODEL 6
REMARK VINA RESULT:      -7.6      1.820      2.466
REMARK  Name = 
REMARK  5 active torsions:
REMARK  status: ('A' for Active; 'I' for Inactive)
REMARK    1  A    between atoms: C_1  and  C_2
REMARK    2  A    between atoms: C_4  and  C_5
REMARK    3  A    between atoms: C_13  and  C_14
REMARK    4  A    between atoms: N_16  and  C_17
REMARK    5  A    between atoms: C_24  and  N_25
REMARK                            x       y       z     vdW  Elec       q    Type
REMARK                         _______ _______ _______ _____ _____    ______ ____
ROOT
ATOM      1  C   UNL     1       1.973   8.436  18.408  0.00  0.00    +0.000 C 
ATOM      2  O   UNL     1       2.505   8.794  17.364  0.00  0.00    +0.000 OA
ATOM      3  N   UNL     1       2.197   7.210  18.993  0.00  0.00    +0.000 N 
ATOM      4  H   UNL     1       1.952   7.116  19.961  0.00  0.00    +0.000 HD
ENDROOT
BRANCH   3   5
ATOM      5  C   UNL     1       3.034   6.157  18.426  0.00  0.00    +0.000 C 
ATOM      6  C   UNL     1       2.148   5.081  17.798  0.00  0.00    +0.000 C 
ATOM      7  C   UNL     1       1.214   4.430  18.828  0.00  0.00    +0.000 C 
ATOM      8  C   UNL     1       1.725   4.289  20.263  0.00  0.00    +0.000 C 
ATOM      9  C   UNL     1       3.039   4.965  20.646  0.00  0.00    +0.000 C 
ATOM     10  C   UNL     1       3.902   5.497  19.497  0.00  0.00    +0.000 C 
ATOM     11  C   UNL     1       4.815   4.418  18.893  0.00  0.00    +0.000 C 
ATOM     12  C   UNL     1       4.205   3.507  17.816  0.00  0.00    +0.000 C 
ATOM     13  C   UNL     1       3.004   4.061  17.044  0.00  0.00    +0.000 C 
BRANCH  12  14
ATOM     14  N   UNL     1       5.264   3.156  16.857  0.00  0.00    +0.000 NA
ATOM     15  H   UNL     1       4.838   2.907  15.961  0.00  0.00    +0.000 HD
ATOM     16  H   UNL     1       5.751   2.313  17.162  0.00  0.00    +0.000 HD
ENDBRANCH  12  14
ENDBRANCH   3   5
BRANCH   1  23
ATOM     17  C   UNL     1       1.487   8.307  21.465  0.00  0.00    +0.000 C 
ATOM     18  C   UNL     1       0.834   9.281  20.532  0.00  0.00    +0.000 A 
ATOM     19  N   UNL     1      -0.042  10.116  21.154  0.00  0.00    +0.000 NA
ATOM     20  C   UNL     1      -0.746  11.017  20.426  0.00  0.00    +0.000 A 
ATOM     21  C   UNL     1      -0.566  11.129  19.052  0.00  0.00    +0.000 A 
ATOM     22  C   UNL     1       0.340  10.278  18.412  0.00  0.00    +0.000 A 
ATOM     23  C   UNL     1       1.061   9.338  19.153  0.00  0.00    +0.000 A 
BRANCH  20  24
ATOM     24  C   UNL     1      -1.735  11.803  21.191  0.00  0.00    +0.000 A 
ATOM     25  C   UNL     1      -2.665  12.654  20.570  0.00  0.00    +0.000 A 
ATOM     26  C   UNL     1      -3.606  13.369  21.324  0.00  0.00    +0.000 A 
ATOM     27  C   UNL     1      -3.628  13.256  22.712  0.00  0.00    +0.000 A 
ATOM     28  C   UNL     1      -2.707  12.431  23.350  0.00  0.00    +0.000 A 
ATOM     29  C   UNL     1      -1.772  11.718  22.596  0.00  0.00    +0.000 A 
ENDBRANCH  20  24
ENDBRANCH   1  23
TORSDOF 4
ENDMDL
MODEL 7
REMARK VINA RESULT:      -7.5      1.398      1.893
REMARK  Name = 
REMARK  5 active torsions:
REMARK  status: ('A' for Active; 'I' for Inactive)
REMARK    1  A    between atoms: C_1  and  C_2
REMARK    2  A    between atoms: C_4  and  C_5
REMARK    3  A    between atoms: C_13  and  C_14
REMARK    4  A    between atoms: N_16  and  C_17
REMARK    5  A    between atoms: C_24  and  N_25
REMARK                            x       y       z     vdW  Elec       q    Type
REMARK                         _______ _______ _______ _____ _____    ______ ____
ROOT
ATOM      1  C   UNL     1       2.338   7.524  18.571  0.00  0.00    +0.000 C 
ATOM      2  O   UNL     1       3.307   7.724  17.850  0.00  0.00    +0.000 OA
ATOM      3  N   UNL     1       1.962   6.273  19.008  0.00  0.00    +0.000 N 
ATOM      4  H   UNL     1       1.349   6.232  19.801  0.00  0.00    +0.000 HD
ENDROOT
BRANCH   3   5
ATOM      5  C   UNL     1       2.615   5.025  18.622  0.00  0.00    +0.000 C 
ATOM      6  C   UNL     1       1.555   3.970  18.302  0.00  0.00    +0.000 C 
ATOM      7  C   UNL     1       0.655   3.671  19.509  0.00  0.00    +0.000 C 
ATOM      8  C   UNL     1       1.282   3.759  20.903  0.00  0.00    +0.000 C 
ATOM      9  C   UNL     1       2.696   4.320  21.040  0.00  0.00    +0.000 C 
ATOM     10  C   UNL     1       3.500   4.488  19.746  0.00  0.00    +0.000 C 
ATOM     11  C   UNL     1       4.221   3.198  19.324  0.00  0.00    +0.000 C 
ATOM     12  C   UNL     1       3.411   2.175  18.512  0.00  0.00    +0.000 C 
ATOM     13  C   UNL     1       2.213   2.714  17.725  0.00  0.00    +0.000 C 
BRANCH  12  14
ATOM     14  N   UNL     1       4.326   1.500  17.579  0.00  0.00    +0.000 NA
ATOM     15  H   UNL     1       4.456   0.530  17.879  0.00  0.00    +0.000 HD
ATOM     16  H   UNL     1       5.255   1.919  17.632  0.00  0.00    +0.000 HD
ENDBRANCH  12  14
ENDBRANCH   3   5
BRANCH   1  23
ATOM     17  C   UNL     1       1.618   7.982  21.550  0.00  0.00    +0.000 C 
ATOM     18  C   UNL     1       1.176   8.855  20.415  0.00  0.00    +0.000 A 
ATOM     19  N   UNL     1       0.382   9.887  20.810  0.00  0.00    +0.000 NA
ATOM     20  C   UNL     1      -0.136  10.731  19.883  0.00  0.00    +0.000 A 
ATOM     21  C   UNL     1       0.157  10.582  18.532  0.00  0.00    +0.000 A 
ATOM     22  C   UNL     1       0.980   9.528  18.126  0.00  0.00    +0.000 A 
ATOM     23  C   UNL     1       1.508   8.647  19.073  0.00  0.00    +0.000 A 
BRANCH  20  24
ATOM     24  C   UNL     1      -1.059  11.754  20.415  0.00  0.00    +0.000 A 
ATOM     25  C   UNL     1      -0.846  12.394  21.648  0.00  0.00    +0.000 A 
ATOM     26  C   UNL     1      -1.729  13.377  22.113  0.00  0.00    +0.000 A 
ATOM     27  C   UNL     1      -2.847  13.733  21.361  0.00  0.00    +0.000 A 
ATOM     28  C   UNL     1      -3.087  13.102  20.145  0.00  0.00    +0.000 A 
ATOM     29  C   UNL     1      -2.203  12.123  19.682  0.00  0.00    +0.000 A 
ENDBRANCH  20  24
ENDBRANCH   1  23
TORSDOF 4
ENDMDL
MODEL 8
REMARK VINA RESULT:      -7.5      2.837      9.019
REMARK  Name = 
REMARK  5 active torsions:
REMARK  status: ('A' for Active; 'I' for Inactive)
REMARK    1  A    between atoms: C_1  and  C_2
REMARK    2  A    between atoms: C_4  and  C_5
REMARK    3  A    between atoms: C_13  and  C_14
REMARK    4  A    between atoms: N_16  and  C_17
REMARK    5  A    between atoms: C_24  and  N_25
REMARK                            x       y       z     vdW  Elec       q    Type
REMARK                         _______ _______ _______ _____ _____    ______ ____
ROOT
ATOM      1  C   UNL     1       1.174   8.662  20.400  0.00  0.00    +0.000 C 
ATOM      2  O   UNL     1       1.207   8.463  21.608  0.00  0.00    +0.000 OA
ATOM      3  N   UNL     1       0.441   9.670  19.815  0.00  0.00    +0.000 N 
ATOM      4  H   UNL     1       0.690   9.930  18.879  0.00  0.00    +0.000 HD
ENDROOT
BRANCH   3   5
ATOM      5  C   UNL     1      -0.439  10.585  20.536  0.00  0.00    +0.000 C 
ATOM      6  C   UNL     1      -1.323  11.336  19.540  0.00  0.00    +0.000 C 
ATOM      7  C   UNL     1      -0.498  12.168  18.548  0.00  0.00    +0.000 C 
ATOM      8  C   UNL     1       0.815  12.775  19.047  0.00  0.00    +0.000 C 
ATOM      9  C   UNL     1       1.334  12.374  20.427  0.00  0.00    +0.000 C 
ATOM     10  C   UNL     1       0.361  11.614  21.335  0.00  0.00    +0.000 C 
ATOM     11  C   UNL     1      -0.564  12.551  22.129  0.00  0.00    +0.000 C 
ATOM     12  C   UNL     1      -1.839  13.039  21.423  0.00  0.00    +0.000 C 
ATOM     13  C   UNL     1      -2.372  12.167  20.282  0.00  0.00    +0.000 C 
BRANCH  12  14
ATOM     14  N   UNL     1      -2.894  13.193  22.436  0.00  0.00    +0.000 NA
ATOM     15  H   UNL     1      -3.525  12.389  22.390  0.00  0.00    +0.000 HD
ATOM     16  H   UNL     1      -3.478  14.001  22.216  0.00  0.00    +0.000 HD
ENDBRANCH  12  14
ENDBRANCH   3   5
BRANCH   1  23
ATOM     17  C   UNL     1       1.775   5.647  20.794  0.00  0.00    +0.000 C 
ATOM     18  C   UNL     1       2.255   6.476  19.640  0.00  0.00    +0.000 A 
ATOM     19  N   UNL     1       3.027   5.779  18.763  0.00  0.00    +0.000 NA
ATOM     20  C   UNL     1       3.575   6.413  17.697  0.00  0.00    +0.000 A 
ATOM     21  C   UNL     1       3.334   7.762  17.461  0.00  0.00    +0.000 A 
ATOM     22  C   UNL     1       2.535   8.478  18.357  0.00  0.00    +0.000 A 
ATOM     23  C   UNL     1       1.977   7.835  19.465  0.00  0.00    +0.000 A 
BRANCH  20  24
ATOM     24  C   UNL     1       4.469   5.581  16.867  0.00  0.00    +0.000 A 
ATOM     25  C   UNL     1       4.621   4.199  17.072  0.00  0.00    +0.000 A 
ATOM     26  C   UNL     1       5.461   3.435  16.251  0.00  0.00    +0.000 A 
ATOM     27  C   UNL     1       6.173   4.038  15.217  0.00  0.00    +0.000 A 
ATOM     28  C   UNL     1       6.051   5.407  15.004  0.00  0.00    +0.000 A 
ATOM     29  C   UNL     1       5.211   6.167  15.822  0.00  0.00    +0.000 A 
ENDBRANCH  20  24
ENDBRANCH   1  23
TORSDOF 4
ENDMDL
MODEL 9
REMARK VINA RESULT:      -7.4      3.411      9.530
REMARK  Name = 
REMARK  5 active torsions:
REMARK  status: ('A' for Active; 'I' for Inactive)
REMARK    1  A    between atoms: C_1  and  C_2
REMARK    2  A    between atoms: C_4  and  C_5
REMARK    3  A    between atoms: C_13  and  C_14
REMARK    4  A    between atoms: N_16  and  C_17
REMARK    5  A    between atoms: C_24  and  N_25
REMARK                            x       y       z     vdW  Elec       q    Type
REMARK                         _______ _______ _______ _____ _____    ______ ____
ROOT
ATOM      1  C   UNL     1       0.848  11.752  18.702  0.00  0.00    +0.000 C 
ATOM      2  O   UNL     1      -0.313  12.094  18.511  0.00  0.00    +0.000 OA
ATOM      3  N   UNL     1       1.903  12.636  18.739  0.00  0.00    +0.000 N 
ATOM      4  H   UNL     1       2.750  12.317  19.171  0.00  0.00    +0.000 HD
ENDROOT
BRANCH   3   5
ATOM      5  C   UNL     1       1.796  14.072  18.493  0.00  0.00    +0.000 C 
ATOM      6  C   UNL     1       3.180  14.641  18.176  0.00  0.00    +0.000 C 
ATOM      7  C   UNL     1       4.167  14.439  19.335  0.00  0.00    +0.000 C 
ATOM      8  C   UNL     1       3.609  14.475  20.759  0.00  0.00    +0.000 C 
ATOM      9  C   UNL     1       2.095  14.515  20.956  0.00  0.00    +0.000 C 
ATOM     10  C   UNL     1       1.245  14.807  19.714  0.00  0.00    +0.000 C 
ATOM     11  C   UNL     1       1.092  16.312  19.441  0.00  0.00    +0.000 C 
ATOM     12  C   UNL     1       2.216  16.998  18.650  0.00  0.00    +0.000 C 
ATOM     13  C   UNL     1       3.065  16.104  17.742  0.00  0.00    +0.000 C 
BRANCH  12  14
ATOM     14  N   UNL     1       1.618  18.069  17.837  0.00  0.00    +0.000 NA
ATOM     15  H   UNL     1       1.016  18.646  18.431  0.00  0.00    +0.000 HD
ATOM     16  H   UNL     1       0.994  17.671  17.135  0.00  0.00    +0.000 HD
ENDBRANCH  12  14
ENDBRANCH   3   5
BRANCH   1  23
ATOM     17  C   UNL     1       0.471  10.307  21.417  0.00  0.00    +0.000 C 
ATOM     18  C   UNL     1       1.035   9.678  20.179  0.00  0.00    +0.000 A 
ATOM     19  N   UNL     1       1.408   8.382  20.359  0.00  0.00    +0.000 NA
ATOM     20  C   UNL     1       1.985   7.699  19.339  0.00  0.00    +0.000 A 
ATOM     21  C   UNL     1       2.173   8.290  18.094  0.00  0.00    +0.000 A 
ATOM     22  C   UNL     1       1.782   9.619  17.906  0.00  0.00    +0.000 A 
ATOM     23  C   UNL     1       1.199  10.333  18.955  0.00  0.00    +0.000 A 
BRANCH  20  24
ATOM     24  C   UNL     1       2.435   6.333  19.675  0.00  0.00    +0.000 A 
ATOM     25  C   UNL     1       1.749   5.517  20.591  0.00  0.00    +0.000 A 
ATOM     26  C   UNL     1       2.190   4.217  20.871  0.00  0.00    +0.000 A 
ATOM     27  C   UNL     1       3.330   3.711  20.249  0.00  0.00    +0.000 A 
ATOM     28  C   UNL     1       4.034   4.506  19.350  0.00  0.00    +0.000 A 
ATOM     29  C   UNL     1       3.591   5.801  19.071  0.00  0.00    +0.000 A 
ENDBRANCH  20  24
ENDBRANCH   1  23
TORSDOF 4
ENDMDL
