MODEL 1
REMARK VINA RESULT:      -9.1      0.000      0.000
REMARK  Name = 
REMARK  6 active torsions:
REMARK  status: ('A' for Active; 'I' for Inactive)
REMARK    1  A    between atoms: C_1  and  N_2
REMARK    2  A    between atoms: C_6  and  C_7
REMARK    3  A    between atoms: C_7  and  C_8
REMARK    4  A    between atoms: C_8  and  C_9
REMARK    5  A    between atoms: C_13  and  N_14
REMARK    6  A    between atoms: C_22  and  C_23
REMARK                            x       y       z     vdW  Elec       q    Type
REMARK                         _______ _______ _______ _____ _____    ______ ____
ROOT
ATOM      1  N   UNL     1       4.163   4.497  19.124  0.00  0.00    +0.000 N 
ATOM      2  C   UNL     1       5.504   5.121  19.244  0.00  0.00    +0.000 C 
ATOM      3  C   UNL     1       6.023   5.014  17.841  0.00  0.00    +0.000 A 
ATOM      4  C   UNL     1       5.401   3.903  17.255  0.00  0.00    +0.000 A 
ATOM      5  C   UNL     1       5.525   3.588  15.916  0.00  0.00    +0.000 A 
ATOM      6  C   UNL     1       6.291   4.452  15.147  0.00  0.00    +0.000 A 
ATOM      7  F   UNL     1       6.372   4.253  13.825  0.00  0.00    +0.000 F 
ATOM      8  C   UNL     1       6.905   5.586  15.702  0.00  0.00    +0.000 A 
ATOM      9  C   UNL     1       6.780   5.894  17.072  0.00  0.00    +0.000 A 
ATOM     10  C   UNL     1       4.310   3.472  18.152  0.00  0.00    +0.000 C 
ATOM     11  O   UNL     1       3.575   2.529  17.926  0.00  0.00    +0.000 OA
ENDROOT
BRANCH   1  16
ATOM     12  C   UNL     1       1.855   7.207  19.953  0.00  0.00    +0.000 A 
ATOM     13  C   UNL     1       2.296   8.143  19.007  0.00  0.00    +0.000 A 
ATOM     14  C   UNL     1       3.003   7.731  17.883  0.00  0.00    +0.000 A 
ATOM     15  C   UNL     1       3.382   6.400  17.756  0.00  0.00    +0.000 A 
ATOM     16  C   UNL     1       3.165   5.513  18.820  0.00  0.00    +0.000 A 
ATOM     17  C   UNL     1       2.276   5.878  19.838  0.00  0.00    +0.000 A 
BRANCH  12  18
ATOM     18  C   UNL     1       1.039   7.647  21.146  0.00  0.00    +0.000 C 
BRANCH  18  19
ATOM     19  C   UNL     1       1.570   8.953  21.743  0.00  0.00    +0.000 C 
BRANCH  19  25
ATOM     20  C   UNL     1       0.043  10.917  19.902  0.00  0.00    +0.000 C 
ATOM     21  N   UNL     1      -0.180  10.732  21.311  0.00  0.00    +0.000 N 
ATOM     22  C   UNL     1      -1.080  11.406  22.078  0.00  0.00    +0.000 A 
ATOM     23  N   UNL     1      -1.001  10.982  23.317  0.00  0.00    +0.000 NA
ATOM     24  N   UNL     1      -0.022  10.017  23.367  0.00  0.00    +0.000 NA
ATOM     25  C   UNL     1       0.468   9.866  22.151  0.00  0.00    +0.000 A 
ENDBRANCH  19  25
ENDBRANCH  18  19
ENDBRANCH  12  18
ENDBRANCH   1  16
BRANCH   9  26
ATOM     26  C   UNL     1       7.349   7.192  17.588  0.00  0.00    +0.000 C 
ATOM     27  F   UNL     1       8.199   7.808  16.723  0.00  0.00    +0.000 F 
ATOM     28  F   UNL     1       6.377   8.102  17.862  0.00  0.00    +0.000 F 
ATOM     29  F   UNL     1       8.048   7.025  18.744  0.00  0.00    +0.000 F 
ENDBRANCH   9  26
TORSDOF 5
ENDMDL
MODEL 2
REMARK VINA RESULT:      -9.0      4.525      6.647
REMARK  Name = 
REMARK  6 active torsions:
REMARK  status: ('A' for Active; 'I' for Inactive)
REMARK    1  A    between atoms: C_1  and  N_2
REMARK    2  A    between atoms: C_6  and  C_7
REMARK    3  A    between atoms: C_7  and  C_8
REMARK    4  A    between atoms: C_8  and  C_9
REMARK    5  A    between atoms: C_13  and  N_14
REMARK    6  A    between atoms: C_22  and  C_23
REMARK                            x       y       z     vdW  Elec       q    Type
REMARK                         _______ _______ _______ _____ _____    ______ ____
ROOT
ATOM      1  N   UNL     1       6.037   5.335  15.592  0.00  0.00    +0.000 N 
ATOM      2  C   UNL     1       4.852   6.201  15.809  0.00  0.00    +0.000 C 
ATOM      3  C   UNL     1       4.081   5.422  16.833  0.00  0.00    +0.000 A 
ATOM      4  C   UNL     1       4.410   4.072  16.657  0.00  0.00    +0.000 A 
ATOM      5  C   UNL     1       4.003   3.077  17.524  0.00  0.00    +0.000 A 
ATOM      6  C   UNL     1       3.256   3.481  18.620  0.00  0.00    +0.000 A 
ATOM      7  F   UNL     1       2.911   2.577  19.546  0.00  0.00    +0.000 F 
ATOM      8  C   UNL     1       2.933   4.831  18.836  0.00  0.00    +0.000 A 
ATOM      9  C   UNL     1       3.345   5.837  17.940  0.00  0.00    +0.000 A 
ATOM     10  C   UNL     1       5.563   4.004  15.737  0.00  0.00    +0.000 C 
ATOM     11  O   UNL     1       6.091   2.967  15.381  0.00  0.00    +0.000 OA
ENDROOT
BRANCH   1  16
ATOM     12  C   UNL     1       7.840   7.646  17.776  0.00  0.00    +0.000 A 
ATOM     13  C   UNL     1       7.922   6.826  18.910  0.00  0.00    +0.000 A 
ATOM     14  C   UNL     1       7.785   5.447  18.797  0.00  0.00    +0.000 A 
ATOM     15  C   UNL     1       7.443   4.886  17.572  0.00  0.00    +0.000 A 
ATOM     16  C   UNL     1       7.110   5.722  16.497  0.00  0.00    +0.000 A 
ATOM     17  C   UNL     1       7.455   7.077  16.557  0.00  0.00    +0.000 A 
BRANCH  12  18
ATOM     18  C   UNL     1       8.043   9.139  17.890  0.00  0.00    +0.000 C 
BRANCH  18  19
ATOM     19  C   UNL     1       8.970   9.495  19.055  0.00  0.00    +0.000 C 
BRANCH  19  25
ATOM     20  C   UNL     1       9.136  11.700  21.221  0.00  0.00    +0.000 C 
ATOM     21  N   UNL     1       9.620  11.804  19.869  0.00  0.00    +0.000 N 
ATOM     22  C   UNL     1      10.207  12.895  19.307  0.00  0.00    +0.000 A 
ATOM     23  N   UNL     1      10.512  12.630  18.058  0.00  0.00    +0.000 NA
ATOM     24  N   UNL     1      10.107  11.344  17.792  0.00  0.00    +0.000 NA
ATOM     25  C   UNL     1       9.573  10.846  18.892  0.00  0.00    +0.000 A 
ENDBRANCH  19  25
ENDBRANCH  18  19
ENDBRANCH  12  18
ENDBRANCH   1  16
BRANCH   9  26
ATOM     26  C   UNL     1       3.085   7.282  18.288  0.00  0.00    +0.000 C 
ATOM     27  F   UNL     1       2.083   7.854  17.569  0.00  0.00    +0.000 F 
ATOM     28  F   UNL     1       2.738   7.437  19.593  0.00  0.00    +0.000 F 
ATOM     29  F   UNL     1       4.181   8.065  18.092  0.00  0.00    +0.000 F 
ENDBRANCH   9  26
TORSDOF 5
ENDMDL
MODEL 3
REMARK VINA RESULT:      -8.8      0.903      1.042
REMARK  Name = 
REMARK  6 active torsions:
REMARK  status: ('A' for Active; 'I' for Inactive)
REMARK    1  A    between atoms: C_1  and  N_2
REMARK    2  A    between atoms: C_6  and  C_7
REMARK    3  A    between atoms: C_7  and  C_8
REMARK    4  A    between atoms: C_8  and  C_9
REMARK    5  A    between atoms: C_13  and  N_14
REMARK    6  A    between atoms: C_22  and  C_23
REMARK                            x       y       z     vdW  Elec       q    Type
REMARK                         _______ _______ _______ _____ _____    ______ ____
ROOT
ATOM      1  N   UNL     1       4.093   4.535  19.150  0.00  0.00    +0.000 N 
ATOM      2  C   UNL     1       5.445   5.133  19.261  0.00  0.00    +0.000 C 
ATOM      3  C   UNL     1       5.951   5.023  17.854  0.00  0.00    +0.000 A 
ATOM      4  C   UNL     1       5.304   3.928  17.267  0.00  0.00    +0.000 A 
ATOM      5  C   UNL     1       5.410   3.618  15.926  0.00  0.00    +0.000 A 
ATOM      6  C   UNL     1       6.186   4.472  15.155  0.00  0.00    +0.000 A 
ATOM      7  F   UNL     1       6.252   4.279  13.831  0.00  0.00    +0.000 F 
ATOM      8  C   UNL     1       6.826   5.591  15.711  0.00  0.00    +0.000 A 
ATOM      9  C   UNL     1       6.718   5.893  17.083  0.00  0.00    +0.000 A 
ATOM     10  C   UNL     1       4.212   3.513  18.170  0.00  0.00    +0.000 C 
ATOM     11  O   UNL     1       3.457   2.585  17.946  0.00  0.00    +0.000 OA
ENDROOT
BRANCH   1  16
ATOM     12  C   UNL     1       2.033   7.446  19.951  0.00  0.00    +0.000 A 
ATOM     13  C   UNL     1       2.393   8.252  18.862  0.00  0.00    +0.000 A 
ATOM     14  C   UNL     1       2.933   7.686  17.712  0.00  0.00    +0.000 A 
ATOM     15  C   UNL     1       3.232   6.329  17.686  0.00  0.00    +0.000 A 
ATOM     16  C   UNL     1       3.112   5.571  18.860  0.00  0.00    +0.000 A 
ATOM     17  C   UNL     1       2.376   6.090  19.932  0.00  0.00    +0.000 A 
BRANCH  12  18
ATOM     18  C   UNL     1       1.396   8.053  21.179  0.00  0.00    +0.000 C 
BRANCH  18  19
ATOM     19  C   UNL     1       0.117   8.821  20.831  0.00  0.00    +0.000 C 
BRANCH  19  25
ATOM     20  C   UNL     1      -0.997  10.832  18.758  0.00  0.00    +0.000 C 
ATOM     21  N   UNL     1      -0.162  11.154  19.885  0.00  0.00    +0.000 N 
ATOM     22  C   UNL     1       0.300  12.391  20.216  0.00  0.00    +0.000 A 
ATOM     23  N   UNL     1       1.036  12.305  21.299  0.00  0.00    +0.000 NA
ATOM     24  N   UNL     1       1.068  10.984  21.680  0.00  0.00    +0.000 NA
ATOM     25  C   UNL     1       0.337  10.293  20.826  0.00  0.00    +0.000 A 
ENDBRANCH  19  25
ENDBRANCH  18  19
ENDBRANCH  12  18
ENDBRANCH   1  16
BRANCH   9  26
ATOM     26  C   UNL     1       7.316   7.178  17.601  0.00  0.00    +0.000 C 
ATOM     27  F   UNL     1       8.187   7.771  16.742  0.00  0.00    +0.000 F 
ATOM     28  F   UNL     1       6.365   8.112  17.866  0.00  0.00    +0.000 F 
ATOM     29  F   UNL     1       8.002   6.996  18.762  0.00  0.00    +0.000 F 
ENDBRANCH   9  26
TORSDOF 5
ENDMDL
MODEL 4
REMARK VINA RESULT:      -8.7      0.786      1.268
REMARK  Name = 
REMARK  6 active torsions:
REMARK  status: ('A' for Active; 'I' for Inactive)
REMARK    1  A    between atoms: C_1  and  N_2
REMARK    2  A    between atoms: C_6  and  C_7
REMARK    3  A    between atoms: C_7  and  C_8
REMARK    4  A    between atoms: C_8  and  C_9
REMARK    5  A    between atoms: C_13  and  N_14
REMARK    6  A    between atoms: C_22  and  C_23
REMARK                            x       y       z     vdW  Elec       q    Type
REMARK                         _______ _______ _______ _____ _____    ______ ____
ROOT
ATOM      1  N   UNL     1       3.974   4.582  19.236  0.00  0.00    +0.000 N 
ATOM      2  C   UNL     1       5.338   5.158  19.330  0.00  0.00    +0.000 C 
ATOM      3  C   UNL     1       5.839   5.002  17.925  0.00  0.00    +0.000 A 
ATOM      4  C   UNL     1       5.170   3.904  17.368  0.00  0.00    +0.000 A 
ATOM      5  C   UNL     1       5.269   3.557  16.035  0.00  0.00    +0.000 A 
ATOM      6  C   UNL     1       6.058   4.376  15.241  0.00  0.00    +0.000 A 
ATOM      7  F   UNL     1       6.119   4.147  13.923  0.00  0.00    +0.000 F 
ATOM      8  C   UNL     1       6.720   5.497  15.766  0.00  0.00    +0.000 A 
ATOM      9  C   UNL     1       6.620   5.837  17.130  0.00  0.00    +0.000 A 
ATOM     10  C   UNL     1       4.073   3.533  18.283  0.00  0.00    +0.000 C 
ATOM     11  O   UNL     1       3.300   2.613  18.085  0.00  0.00    +0.000 OA
ENDROOT
BRANCH   1  16
ATOM     12  C   UNL     1       2.017   7.587  19.941  0.00  0.00    +0.000 A 
ATOM     13  C   UNL     1       2.364   8.325  18.800  0.00  0.00    +0.000 A 
ATOM     14  C   UNL     1       2.853   7.685  17.667  0.00  0.00    +0.000 A 
ATOM     15  C   UNL     1       3.115   6.320  17.705  0.00  0.00    +0.000 A 
ATOM     16  C   UNL     1       3.012   5.629  18.920  0.00  0.00    +0.000 A 
ATOM     17  C   UNL     1       2.324   6.224  19.984  0.00  0.00    +0.000 A 
BRANCH  12  18
ATOM     18  C   UNL     1       1.434   8.276  21.153  0.00  0.00    +0.000 C 
BRANCH  18  19
ATOM     19  C   UNL     1       0.120   8.989  20.820  0.00  0.00    +0.000 C 
BRANCH  19  25
ATOM     20  C   UNL     1      -1.106  10.698  23.091  0.00  0.00    +0.000 C 
ATOM     21  N   UNL     1      -0.330  11.193  21.985  0.00  0.00    +0.000 N 
ATOM     22  C   UNL     1      -0.026  12.495  21.735  0.00  0.00    +0.000 A 
ATOM     23  N   UNL     1       0.690  12.573  20.638  0.00  0.00    +0.000 NA
ATOM     24  N   UNL     1       0.849  11.297  20.151  0.00  0.00    +0.000 NA
ATOM     25  C   UNL     1       0.236  10.465  20.972  0.00  0.00    +0.000 A 
ENDBRANCH  19  25
ENDBRANCH  18  19
ENDBRANCH  12  18
ENDBRANCH   1  16
BRANCH   9  26
ATOM     26  C   UNL     1       7.243   7.123  17.614  0.00  0.00    +0.000 C 
ATOM     27  F   UNL     1       8.129   7.674  16.741  0.00  0.00    +0.000 F 
ATOM     28  F   UNL     1       6.311   8.084  17.848  0.00  0.00    +0.000 F 
ATOM     29  F   UNL     1       7.921   6.961  18.782  0.00  0.00    +0.000 F 
ENDBRANCH   9  26
TORSDOF 5
ENDMDL
MODEL 5
REMARK VINA RESULT:      -8.5      4.309      6.432
REMARK  Name = 
REMARK  6 active torsions:
REMARK  status: ('A' for Active; 'I' for Inactive)
REMARK    1  A    between atoms: C_1  and  N_2
REMARK    2  A    between atoms: C_6  and  C_7
REMARK    3  A    between atoms: C_7  and  C_8
REMARK    4  A    between atoms: C_8  and  C_9
REMARK    5  A    between atoms: C_13  and  N_14
REMARK    6  A    between atoms: C_22  and  C_23
REMARK                            x       y       z     vdW  Elec       q    Type
REMARK                         _______ _______ _______ _____ _____    ______ ____
ROOT
ATOM      1  N   UNL     1       6.116   5.516  15.616  0.00  0.00    +0.000 N 
ATOM      2  C   UNL     1       4.915   6.353  15.858  0.00  0.00    +0.000 C 
ATOM      3  C   UNL     1       4.128   5.502  16.809  0.00  0.00    +0.000 A 
ATOM      4  C   UNL     1       4.478   4.169  16.555  0.00  0.00    +0.000 A 
ATOM      5  C   UNL     1       4.062   3.116  17.346  0.00  0.00    +0.000 A 
ATOM      6  C   UNL     1       3.283   3.440  18.446  0.00  0.00    +0.000 A 
ATOM      7  F   UNL     1       2.927   2.475  19.303  0.00  0.00    +0.000 F 
ATOM      8  C   UNL     1       2.938   4.769  18.740  0.00  0.00    +0.000 A 
ATOM      9  C   UNL     1       3.360   5.836  17.922  0.00  0.00    +0.000 A 
ATOM     10  C   UNL     1       5.655   4.174  15.663  0.00  0.00    +0.000 C 
ATOM     11  O   UNL     1       6.205   3.168  15.255  0.00  0.00    +0.000 OA
ENDROOT
BRANCH   1  16
ATOM     12  C   UNL     1       7.877   7.727  17.933  0.00  0.00    +0.000 A 
ATOM     13  C   UNL     1       7.901   6.873  19.045  0.00  0.00    +0.000 A 
ATOM     14  C   UNL     1       7.743   5.501  18.886  0.00  0.00    +0.000 A 
ATOM     15  C   UNL     1       7.438   4.983  17.633  0.00  0.00    +0.000 A 
ATOM     16  C   UNL     1       7.161   5.856  16.571  0.00  0.00    +0.000 A 
ATOM     17  C   UNL     1       7.528   7.202  16.685  0.00  0.00    +0.000 A 
BRANCH  12  18
ATOM     18  C   UNL     1       8.103   9.211  18.100  0.00  0.00    +0.000 C 
BRANCH  18  19
ATOM     19  C   UNL     1       9.330   9.502  18.968  0.00  0.00    +0.000 C 
BRANCH  19  25
ATOM     20  C   UNL     1      10.537  11.983  17.565  0.00  0.00    +0.000 C 
ATOM     21  N   UNL     1       9.879  11.972  18.845  0.00  0.00    +0.000 N 
ATOM     22  C   UNL     1       9.699  13.042  19.665  0.00  0.00    +0.000 A 
ATOM     23  N   UNL     1       9.067  12.658  20.749  0.00  0.00    +0.000 NA
ATOM     24  N   UNL     1       8.837  11.306  20.643  0.00  0.00    +0.000 NA
ATOM     25  C   UNL     1       9.325  10.897  19.487  0.00  0.00    +0.000 A 
ENDBRANCH  19  25
ENDBRANCH  18  19
ENDBRANCH  12  18
ENDBRANCH   1  16
BRANCH   9  26
ATOM     26  C   UNL     1       3.073   7.252  18.355  0.00  0.00    +0.000 C 
ATOM     27  F   UNL     1       4.085   8.126  18.103  0.00  0.00    +0.000 F 
ATOM     28  F   UNL     1       1.979   7.764  17.731  0.00  0.00    +0.000 F 
ATOM     29  F   UNL     1       2.824   7.342  19.690  0.00  0.00    +0.000 F 
ENDBRANCH   9  26
TORSDOF 5
ENDMDL
MODEL 6
REMARK VINA RESULT:      -8.4      4.668      6.596
REMARK  Name = 
REMARK  6 active torsions:
REMARK  status: ('A' for Active; 'I' for Inactive)
REMARK    1  A    between atoms: C_1  and  N_2
REMARK    2  A    between atoms: C_6  and  C_7
REMARK    3  A    between atoms: C_7  and  C_8
REMARK    4  A    between atoms: C_8  and  C_9
REMARK    5  A    between atoms: C_13  and  N_14
REMARK    6  A    between atoms: C_22  and  C_23
REMARK                            x       y       z     vdW  Elec       q    Type
REMARK                         _______ _______ _______ _____ _____    ______ ____
ROOT
ATOM      1  N   UNL     1       5.826   5.962  15.888  0.00  0.00    +0.000 N 
ATOM      2  C   UNL     1       4.658   6.444  16.664  0.00  0.00    +0.000 C 
ATOM      3  C   UNL     1       4.081   5.161  17.185  0.00  0.00    +0.000 A 
ATOM      4  C   UNL     1       4.428   4.153  16.275  0.00  0.00    +0.000 A 
ATOM      5  C   UNL     1       4.194   2.813  16.509  0.00  0.00    +0.000 A 
ATOM      6  C   UNL     1       3.609   2.491  17.725  0.00  0.00    +0.000 A 
ATOM      7  F   UNL     1       3.443   1.202  18.050  0.00  0.00    +0.000 F 
ATOM      8  C   UNL     1       3.274   3.477  18.667  0.00  0.00    +0.000 A 
ATOM      9  C   UNL     1       3.508   4.843  18.415  0.00  0.00    +0.000 A 
ATOM     10  C   UNL     1       5.428   4.712  15.344  0.00  0.00    +0.000 C 
ATOM     11  O   UNL     1       5.934   4.086  14.431  0.00  0.00    +0.000 OA
ENDROOT
BRANCH   1  16
ATOM     12  C   UNL     1       8.112   7.287  18.413  0.00  0.00    +0.000 A 
ATOM     13  C   UNL     1       8.157   6.164  19.252  0.00  0.00    +0.000 A 
ATOM     14  C   UNL     1       7.808   4.908  18.769  0.00  0.00    +0.000 A 
ATOM     15  C   UNL     1       7.295   4.781  17.484  0.00  0.00    +0.000 A 
ATOM     16  C   UNL     1       7.010   5.931  16.735  0.00  0.00    +0.000 A 
ATOM     17  C   UNL     1       7.556   7.156  17.136  0.00  0.00    +0.000 A 
BRANCH  12  18
ATOM     18  C   UNL     1       8.543   8.643  18.921  0.00  0.00    +0.000 C 
BRANCH  18  19
ATOM     19  C   UNL     1       8.359   9.730  17.858  0.00  0.00    +0.000 C 
BRANCH  19  25
ATOM     20  C   UNL     1       7.591  12.636  17.121  0.00  0.00    +0.000 C 
ATOM     21  N   UNL     1       8.779  12.227  17.822  0.00  0.00    +0.000 N 
ATOM     22  C   UNL     1       9.777  13.044  18.257  0.00  0.00    +0.000 A 
ATOM     23  N   UNL     1      10.702  12.324  18.848  0.00  0.00    +0.000 NA
ATOM     24  N   UNL     1      10.309  11.007  18.790  0.00  0.00    +0.000 NA
ATOM     25  C   UNL     1       9.142  10.954  18.174  0.00  0.00    +0.000 A 
ENDBRANCH  19  25
ENDBRANCH  18  19
ENDBRANCH  12  18
ENDBRANCH   1  16
BRANCH   9  26
ATOM     26  C   UNL     1       3.252   5.847  19.511  0.00  0.00    +0.000 C 
ATOM     27  F   UNL     1       2.656   5.322  20.615  0.00  0.00    +0.000 F 
ATOM     28  F   UNL     1       4.400   6.426  19.952  0.00  0.00    +0.000 F 
ATOM     29  F   UNL     1       2.447   6.865  19.101  0.00  0.00    +0.000 F 
ENDBRANCH   9  26
TORSDOF 5
ENDMDL
MODEL 7
REMARK VINA RESULT:      -8.3      1.020      1.207
REMARK  Name = 
REMARK  6 active torsions:
REMARK  status: ('A' for Active; 'I' for Inactive)
REMARK    1  A    between atoms: C_1  and  N_2
REMARK    2  A    between atoms: C_6  and  C_7
REMARK    3  A    between atoms: C_7  and  C_8
REMARK    4  A    between atoms: C_8  and  C_9
REMARK    5  A    between atoms: C_13  and  N_14
REMARK    6  A    between atoms: C_22  and  C_23
REMARK                            x       y       z     vdW  Elec       q    Type
REMARK                         _______ _______ _______ _____ _____    ______ ____
ROOT
ATOM      1  N   UNL     1       2.964   3.941  19.083  0.00  0.00    +0.000 N 
ATOM      2  C   UNL     1       4.378   4.122  19.493  0.00  0.00    +0.000 C 
ATOM      3  C   UNL     1       5.085   4.142  18.171  0.00  0.00    +0.000 A 
ATOM      4  C   UNL     1       4.312   3.388  17.278  0.00  0.00    +0.000 A 
ATOM      5  C   UNL     1       4.578   3.314  15.926  0.00  0.00    +0.000 A 
ATOM      6  C   UNL     1       5.658   4.055  15.468  0.00  0.00    +0.000 A 
ATOM      7  F   UNL     1       5.911   4.098  14.153  0.00  0.00    +0.000 F 
ATOM      8  C   UNL     1       6.435   4.839  16.335  0.00  0.00    +0.000 A 
ATOM      9  C   UNL     1       6.161   4.901  17.715  0.00  0.00    +0.000 A 
ATOM     10  C   UNL     1       3.010   3.122  17.923  0.00  0.00    +0.000 C 
ATOM     11  O   UNL     1       2.109   2.489  17.405  0.00  0.00    +0.000 OA
ENDROOT
BRANCH   1  16
ATOM     12  C   UNL     1       1.937   7.280  20.155  0.00  0.00    +0.000 A 
ATOM     13  C   UNL     1       2.448   8.005  19.069  0.00  0.00    +0.000 A 
ATOM     14  C   UNL     1       2.713   7.373  17.860  0.00  0.00    +0.000 A 
ATOM     15  C   UNL     1       2.586   5.992  17.761  0.00  0.00    +0.000 A 
ATOM     16  C   UNL     1       2.323   5.237  18.913  0.00  0.00    +0.000 A 
ATOM     17  C   UNL     1       1.854   5.888  20.060  0.00  0.00    +0.000 A 
BRANCH  12  18
ATOM     18  C   UNL     1       1.598   7.977  21.453  0.00  0.00    +0.000 C 
BRANCH  18  19
ATOM     19  C   UNL     1       0.095   8.242  21.576  0.00  0.00    +0.000 C 
BRANCH  19  25
ATOM     20  C   UNL     1      -0.717  10.528  19.654  0.00  0.00    +0.000 C 
ATOM     21  N   UNL     1      -0.537  10.643  21.078  0.00  0.00    +0.000 N 
ATOM     22  C   UNL     1      -0.668  11.779  21.815  0.00  0.00    +0.000 A 
ATOM     23  N   UNL     1      -0.424  11.510  23.076  0.00  0.00    +0.000 NA
ATOM     24  N   UNL     1      -0.115  10.173  23.167  0.00  0.00    +0.000 NA
ATOM     25  C   UNL     1      -0.191   9.652  21.956  0.00  0.00    +0.000 A 
ENDBRANCH  19  25
ENDBRANCH  18  19
ENDBRANCH  12  18
ENDBRANCH   1  16
BRANCH   9  26
ATOM     26  C   UNL     1       6.943   5.860  18.578  0.00  0.00    +0.000 C 
ATOM     27  F   UNL     1       8.273   5.584  18.649  0.00  0.00    +0.000 F 
ATOM     28  F   UNL     1       6.855   7.139  18.127  0.00  0.00    +0.000 F 
ATOM     29  F   UNL     1       6.496   5.880  19.863  0.00  0.00    +0.000 F 
ENDBRANCH   9  26
TORSDOF 5
ENDMDL
MODEL 8
REMARK VINA RESULT:      -8.3      3.739      5.130
REMARK  Name = 
REMARK  6 active torsions:
REMARK  status: ('A' for Active; 'I' for Inactive)
REMARK    1  A    between atoms: C_1  and  N_2
REMARK    2  A    between atoms: C_6  and  C_7
REMARK    3  A    between atoms: C_7  and  C_8
REMARK    4  A    between atoms: C_8  and  C_9
REMARK    5  A    between atoms: C_13  and  N_14
REMARK    6  A    between atoms: C_22  and  C_23
REMARK                            x       y       z     vdW  Elec       q    Type
REMARK                         _______ _______ _______ _____ _____    ______ ____
ROOT
ATOM      1  N   UNL     1       2.925   5.693  17.425  0.00  0.00    +0.000 N 
ATOM      2  C   UNL     1       1.870   4.701  17.743  0.00  0.00    +0.000 C 
ATOM      3  C   UNL     1       2.598   3.752  18.648  0.00  0.00    +0.000 A 
ATOM      4  C   UNL     1       3.954   3.807  18.298  0.00  0.00    +0.000 A 
ATOM      5  C   UNL     1       4.947   3.177  19.021  0.00  0.00    +0.000 A 
ATOM      6  C   UNL     1       4.541   2.487  20.155  0.00  0.00    +0.000 A 
ATOM      7  F   UNL     1       5.466   1.934  20.950  0.00  0.00    +0.000 F 
ATOM      8  C   UNL     1       3.193   2.436  20.544  0.00  0.00    +0.000 A 
ATOM      9  C   UNL     1       2.186   3.075  19.793  0.00  0.00    +0.000 A 
ATOM     10  C   UNL     1       4.138   4.955  17.388  0.00  0.00    +0.000 C 
ATOM     11  O   UNL     1       5.207   5.276  16.903  0.00  0.00    +0.000 OA
ENDROOT
BRANCH   1  16
ATOM     12  C   UNL     1       1.783   8.923  18.698  0.00  0.00    +0.000 A 
ATOM     13  C   UNL     1       1.413   8.511  19.986  0.00  0.00    +0.000 A 
ATOM     14  C   UNL     1       1.930   7.341  20.529  0.00  0.00    +0.000 A 
ATOM     15  C   UNL     1       2.723   6.509  19.747  0.00  0.00    +0.000 A 
ATOM     16  C   UNL     1       2.885   6.789  18.383  0.00  0.00    +0.000 A 
ATOM     17  C   UNL     1       2.547   8.060  17.905  0.00  0.00    +0.000 A 
BRANCH  12  18
ATOM     18  C   UNL     1       1.265  10.223  18.128  0.00  0.00    +0.000 C 
BRANCH  18  19
ATOM     19  C   UNL     1       0.108  10.783  18.961  0.00  0.00    +0.000 C 
BRANCH  19  25
ATOM     20  C   UNL     1      -2.519  12.256  19.673  0.00  0.00    +0.000 C 
ATOM     21  N   UNL     1      -2.347  11.301  18.611  0.00  0.00    +0.000 N 
ATOM     22  C   UNL     1      -3.313  10.864  17.757  0.00  0.00    +0.000 A 
ATOM     23  N   UNL     1      -2.796   9.991  16.925  0.00  0.00    +0.000 NA
ATOM     24  N   UNL     1      -1.467   9.843  17.246  0.00  0.00    +0.000 NA
ATOM     25  C   UNL     1      -1.199  10.641  18.262  0.00  0.00    +0.000 A 
ENDBRANCH  19  25
ENDBRANCH  18  19
ENDBRANCH  12  18
ENDBRANCH   1  16
BRANCH   9  26
ATOM     26  C   UNL     1       0.775   3.099  20.327  0.00  0.00    +0.000 C 
ATOM     27  F   UNL     1       0.634   2.517  21.548  0.00  0.00    +0.000 F 
ATOM     28  F   UNL     1       0.304   4.366  20.465  0.00  0.00    +0.000 F 
ATOM     29  F   UNL     1      -0.098   2.458  19.503  0.00  0.00    +0.000 F 
ENDBRANCH   9  26
TORSDOF 5
ENDMDL
MODEL 9
REMARK VINA RESULT:      -8.3      4.256      7.753
REMARK  Name = 
REMARK  6 active torsions:
REMARK  status: ('A' for Active; 'I' for Inactive)
REMARK    1  A    between atoms: C_1  and  N_2
REMARK    2  A    between atoms: C_6  and  C_7
REMARK    3  A    between atoms: C_7  and  C_8
REMARK    4  A    between atoms: C_8  and  C_9
REMARK    5  A    between atoms: C_13  and  N_14
REMARK    6  A    between atoms: C_22  and  C_23
REMARK                            x       y       z     vdW  Elec       q    Type
REMARK                         _______ _______ _______ _____ _____    ______ ____
ROOT
ATOM      1  N   UNL     1       2.611   7.381  19.342  0.00  0.00    +0.000 N 
ATOM      2  C   UNL     1       2.289   8.172  20.555  0.00  0.00    +0.000 C 
ATOM      3  C   UNL     1       1.193   9.068  20.060  0.00  0.00    +0.000 A 
ATOM      4  C   UNL     1       1.391   9.240  18.684  0.00  0.00    +0.000 A 
ATOM      5  C   UNL     1       0.484   9.884  17.866  0.00  0.00    +0.000 A 
ATOM      6  C   UNL     1      -0.675  10.345  18.472  0.00  0.00    +0.000 A 
ATOM      7  F   UNL     1      -1.634  10.895  17.716  0.00  0.00    +0.000 F 
ATOM      8  C   UNL     1      -0.912  10.165  19.844  0.00  0.00    +0.000 A 
ATOM      9  C   UNL     1       0.024   9.514  20.672  0.00  0.00    +0.000 A 
ATOM     10  C   UNL     1       2.415   8.268  18.251  0.00  0.00    +0.000 C 
ATOM     11  O   UNL     1       2.813   8.162  17.105  0.00  0.00    +0.000 OA
ENDROOT
BRANCH   1  16
ATOM     12  C   UNL     1       1.950   3.887  18.499  0.00  0.00    +0.000 A 
ATOM     13  C   UNL     1       1.593   3.436  19.778  0.00  0.00    +0.000 A 
ATOM     14  C   UNL     1       1.170   4.334  20.751  0.00  0.00    +0.000 A 
ATOM     15  C   UNL     1       1.216   5.700  20.496  0.00  0.00    +0.000 A 
ATOM     16  C   UNL     1       1.812   6.164  19.314  0.00  0.00    +0.000 A 
ATOM     17  C   UNL     1       2.034   5.263  18.266  0.00  0.00    +0.000 A 
BRANCH  12  18
ATOM     18  C   UNL     1       2.358   2.905  17.425  0.00  0.00    +0.000 C 
BRANCH  18  19
ATOM     19  C   UNL     1       3.730   2.290  17.713  0.00  0.00    +0.000 C 
BRANCH  19  25
ATOM     20  C   UNL     1       5.197   4.227  15.796  0.00  0.00    +0.000 C 
ATOM     21  N   UNL     1       5.371   4.156  17.223  0.00  0.00    +0.000 N 
ATOM     22  C   UNL     1       6.227   4.908  17.967  0.00  0.00    +0.000 A 
ATOM     23  N   UNL     1       6.122   4.567  19.229  0.00  0.00    +0.000 NA
ATOM     24  N   UNL     1       5.187   3.562  19.315  0.00  0.00    +0.000 NA
ATOM     25  C   UNL     1       4.731   3.321  18.100  0.00  0.00    +0.000 A 
ENDBRANCH  19  25
ENDBRANCH  18  19
ENDBRANCH  12  18
ENDBRANCH   1  16
BRANCH   9  26
ATOM     26  C   UNL     1      -0.339   9.231  22.109  0.00  0.00    +0.000 C 
ATOM     27  F   UNL     1       0.727   9.190  22.953  0.00  0.00    +0.000 F 
ATOM     28  F   UNL     1      -1.178  10.171  22.618  0.00  0.00    +0.000 F 
ATOM     29  F   UNL     1      -0.976   8.036  22.254  0.00  0.00    +0.000 F 
ENDBRANCH   9  26
TORSDOF 5
ENDMDL
