MODEL 1
REMARK VINA RESULT:      -9.2      0.000      0.000
REMARK  Name = 
REMARK  3 active torsions:
REMARK  status: ('A' for Active; 'I' for Inactive)
REMARK    1  A    between atoms: C_1  and  N_2
REMARK    2  A    between atoms: C_4  and  C_5
REMARK    3  A    between atoms: C_9  and  C_11
REMARK                            x       y       z     vdW  Elec       q    Type
REMARK                         _______ _______ _______ _____ _____    ______ ____
ROOT
ATOM      1  C   UNL     1       0.123  11.072  19.767  0.00  0.00    +0.000 C 
ATOM      2  C   UNL     1       1.085  11.162  18.585  0.00  0.00    +0.000 C 
ATOM      3  C   UNL     1       1.519   9.734  18.309  0.00  0.00    +0.000 C 
ATOM      4  N   UNL     1       1.338   9.012  19.559  0.00  0.00    +0.000 N 
ATOM      5  C   UNL     1       1.827   7.781  19.974  0.00  0.00    +0.000 C 
ATOM      6  O   UNL     1       1.603   7.381  21.118  0.00  0.00    +0.000 OA
ATOM      7  C   UNL     1       0.327   9.666  20.360  0.00  0.00    +0.000 C 
ENDROOT
BRANCH   5   8
ATOM      8  C   UNL     1       2.566   6.979  19.019  0.00  0.00    +0.000 A 
ATOM      9  N   UNL     1       3.426   7.493  18.079  0.00  0.00    +0.000 N 
ATOM     10  C   UNL     1       4.025   6.513  17.342  0.00  0.00    +0.000 A 
ATOM     11  C   UNL     1       5.015   6.622  16.362  0.00  0.00    +0.000 A 
ATOM     12  C   UNL     1       5.409   5.448  15.723  0.00  0.00    +0.000 A 
ATOM     13  C   UNL     1       4.826   4.226  16.052  0.00  0.00    +0.000 A 
ATOM     14  C   UNL     1       3.838   4.141  17.043  0.00  0.00    +0.000 A 
ATOM     15  C   UNL     1       3.432   5.312  17.715  0.00  0.00    +0.000 A 
ATOM     16  C   UNL     1       2.498   5.621  18.750  0.00  0.00    +0.000 A 
ATOM     17 CL   UNL     1       1.506   4.456  19.509  0.00  0.00    +0.000 Cl
ATOM     18  H   UNL     1       3.593   8.474  17.927  0.00  0.00    +0.000 HD
ENDBRANCH   5   8
BRANCH   1  22
ATOM     19  C   UNL     1      -4.558  12.970  19.744  0.00  0.00    +0.000 C 
ATOM     20  N   UNL     1      -3.408  12.144  19.448  0.00  0.00    +0.000 N 
ATOM     21  C   UNL     1      -2.265  12.068  20.211  0.00  0.00    +0.000 A 
ATOM     22  C   UNL     1      -1.339  11.307  19.521  0.00  0.00    +0.000 A 
ATOM     23  C   UNL     1      -1.990  10.846  18.331  0.00  0.00    +0.000 A 
ATOM     24  C   UNL     1      -1.555  10.056  17.245  0.00  0.00    +0.000 A 
ATOM     25  C   UNL     1      -2.398   9.859  16.153  0.00  0.00    +0.000 A 
ATOM     26  C   UNL     1      -3.664  10.434  16.131  0.00  0.00    +0.000 A 
ATOM     27  C   UNL     1      -4.127  11.209  17.200  0.00  0.00    +0.000 A 
ATOM     28  C   UNL     1      -3.266  11.404  18.293  0.00  0.00    +0.000 A 
ENDBRANCH   1  22
TORSDOF 2
ENDMDL
MODEL 2
REMARK VINA RESULT:      -8.9      0.787      2.260
REMARK  Name = 
REMARK  3 active torsions:
REMARK  status: ('A' for Active; 'I' for Inactive)
REMARK    1  A    between atoms: C_1  and  N_2
REMARK    2  A    between atoms: C_4  and  C_5
REMARK    3  A    between atoms: C_9  and  C_11
REMARK                            x       y       z     vdW  Elec       q    Type
REMARK                         _______ _______ _______ _____ _____    ______ ____
ROOT
ATOM      1  C   UNL     1       0.431  11.184  19.453  0.00  0.00    +0.000 C 
ATOM      2  C   UNL     1       1.522  11.240  18.386  0.00  0.00    +0.000 C 
ATOM      3  C   UNL     1       1.881   9.793  18.101  0.00  0.00    +0.000 C 
ATOM      4  N   UNL     1       1.513   9.047  19.294  0.00  0.00    +0.000 N 
ATOM      5  C   UNL     1       1.863   7.770  19.709  0.00  0.00    +0.000 C 
ATOM      6  O   UNL     1       1.487   7.351  20.806  0.00  0.00    +0.000 OA
ATOM      7  C   UNL     1       0.468   9.748  20.007  0.00  0.00    +0.000 C 
ENDROOT
BRANCH   5   8
ATOM      8  C   UNL     1       2.644   6.946  18.807  0.00  0.00    +0.000 A 
ATOM      9  N   UNL     1       3.531   7.440  17.880  0.00  0.00    +0.000 N 
ATOM     10  C   UNL     1       4.167   6.443  17.198  0.00  0.00    +0.000 A 
ATOM     11  C   UNL     1       5.189   6.531  16.250  0.00  0.00    +0.000 A 
ATOM     12  C   UNL     1       5.617   5.342  15.664  0.00  0.00    +0.000 A 
ATOM     13  C   UNL     1       5.037   4.125  16.013  0.00  0.00    +0.000 A 
ATOM     14  C   UNL     1       4.016   4.061  16.972  0.00  0.00    +0.000 A 
ATOM     15  C   UNL     1       3.574   5.248  17.590  0.00  0.00    +0.000 A 
ATOM     16  C   UNL     1       2.601   5.579  18.582  0.00  0.00    +0.000 A 
ATOM     17 CL   UNL     1       1.597   4.428  19.344  0.00  0.00    +0.000 Cl
ATOM     18  H   UNL     1       3.692   8.416  17.702  0.00  0.00    +0.000 HD
ENDBRANCH   5   8
BRANCH   1  22
ATOM     19  C   UNL     1      -4.096  11.348  17.220  0.00  0.00    +0.000 C 
ATOM     20  N   UNL     1      -3.002  11.605  18.132  0.00  0.00    +0.000 N 
ATOM     21  C   UNL     1      -1.684  11.287  17.902  0.00  0.00    +0.000 A 
ATOM     22  C   UNL     1      -0.974  11.537  19.062  0.00  0.00    +0.000 A 
ATOM     23  C   UNL     1      -1.901  12.103  19.997  0.00  0.00    +0.000 A 
ATOM     24  C   UNL     1      -1.768  12.539  21.333  0.00  0.00    +0.000 A 
ATOM     25  C   UNL     1      -2.896  12.952  22.039  0.00  0.00    +0.000 A 
ATOM     26  C   UNL     1      -4.148  12.939  21.434  0.00  0.00    +0.000 A 
ATOM     27  C   UNL     1      -4.306  12.526  20.106  0.00  0.00    +0.000 A 
ATOM     28  C   UNL     1      -3.162  12.107  19.406  0.00  0.00    +0.000 A 
ENDBRANCH   1  22
TORSDOF 2
ENDMDL
MODEL 3
REMARK VINA RESULT:      -8.5      2.062      3.437
REMARK  Name = 
REMARK  3 active torsions:
REMARK  status: ('A' for Active; 'I' for Inactive)
REMARK    1  A    between atoms: C_1  and  N_2
REMARK    2  A    between atoms: C_4  and  C_5
REMARK    3  A    between atoms: C_9  and  C_11
REMARK                            x       y       z     vdW  Elec       q    Type
REMARK                         _______ _______ _______ _____ _____    ______ ____
ROOT
ATOM      1  C   UNL     1      -2.590  11.853  18.177  0.00  0.00    +0.000 C 
ATOM      2  C   UNL     1      -2.579  10.476  17.517  0.00  0.00    +0.000 C 
ATOM      3  C   UNL     1      -1.357   9.771  18.078  0.00  0.00    +0.000 C 
ATOM      4  N   UNL     1      -0.446  10.823  18.500  0.00  0.00    +0.000 N 
ATOM      5  C   UNL     1       0.906  10.781  18.812  0.00  0.00    +0.000 C 
ATOM      6  O   UNL     1       1.510  11.820  19.085  0.00  0.00    +0.000 OA
ATOM      7  C   UNL     1      -1.191  12.027  18.795  0.00  0.00    +0.000 C 
ENDROOT
BRANCH   5   8
ATOM      8  C   UNL     1       1.563   9.489  18.840  0.00  0.00    +0.000 A 
ATOM      9  N   UNL     1       2.329   8.988  17.814  0.00  0.00    +0.000 N 
ATOM     10  C   UNL     1       2.869   7.773  18.123  0.00  0.00    +0.000 A 
ATOM     11  C   UNL     1       3.764   6.989  17.391  0.00  0.00    +0.000 A 
ATOM     12  C   UNL     1       4.110   5.751  17.927  0.00  0.00    +0.000 A 
ATOM     13  C   UNL     1       3.573   5.322  19.139  0.00  0.00    +0.000 A 
ATOM     14  C   UNL     1       2.681   6.129  19.859  0.00  0.00    +0.000 A 
ATOM     15  C   UNL     1       2.325   7.393  19.345  0.00  0.00    +0.000 A 
ATOM     16  C   UNL     1       1.486   8.467  19.773  0.00  0.00    +0.000 A 
ATOM     17 CL   UNL     1       0.581   8.443  21.220  0.00  0.00    +0.000 Cl
ATOM     18  H   UNL     1       2.470   9.441  16.927  0.00  0.00    +0.000 HD
ENDBRANCH   5   8
BRANCH   1  22
ATOM     19  C   UNL     1      -5.034  13.396  22.319  0.00  0.00    +0.000 C 
ATOM     20  N   UNL     1      -4.760  12.854  21.006  0.00  0.00    +0.000 N 
ATOM     21  C   UNL     1      -3.527  12.438  20.558  0.00  0.00    +0.000 A 
ATOM     22  C   UNL     1      -3.638  12.143  19.212  0.00  0.00    +0.000 A 
ATOM     23  C   UNL     1      -5.017  12.318  18.865  0.00  0.00    +0.000 A 
ATOM     24  C   UNL     1      -5.724  12.183  17.650  0.00  0.00    +0.000 A 
ATOM     25  C   UNL     1      -7.071  12.533  17.593  0.00  0.00    +0.000 A 
ATOM     26  C   UNL     1      -7.721  13.012  18.725  0.00  0.00    +0.000 A 
ATOM     27  C   UNL     1      -7.048  13.142  19.946  0.00  0.00    +0.000 A 
ATOM     28  C   UNL     1      -5.689  12.790  19.989  0.00  0.00    +0.000 A 
ENDBRANCH   1  22
TORSDOF 2
ENDMDL
MODEL 4
REMARK VINA RESULT:      -8.5      2.213      8.274
REMARK  Name = 
REMARK  3 active torsions:
REMARK  status: ('A' for Active; 'I' for Inactive)
REMARK    1  A    between atoms: C_1  and  N_2
REMARK    2  A    between atoms: C_4  and  C_5
REMARK    3  A    between atoms: C_9  and  C_11
REMARK                            x       y       z     vdW  Elec       q    Type
REMARK                         _______ _______ _______ _____ _____    ______ ____
ROOT
ATOM      1  C   UNL     1       2.089   7.575  20.460  0.00  0.00    +0.000 C 
ATOM      2  C   UNL     1       1.120   7.995  21.563  0.00  0.00    +0.000 C 
ATOM      3  C   UNL     1       0.058   8.829  20.871  0.00  0.00    +0.000 C 
ATOM      4  N   UNL     1       0.681   9.350  19.665  0.00  0.00    +0.000 N 
ATOM      5  C   UNL     1       0.295  10.378  18.815  0.00  0.00    +0.000 C 
ATOM      6  O   UNL     1       1.017  10.704  17.871  0.00  0.00    +0.000 OA
ATOM      7  C   UNL     1       1.764   8.481  19.258  0.00  0.00    +0.000 C 
ENDROOT
BRANCH   5   8
ATOM      8  C   UNL     1      -0.984  11.018  19.051  0.00  0.00    +0.000 A 
ATOM      9  N   UNL     1      -1.233  11.892  20.083  0.00  0.00    +0.000 N 
ATOM     10  C   UNL     1      -2.505  12.384  20.041  0.00  0.00    +0.000 A 
ATOM     11  C   UNL     1      -3.108  13.351  20.849  0.00  0.00    +0.000 A 
ATOM     12  C   UNL     1      -4.454  13.625  20.618  0.00  0.00    +0.000 A 
ATOM     13  C   UNL     1      -5.159  12.949  19.624  0.00  0.00    +0.000 A 
ATOM     14  C   UNL     1      -4.531  11.987  18.821  0.00  0.00    +0.000 A 
ATOM     15  C   UNL     1      -3.166  11.701  19.026  0.00  0.00    +0.000 A 
ATOM     16  C   UNL     1      -2.207  10.827  18.429  0.00  0.00    +0.000 A 
ATOM     17 CL   UNL     1      -2.569   9.762  17.144  0.00  0.00    +0.000 Cl
ATOM     18  H   UNL     1      -0.573  12.137  20.801  0.00  0.00    +0.000 HD
ENDBRANCH   5   8
BRANCH   1  22
ATOM     19  C   UNL     1       0.816   2.792  19.453  0.00  0.00    +0.000 C 
ATOM     20  N   UNL     1       1.555   4.034  19.517  0.00  0.00    +0.000 N 
ATOM     21  C   UNL     1       1.287   5.077  20.372  0.00  0.00    +0.000 A 
ATOM     22  C   UNL     1       2.098   6.140  20.021  0.00  0.00    +0.000 A 
ATOM     23  C   UNL     1       2.941   5.679  18.958  0.00  0.00    +0.000 A 
ATOM     24  C   UNL     1       3.946   6.307  18.191  0.00  0.00    +0.000 A 
ATOM     25  C   UNL     1       4.532   5.624  17.127  0.00  0.00    +0.000 A 
ATOM     26  C   UNL     1       4.134   4.327  16.822  0.00  0.00    +0.000 A 
ATOM     27  C   UNL     1       3.151   3.674  17.575  0.00  0.00    +0.000 A 
ATOM     28  C   UNL     1       2.564   4.376  18.641  0.00  0.00    +0.000 A 
ENDBRANCH   1  22
TORSDOF 2
ENDMDL
MODEL 5
REMARK VINA RESULT:      -8.5      2.310      3.505
REMARK  Name = 
REMARK  3 active torsions:
REMARK  status: ('A' for Active; 'I' for Inactive)
REMARK    1  A    between atoms: C_1  and  N_2
REMARK    2  A    between atoms: C_4  and  C_5
REMARK    3  A    between atoms: C_9  and  C_11
REMARK                            x       y       z     vdW  Elec       q    Type
REMARK                         _______ _______ _______ _____ _____    ______ ____
ROOT
ATOM      1  C   UNL     1      -2.092  12.365  19.617  0.00  0.00    +0.000 C 
ATOM      2  C   UNL     1      -1.855  11.525  18.363  0.00  0.00    +0.000 C 
ATOM      3  C   UNL     1      -1.040  10.331  18.827  0.00  0.00    +0.000 C 
ATOM      4  N   UNL     1      -0.360  10.757  20.040  0.00  0.00    +0.000 N 
ATOM      5  C   UNL     1       0.713  10.199  20.722  0.00  0.00    +0.000 C 
ATOM      6  O   UNL     1       1.182  10.770  21.708  0.00  0.00    +0.000 OA
ATOM      7  C   UNL     1      -1.102  11.828  20.667  0.00  0.00    +0.000 C 
ENDROOT
BRANCH   5   8
ATOM      8  C   UNL     1       1.229   8.925  20.262  0.00  0.00    +0.000 A 
ATOM      9  N   UNL     1       1.317   7.798  21.045  0.00  0.00    +0.000 N 
ATOM     10  C   UNL     1       1.794   6.726  20.347  0.00  0.00    +0.000 A 
ATOM     11  C   UNL     1       1.944   5.399  20.757  0.00  0.00    +0.000 A 
ATOM     12  C   UNL     1       2.516   4.513  19.846  0.00  0.00    +0.000 A 
ATOM     13  C   UNL     1       2.923   4.948  18.586  0.00  0.00    +0.000 A 
ATOM     14  C   UNL     1       2.756   6.284  18.196  0.00  0.00    +0.000 A 
ATOM     15  C   UNL     1       2.168   7.198  19.094  0.00  0.00    +0.000 A 
ATOM     16  C   UNL     1       1.832   8.586  19.062  0.00  0.00    +0.000 A 
ATOM     17 CL   UNL     1       2.131   9.601  17.721  0.00  0.00    +0.000 Cl
ATOM     18  H   UNL     1       1.080   7.756  22.021  0.00  0.00    +0.000 HD
ENDBRANCH   5   8
BRANCH   1  22
ATOM     19  C   UNL     1      -6.119  13.330  22.509  0.00  0.00    +0.000 C 
ATOM     20  N   UNL     1      -5.286  12.849  21.429  0.00  0.00    +0.000 N 
ATOM     21  C   UNL     1      -3.914  12.743  21.468  0.00  0.00    +0.000 A 
ATOM     22  C   UNL     1      -3.474  12.405  20.203  0.00  0.00    +0.000 A 
ATOM     23  C   UNL     1      -4.644  12.227  19.395  0.00  0.00    +0.000 A 
ATOM     24  C   UNL     1      -4.828  11.898  18.034  0.00  0.00    +0.000 A 
ATOM     25  C   UNL     1      -6.110  11.903  17.490  0.00  0.00    +0.000 A 
ATOM     26  C   UNL     1      -7.207  12.226  18.280  0.00  0.00    +0.000 A 
ATOM     27  C   UNL     1      -7.056  12.541  19.636  0.00  0.00    +0.000 A 
ATOM     28  C   UNL     1      -5.757  12.538  20.171  0.00  0.00    +0.000 A 
ENDBRANCH   1  22
TORSDOF 2
ENDMDL
MODEL 6
REMARK VINA RESULT:      -8.4      2.289      8.412
REMARK  Name = 
REMARK  3 active torsions:
REMARK  status: ('A' for Active; 'I' for Inactive)
REMARK    1  A    between atoms: C_1  and  N_2
REMARK    2  A    between atoms: C_4  and  C_5
REMARK    3  A    between atoms: C_9  and  C_11
REMARK                            x       y       z     vdW  Elec       q    Type
REMARK                         _______ _______ _______ _____ _____    ______ ____
ROOT
ATOM      1  C   UNL     1       2.377   7.507  19.921  0.00  0.00    +0.000 C 
ATOM      2  C   UNL     1       1.214   7.550  20.910  0.00  0.00    +0.000 C 
ATOM      3  C   UNL     1       0.216   8.527  20.314  0.00  0.00    +0.000 C 
ATOM      4  N   UNL     1       0.984   9.403  19.443  0.00  0.00    +0.000 N 
ATOM      5  C   UNL     1       0.662  10.628  18.876  0.00  0.00    +0.000 C 
ATOM      6  O   UNL     1       1.500  11.242  18.212  0.00  0.00    +0.000 OA
ATOM      7  C   UNL     1       2.182   8.724  18.998  0.00  0.00    +0.000 C 
ENDROOT
BRANCH   5   8
ATOM      8  C   UNL     1      -0.683  11.136  19.058  0.00  0.00    +0.000 A 
ATOM      9  N   UNL     1      -1.077  11.921  20.116  0.00  0.00    +0.000 N 
ATOM     10  C   UNL     1      -2.385  12.298  20.015  0.00  0.00    +0.000 A 
ATOM     11  C   UNL     1      -3.125  13.157  20.831  0.00  0.00    +0.000 A 
ATOM     12  C   UNL     1      -4.473  13.322  20.523  0.00  0.00    +0.000 A 
ATOM     13  C   UNL     1      -5.049  12.646  19.449  0.00  0.00    +0.000 A 
ATOM     14  C   UNL     1      -4.284  11.793  18.640  0.00  0.00    +0.000 A 
ATOM     15  C   UNL     1      -2.914  11.620  18.922  0.00  0.00    +0.000 A 
ATOM     16  C   UNL     1      -1.842  10.873  18.345  0.00  0.00    +0.000 A 
ATOM     17 CL   UNL     1      -2.021   9.858  16.983  0.00  0.00    +0.000 Cl
ATOM     18  H   UNL     1      -0.490  12.181  20.890  0.00  0.00    +0.000 HD
ENDBRANCH   5   8
BRANCH   1  22
ATOM     19  C   UNL     1       4.130   4.047  16.685  0.00  0.00    +0.000 C 
ATOM     20  N   UNL     1       3.339   4.699  17.707  0.00  0.00    +0.000 N 
ATOM     21  C   UNL     1       3.300   6.054  17.939  0.00  0.00    +0.000 A 
ATOM     22  C   UNL     1       2.567   6.271  19.091  0.00  0.00    +0.000 A 
ATOM     23  C   UNL     1       2.085   4.991  19.518  0.00  0.00    +0.000 A 
ATOM     24  C   UNL     1       1.308   4.579  20.622  0.00  0.00    +0.000 A 
ATOM     25  C   UNL     1       1.084   3.222  20.841  0.00  0.00    +0.000 A 
ATOM     26  C   UNL     1       1.619   2.273  19.977  0.00  0.00    +0.000 A 
ATOM     27  C   UNL     1       2.381   2.654  18.866  0.00  0.00    +0.000 A 
ATOM     28  C   UNL     1       2.604   4.025  18.659  0.00  0.00    +0.000 A 
ENDBRANCH   1  22
TORSDOF 2
ENDMDL
MODEL 7
REMARK VINA RESULT:      -8.4      2.331      8.311
REMARK  Name = 
REMARK  3 active torsions:
REMARK  status: ('A' for Active; 'I' for Inactive)
REMARK    1  A    between atoms: C_1  and  N_2
REMARK    2  A    between atoms: C_4  and  C_5
REMARK    3  A    between atoms: C_9  and  C_11
REMARK                            x       y       z     vdW  Elec       q    Type
REMARK                         _______ _______ _______ _____ _____    ______ ____
ROOT
ATOM      1  C   UNL     1       2.427   7.197  20.115  0.00  0.00    +0.000 C 
ATOM      2  C   UNL     1       1.523   7.612  21.273  0.00  0.00    +0.000 C 
ATOM      3  C   UNL     1       0.468   8.512  20.657  0.00  0.00    +0.000 C 
ATOM      4  N   UNL     1       1.061   9.053  19.444  0.00  0.00    +0.000 N 
ATOM      5  C   UNL     1       0.681  10.125  18.649  0.00  0.00    +0.000 C 
ATOM      6  O   UNL     1       1.377  10.458  17.687  0.00  0.00    +0.000 OA
ATOM      7  C   UNL     1       2.090   8.158  18.961  0.00  0.00    +0.000 C 
ENDROOT
BRANCH   5   8
ATOM      8  C   UNL     1      -0.560  10.806  18.962  0.00  0.00    +0.000 A 
ATOM      9  N   UNL     1      -1.696  10.737  18.191  0.00  0.00    +0.000 N 
ATOM     10  C   UNL     1      -2.733  11.432  18.743  0.00  0.00    +0.000 A 
ATOM     11  C   UNL     1      -4.059  11.531  18.316  0.00  0.00    +0.000 A 
ATOM     12  C   UNL     1      -4.902  12.365  19.047  0.00  0.00    +0.000 A 
ATOM     13  C   UNL     1      -4.426  13.071  20.150  0.00  0.00    +0.000 A 
ATOM     14  C   UNL     1      -3.091  12.951  20.563  0.00  0.00    +0.000 A 
ATOM     15  C   UNL     1      -2.222  12.102  19.849  0.00  0.00    +0.000 A 
ATOM     16  C   UNL     1      -0.850  11.721  19.961  0.00  0.00    +0.000 A 
ATOM     17 CL   UNL     1       0.202  12.317  21.167  0.00  0.00    +0.000 Cl
ATOM     18  H   UNL     1      -1.767  10.251  17.313  0.00  0.00    +0.000 HD
ENDBRANCH   5   8
BRANCH   1  22
ATOM     19  C   UNL     1       0.876   2.559  18.851  0.00  0.00    +0.000 C 
ATOM     20  N   UNL     1       1.699   3.738  19.010  0.00  0.00    +0.000 N 
ATOM     21  C   UNL     1       1.450   4.772  19.883  0.00  0.00    +0.000 A 
ATOM     22  C   UNL     1       2.361   5.779  19.626  0.00  0.00    +0.000 A 
ATOM     23  C   UNL     1       3.239   5.289  18.605  0.00  0.00    +0.000 A 
ATOM     24  C   UNL     1       4.339   5.862  17.931  0.00  0.00    +0.000 A 
ATOM     25  C   UNL     1       4.945   5.169  16.885  0.00  0.00    +0.000 A 
ATOM     26  C   UNL     1       4.474   3.917  16.506  0.00  0.00    +0.000 A 
ATOM     27  C   UNL     1       3.395   3.318  17.168  0.00  0.00    +0.000 A 
ATOM     28  C   UNL     1       2.790   4.029  18.217  0.00  0.00    +0.000 A 
ENDBRANCH   1  22
TORSDOF 2
ENDMDL
MODEL 8
REMARK VINA RESULT:      -8.3      1.578      2.214
REMARK  Name = 
REMARK  3 active torsions:
REMARK  status: ('A' for Active; 'I' for Inactive)
REMARK    1  A    between atoms: C_1  and  N_2
REMARK    2  A    between atoms: C_4  and  C_5
REMARK    3  A    between atoms: C_9  and  C_11
REMARK                            x       y       z     vdW  Elec       q    Type
REMARK                         _______ _______ _______ _____ _____    ______ ____
ROOT
ATOM      1  C   UNL     1       0.381  10.764  19.117  0.00  0.00    +0.000 C 
ATOM      2  C   UNL     1       0.857  10.096  17.828  0.00  0.00    +0.000 C 
ATOM      3  C   UNL     1       1.085   8.640  18.190  0.00  0.00    +0.000 C 
ATOM      4  N   UNL     1       1.328   8.617  19.624  0.00  0.00    +0.000 N 
ATOM      5  C   UNL     1       1.867   7.629  20.437  0.00  0.00    +0.000 C 
ATOM      6  O   UNL     1       2.049   7.847  21.636  0.00  0.00    +0.000 OA
ATOM      7  C   UNL     1       0.710   9.768  20.244  0.00  0.00    +0.000 C 
ENDROOT
BRANCH   5   8
ATOM      8  C   UNL     1       2.169   6.342  19.843  0.00  0.00    +0.000 A 
ATOM      9  N   UNL     1       1.683   5.142  20.308  0.00  0.00    +0.000 N 
ATOM     10  C   UNL     1       2.084   4.093  19.534  0.00  0.00    +0.000 A 
ATOM     11  C   UNL     1       1.735   2.743  19.621  0.00  0.00    +0.000 A 
ATOM     12  C   UNL     1       2.345   1.868  18.725  0.00  0.00    +0.000 A 
ATOM     13  C   UNL     1       3.269   2.333  17.791  0.00  0.00    +0.000 A 
ATOM     14  C   UNL     1       3.599   3.694  17.718  0.00  0.00    +0.000 A 
ATOM     15  C   UNL     1       2.985   4.602  18.604  0.00  0.00    +0.000 A 
ATOM     16  C   UNL     1       3.049   6.011  18.826  0.00  0.00    +0.000 A 
ATOM     17 CL   UNL     1       4.052   7.065  17.931  0.00  0.00    +0.000 Cl
ATOM     18  H   UNL     1       1.113   5.032  21.129  0.00  0.00    +0.000 HD
ENDBRANCH   5   8
BRANCH   1  22
ATOM     19  C   UNL     1      -3.910  13.173  20.254  0.00  0.00    +0.000 C 
ATOM     20  N   UNL     1      -2.967  12.251  19.660  0.00  0.00    +0.000 N 
ATOM     21  C   UNL     1      -1.707  11.982  20.141  0.00  0.00    +0.000 A 
ATOM     22  C   UNL     1      -1.057  11.183  19.219  0.00  0.00    +0.000 A 
ATOM     23  C   UNL     1      -2.002  10.903  18.179  0.00  0.00    +0.000 A 
ATOM     24  C   UNL     1      -1.917  10.166  16.979  0.00  0.00    +0.000 A 
ATOM     25  C   UNL     1      -2.992  10.160  16.093  0.00  0.00    +0.000 A 
ATOM     26  C   UNL     1      -4.148  10.874  16.388  0.00  0.00    +0.000 A 
ATOM     27  C   UNL     1      -4.267  11.601  17.579  0.00  0.00    +0.000 A 
ATOM     28  C   UNL     1      -3.174  11.603  18.460  0.00  0.00    +0.000 A 
ENDBRANCH   1  22
TORSDOF 2
ENDMDL
MODEL 9
REMARK VINA RESULT:      -8.2      2.389      8.565
REMARK  Name = 
REMARK  3 active torsions:
REMARK  status: ('A' for Active; 'I' for Inactive)
REMARK    1  A    between atoms: C_1  and  N_2
REMARK    2  A    between atoms: C_4  and  C_5
REMARK    3  A    between atoms: C_9  and  C_11
REMARK                            x       y       z     vdW  Elec       q    Type
REMARK                         _______ _______ _______ _____ _____    ______ ____
ROOT
ATOM      1  C   UNL     1       1.484   9.325  19.882  0.00  0.00    +0.000 C 
ATOM      2  C   UNL     1       0.281   8.964  20.751  0.00  0.00    +0.000 C 
ATOM      3  C   UNL     1      -0.918   9.582  20.055  0.00  0.00    +0.000 C 
ATOM      4  N   UNL     1      -0.397  10.681  19.259  0.00  0.00    +0.000 N 
ATOM      5  C   UNL     1      -1.044  11.752  18.657  0.00  0.00    +0.000 C 
ATOM      6  O   UNL     1      -0.391  12.620  18.075  0.00  0.00    +0.000 OA
ATOM      7  C   UNL     1       0.992  10.438  18.938  0.00  0.00    +0.000 C 
ENDROOT
BRANCH   5   8
ATOM      8  C   UNL     1      -2.492  11.792  18.704  0.00  0.00    +0.000 A 
ATOM      9  N   UNL     1      -3.216  12.538  19.603  0.00  0.00    +0.000 N 
ATOM     10  C   UNL     1      -4.561  12.430  19.393  0.00  0.00    +0.000 A 
ATOM     11  C   UNL     1      -5.613  13.093  20.029  0.00  0.00    +0.000 A 
ATOM     12  C   UNL     1      -6.907  12.744  19.649  0.00  0.00    +0.000 A 
ATOM     13  C   UNL     1      -7.128  11.767  18.680  0.00  0.00    +0.000 A 
ATOM     14  C   UNL     1      -6.055  11.119  18.052  0.00  0.00    +0.000 A 
ATOM     15  C   UNL     1      -4.735  11.464  18.408  0.00  0.00    +0.000 A 
ATOM     16  C   UNL     1      -3.430  11.052  18.001  0.00  0.00    +0.000 A 
ATOM     17 CL   UNL     1      -3.140   9.854  16.820  0.00  0.00    +0.000 Cl
ATOM     18  H   UNL     1      -2.820  13.090  20.344  0.00  0.00    +0.000 HD
ENDBRANCH   5   8
BRANCH   1  22
ATOM     19  C   UNL     1       4.434   6.742  16.698  0.00  0.00    +0.000 C 
ATOM     20  N   UNL     1       3.461   7.059  17.721  0.00  0.00    +0.000 N 
ATOM     21  C   UNL     1       2.887   8.293  17.917  0.00  0.00    +0.000 A 
ATOM     22  C   UNL     1       2.142   8.239  19.081  0.00  0.00    +0.000 A 
ATOM     23  C   UNL     1       2.216   6.889  19.554  0.00  0.00    +0.000 A 
ATOM     24  C   UNL     1       1.681   6.240  20.687  0.00  0.00    +0.000 A 
ATOM     25  C   UNL     1       2.020   4.914  20.948  0.00  0.00    +0.000 A 
ATOM     26  C   UNL     1       2.879   4.228  20.097  0.00  0.00    +0.000 A 
ATOM     27  C   UNL     1       3.413   4.843  18.958  0.00  0.00    +0.000 A 
ATOM     28  C   UNL     1       3.067   6.181  18.708  0.00  0.00    +0.000 A 
ENDBRANCH   1  22
TORSDOF 2
ENDMDL
