MODEL 1
REMARK VINA RESULT:      -9.5      0.000      0.000
REMARK  Name = 
REMARK  3 active torsions:
REMARK  status: ('A' for Active; 'I' for Inactive)
REMARK    1  A    between atoms: C_2  and  C_20
REMARK    2  A    between atoms: N_3  and  C_4
REMARK    3  A    between atoms: C_7  and  C_8
REMARK                            x       y       z     vdW  Elec       q    Type
REMARK                         _______ _______ _______ _____ _____    ______ ____
ROOT
ATOM      1  C   UNL     1       0.689   9.617  20.342  0.00  0.00    +0.000 A 
ATOM      2  C   UNL     1       1.146   8.448  20.943  0.00  0.00    +0.000 A 
ATOM      3  C   UNL     1       1.924   7.532  20.220  0.00  0.00    +0.000 A 
ATOM      4  C   UNL     1       2.255   7.763  18.880  0.00  0.00    +0.000 A 
ATOM      5  C   UNL     1       1.749   8.916  18.268  0.00  0.00    +0.000 A 
ATOM      6  C   UNL     1       1.000   9.845  18.997  0.00  0.00    +0.000 A 
ENDROOT
BRANCH   4   7
ATOM      7  C   UNL     1       3.079   6.788  18.159  0.00  0.00    +0.000 A 
ATOM      8  N   UNL     1       4.100   7.094  17.377  0.00  0.00    +0.000 NA
ATOM      9  N   UNL     1       4.668   5.937  16.919  0.00  0.00    +0.000 NA
ATOM     10  C   UNL     1       3.982   4.922  17.399  0.00  0.00    +0.000 A 
ATOM     11  N   UNL     1       2.924   5.414  18.129  0.00  0.00    +0.000 N 
ATOM     12  C   UNL     1       1.841   4.653  18.717  0.00  0.00    +0.000 C 
ATOM     13  C   UNL     1       1.416   3.423  17.929  0.00  0.00    +0.000 C 
ATOM     14  C   UNL     1       2.329   2.216  18.136  0.00  0.00    +0.000 C 
ATOM     15  C   UNL     1       3.821   2.532  18.232  0.00  0.00    +0.000 C 
ATOM     16  C   UNL     1       4.307   3.488  17.149  0.00  0.00    +0.000 C 
ENDBRANCH   4   7
BRANCH   1  19
ATOM     17  O   UNL     1       0.336  10.148  23.241  0.00  0.00    +0.000 OA
ATOM     18  C   UNL     1      -0.211  10.789  22.355  0.00  0.00    +0.000 C 
ATOM     19  N   UNL     1      -0.075  10.603  20.995  0.00  0.00    +0.000 N 
ATOM     20  H   UNL     1      -0.535  11.268  20.388  0.00  0.00    +0.000 HD
BRANCH  18  21
ATOM     21  C   UNL     1      -1.105  11.914  22.756  0.00  0.00    +0.000 A 
ATOM     22  C   UNL     1      -0.724  13.257  22.631  0.00  0.00    +0.000 A 
ATOM     23  C   UNL     1      -1.636  14.271  22.943  0.00  0.00    +0.000 A 
ATOM     24  C   UNL     1      -2.925  13.947  23.373  0.00  0.00    +0.000 A 
ATOM     25  C   UNL     1      -3.288  12.613  23.536  0.00  0.00    +0.000 A 
ATOM     26  C   UNL     1      -2.388  11.597  23.219  0.00  0.00    +0.000 A 
ATOM     27  O   UNL     1      -4.507  12.221  24.017  0.00  0.00    +0.000 OA
ATOM     28  C   UNL     1      -5.498  13.223  23.799  0.00  0.00    +0.000 C 
ATOM     29  C   UNL     1      -5.020  14.622  24.165  0.00  0.00    +0.000 C 
ATOM     30  O   UNL     1      -3.777  14.996  23.570  0.00  0.00    +0.000 OA
ENDBRANCH  18  21
ENDBRANCH   1  19
TORSDOF 3
ENDMDL
MODEL 2
REMARK VINA RESULT:      -9.4      7.254      9.808
REMARK  Name = 
REMARK  3 active torsions:
REMARK  status: ('A' for Active; 'I' for Inactive)
REMARK    1  A    between atoms: C_2  and  C_20
REMARK    2  A    between atoms: N_3  and  C_4
REMARK    3  A    between atoms: C_7  and  C_8
REMARK                            x       y       z     vdW  Elec       q    Type
REMARK                         _______ _______ _______ _____ _____    ______ ____
ROOT
ATOM      1  C   UNL     1       7.785   8.351  17.836  0.00  0.00    +0.000 A 
ATOM      2  C   UNL     1       8.171   7.199  18.515  0.00  0.00    +0.000 A 
ATOM      3  C   UNL     1       7.344   6.066  18.522  0.00  0.00    +0.000 A 
ATOM      4  C   UNL     1       6.112   6.064  17.856  0.00  0.00    +0.000 A 
ATOM      5  C   UNL     1       5.710   7.243  17.218  0.00  0.00    +0.000 A 
ATOM      6  C   UNL     1       6.547   8.363  17.184  0.00  0.00    +0.000 A 
ENDROOT
BRANCH   4   7
ATOM      7  C   UNL     1       5.280   4.858  17.876  0.00  0.00    +0.000 A 
ATOM      8  N   UNL     1       5.360   3.871  17.001  0.00  0.00    +0.000 NA
ATOM      9  N   UNL     1       4.476   2.890  17.360  0.00  0.00    +0.000 NA
ATOM     10  C   UNL     1       3.837   3.285  18.440  0.00  0.00    +0.000 A 
ATOM     11  N   UNL     1       4.260   4.554  18.760  0.00  0.00    +0.000 N 
ATOM     12  C   UNL     1       3.722   5.420  19.790  0.00  0.00    +0.000 C 
ATOM     13  C   UNL     1       2.226   5.282  20.030  0.00  0.00    +0.000 C 
ATOM     14  C   UNL     1       1.851   4.079  20.895  0.00  0.00    +0.000 C 
ATOM     15  C   UNL     1       2.662   2.809  20.636  0.00  0.00    +0.000 C 
ATOM     16  C   UNL     1       2.808   2.477  19.156  0.00  0.00    +0.000 C 
ENDBRANCH   4   7
BRANCH   1  19
ATOM     17  O   UNL     1       8.976  10.005  19.994  0.00  0.00    +0.000 OA
ATOM     18  C   UNL     1       9.074  10.260  18.802  0.00  0.00    +0.000 C 
ATOM     19  N   UNL     1       8.559   9.524  17.754  0.00  0.00    +0.000 N 
ATOM     20  H   UNL     1       8.793   9.825  16.818  0.00  0.00    +0.000 HD
BRANCH  18  21
ATOM     21  C   UNL     1       9.848  11.473  18.407  0.00  0.00    +0.000 A 
ATOM     22  C   UNL     1      11.135  11.396  17.858  0.00  0.00    +0.000 A 
ATOM     23  C   UNL     1      11.778  12.561  17.428  0.00  0.00    +0.000 A 
ATOM     24  C   UNL     1      11.139  13.797  17.540  0.00  0.00    +0.000 A 
ATOM     25  C   UNL     1       9.877  13.877  18.123  0.00  0.00    +0.000 A 
ATOM     26  C   UNL     1       9.226  12.719  18.547  0.00  0.00    +0.000 A 
ATOM     27  O   UNL     1       9.218  15.057  18.328  0.00  0.00    +0.000 OA
ATOM     28  C   UNL     1       9.666  16.065  17.424  0.00  0.00    +0.000 C 
ATOM     29  C   UNL     1      11.182  16.125  17.302  0.00  0.00    +0.000 C 
ATOM     30  O   UNL     1      11.801  14.870  17.014  0.00  0.00    +0.000 OA
ENDBRANCH  18  21
ENDBRANCH   1  19
TORSDOF 3
ENDMDL
MODEL 3
REMARK VINA RESULT:      -9.3      1.074      1.943
REMARK  Name = 
REMARK  3 active torsions:
REMARK  status: ('A' for Active; 'I' for Inactive)
REMARK    1  A    between atoms: C_2  and  C_20
REMARK    2  A    between atoms: N_3  and  C_4
REMARK    3  A    between atoms: C_7  and  C_8
REMARK                            x       y       z     vdW  Elec       q    Type
REMARK                         _______ _______ _______ _____ _____    ______ ____
ROOT
ATOM      1  C   UNL     1       0.629   9.678  20.252  0.00  0.00    +0.000 A 
ATOM      2  C   UNL     1       0.946   9.865  18.909  0.00  0.00    +0.000 A 
ATOM      3  C   UNL     1       1.743   8.932  18.229  0.00  0.00    +0.000 A 
ATOM      4  C   UNL     1       2.244   7.798  18.879  0.00  0.00    +0.000 A 
ATOM      5  C   UNL     1       1.963   7.645  20.242  0.00  0.00    +0.000 A 
ATOM      6  C   UNL     1       1.143   8.557  20.913  0.00  0.00    +0.000 A 
ENDROOT
BRANCH   4   7
ATOM      7  C   UNL     1       3.064   6.839  18.133  0.00  0.00    +0.000 A 
ATOM      8  N   UNL     1       4.071   7.162  17.342  0.00  0.00    +0.000 NA
ATOM      9  N   UNL     1       4.640   6.015  16.860  0.00  0.00    +0.000 NA
ATOM     10  C   UNL     1       3.968   4.989  17.335  0.00  0.00    +0.000 A 
ATOM     11  N   UNL     1       2.918   5.464  18.087  0.00  0.00    +0.000 N 
ATOM     12  C   UNL     1       1.847   4.688  18.681  0.00  0.00    +0.000 C 
ATOM     13  C   UNL     1       1.420   3.465  17.882  0.00  0.00    +0.000 C 
ATOM     14  C   UNL     1       2.343   2.262  18.060  0.00  0.00    +0.000 C 
ATOM     15  C   UNL     1       3.835   2.587  18.139  0.00  0.00    +0.000 C 
ATOM     16  C   UNL     1       4.299   3.560  17.062  0.00  0.00    +0.000 C 
ENDBRANCH   4   7
BRANCH   1  19
ATOM     17  O   UNL     1       1.237  12.356  21.382  0.00  0.00    +0.000 OA
ATOM     18  C   UNL     1       0.168  11.781  21.520  0.00  0.00    +0.000 C 
ATOM     19  N   UNL     1      -0.181  10.548  21.007  0.00  0.00    +0.000 N 
ATOM     20  H   UNL     1      -1.134  10.242  21.145  0.00  0.00    +0.000 HD
BRANCH  18  21
ATOM     21  C   UNL     1      -0.903  12.471  22.297  0.00  0.00    +0.000 A 
ATOM     22  C   UNL     1      -2.069  11.814  22.715  0.00  0.00    +0.000 A 
ATOM     23  C   UNL     1      -2.998  12.488  23.513  0.00  0.00    +0.000 A 
ATOM     24  C   UNL     1      -2.765  13.811  23.897  0.00  0.00    +0.000 A 
ATOM     25  C   UNL     1      -1.627  14.475  23.446  0.00  0.00    +0.000 A 
ATOM     26  C   UNL     1      -0.692  13.807  22.657  0.00  0.00    +0.000 A 
ATOM     27  O   UNL     1      -1.366  15.788  23.723  0.00  0.00    +0.000 OA
ATOM     28  C   UNL     1      -2.030  16.210  24.912  0.00  0.00    +0.000 C 
ATOM     29  C   UNL     1      -3.483  15.760  24.973  0.00  0.00    +0.000 C 
ATOM     30  O   UNL     1      -3.679  14.363  24.748  0.00  0.00    +0.000 OA
ENDBRANCH  18  21
ENDBRANCH   1  19
TORSDOF 3
ENDMDL
MODEL 4
REMARK VINA RESULT:      -9.3      0.844      1.226
REMARK  Name = 
REMARK  3 active torsions:
REMARK  status: ('A' for Active; 'I' for Inactive)
REMARK    1  A    between atoms: C_2  and  C_20
REMARK    2  A    between atoms: N_3  and  C_4
REMARK    3  A    between atoms: C_7  and  C_8
REMARK                            x       y       z     vdW  Elec       q    Type
REMARK                         _______ _______ _______ _____ _____    ______ ____
ROOT
ATOM      1  C   UNL     1       0.723   9.789  20.050  0.00  0.00    +0.000 A 
ATOM      2  C   UNL     1       1.104   9.920  18.718  0.00  0.00    +0.000 A 
ATOM      3  C   UNL     1       1.873   8.925  18.096  0.00  0.00    +0.000 A 
ATOM      4  C   UNL     1       2.280   7.783  18.794  0.00  0.00    +0.000 A 
ATOM      5  C   UNL     1       1.935   7.684  20.147  0.00  0.00    +0.000 A 
ATOM      6  C   UNL     1       1.143   8.659  20.760  0.00  0.00    +0.000 A 
ENDROOT
BRANCH   4   7
ATOM      7  C   UNL     1       3.073   6.759  18.108  0.00  0.00    +0.000 A 
ATOM      8  N   UNL     1       4.081   7.006  17.290  0.00  0.00    +0.000 NA
ATOM      9  N   UNL     1       4.621   5.818  16.882  0.00  0.00    +0.000 NA
ATOM     10  C   UNL     1       3.930   4.841  17.429  0.00  0.00    +0.000 A 
ATOM     11  N   UNL     1       2.897   5.387  18.155  0.00  0.00    +0.000 N 
ATOM     12  C   UNL     1       1.815   4.677  18.806  0.00  0.00    +0.000 C 
ATOM     13  C   UNL     1       1.355   3.413  18.093  0.00  0.00    +0.000 C 
ATOM     14  C   UNL     1       2.253   2.204  18.344  0.00  0.00    +0.000 C 
ATOM     15  C   UNL     1       3.752   2.501  18.391  0.00  0.00    +0.000 C 
ATOM     16  C   UNL     1       4.228   3.390  17.249  0.00  0.00    +0.000 C 
ENDBRANCH   4   7
BRANCH   1  19
ATOM     17  O   UNL     1       1.493  12.342  21.355  0.00  0.00    +0.000 OA
ATOM     18  C   UNL     1       0.357  11.892  21.349  0.00  0.00    +0.000 C 
ATOM     19  N   UNL     1      -0.066  10.724  20.748  0.00  0.00    +0.000 N 
ATOM     20  H   UNL     1      -1.057  10.526  20.766  0.00  0.00    +0.000 HD
BRANCH  18  21
ATOM     21  C   UNL     1      -0.711  12.677  22.032  0.00  0.00    +0.000 A 
ATOM     22  C   UNL     1      -0.485  13.959  22.551  0.00  0.00    +0.000 A 
ATOM     23  C   UNL     1      -1.545  14.683  23.105  0.00  0.00    +0.000 A 
ATOM     24  C   UNL     1      -2.828  14.132  23.138  0.00  0.00    +0.000 A 
ATOM     25  C   UNL     1      -3.044  12.842  22.661  0.00  0.00    +0.000 A 
ATOM     26  C   UNL     1      -1.993  12.118  22.099  0.00  0.00    +0.000 A 
ATOM     27  O   UNL     1      -4.255  12.212  22.722  0.00  0.00    +0.000 OA
ATOM     28  C   UNL     1      -5.326  13.151  22.786  0.00  0.00    +0.000 C 
ATOM     29  C   UNL     1      -5.074  14.274  23.782  0.00  0.00    +0.000 C 
ATOM     30  O   UNL     1      -3.821  14.940  23.615  0.00  0.00    +0.000 OA
ENDBRANCH  18  21
ENDBRANCH   1  19
TORSDOF 3
ENDMDL
MODEL 5
REMARK VINA RESULT:      -9.1      1.140      1.586
REMARK  Name = 
REMARK  3 active torsions:
REMARK  status: ('A' for Active; 'I' for Inactive)
REMARK    1  A    between atoms: C_2  and  C_20
REMARK    2  A    between atoms: N_3  and  C_4
REMARK    3  A    between atoms: C_7  and  C_8
REMARK                            x       y       z     vdW  Elec       q    Type
REMARK                         _______ _______ _______ _____ _____    ______ ____
ROOT
ATOM      1  C   UNL     1       0.506   9.671  20.165  0.00  0.00    +0.000 A 
ATOM      2  C   UNL     1       1.088   8.592  20.825  0.00  0.00    +0.000 A 
ATOM      3  C   UNL     1       1.921   7.700  20.135  0.00  0.00    +0.000 A 
ATOM      4  C   UNL     1       2.186   7.864  18.771  0.00  0.00    +0.000 A 
ATOM      5  C   UNL     1       1.557   8.922  18.104  0.00  0.00    +0.000 A 
ATOM      6  C   UNL     1       0.750   9.830  18.797  0.00  0.00    +0.000 A 
ENDROOT
BRANCH   4   7
ATOM      7  C   UNL     1       3.071   6.919  18.085  0.00  0.00    +0.000 A 
ATOM      8  N   UNL     1       4.121   7.259  17.359  0.00  0.00    +0.000 NA
ATOM      9  N   UNL     1       4.743   6.121  16.921  0.00  0.00    +0.000 NA
ATOM     10  C   UNL     1       4.061   5.084  17.357  0.00  0.00    +0.000 A 
ATOM     11  N   UNL     1       2.955   5.541  18.037  0.00  0.00    +0.000 N 
ATOM     12  C   UNL     1       1.864   4.747  18.563  0.00  0.00    +0.000 C 
ATOM     13  C   UNL     1       1.513   3.512  17.745  0.00  0.00    +0.000 C 
ATOM     14  C   UNL     1       2.447   2.328  17.989  0.00  0.00    +0.000 C 
ATOM     15  C   UNL     1       3.923   2.683  18.163  0.00  0.00    +0.000 C 
ATOM     16  C   UNL     1       4.437   3.661  17.113  0.00  0.00    +0.000 C 
ENDBRANCH   4   7
BRANCH   1  19
ATOM     17  O   UNL     1       1.169  12.352  21.255  0.00  0.00    +0.000 OA
ATOM     18  C   UNL     1       0.051  11.858  21.282  0.00  0.00    +0.000 C 
ATOM     19  N   UNL     1      -0.323  10.628  20.780  0.00  0.00    +0.000 N 
ATOM     20  H   UNL     1      -1.306  10.394  20.811  0.00  0.00    +0.000 HD
BRANCH  18  21
ATOM     21  C   UNL     1      -1.052  12.655  21.894  0.00  0.00    +0.000 A 
ATOM     22  C   UNL     1      -2.380  12.558  21.458  0.00  0.00    +0.000 A 
ATOM     23  C   UNL     1      -3.385  13.266  22.125  0.00  0.00    +0.000 A 
ATOM     24  C   UNL     1      -3.068  14.065  23.226  0.00  0.00    +0.000 A 
ATOM     25  C   UNL     1      -1.742  14.193  23.632  0.00  0.00    +0.000 A 
ATOM     26  C   UNL     1      -0.736  13.484  22.978  0.00  0.00    +0.000 A 
ATOM     27  O   UNL     1      -1.347  15.008  24.656  0.00  0.00    +0.000 OA
ATOM     28  C   UNL     1      -2.414  15.245  25.572  0.00  0.00    +0.000 C 
ATOM     29  C   UNL     1      -3.728  15.582  24.880  0.00  0.00    +0.000 C 
ATOM     30  O   UNL     1      -4.120  14.649  23.871  0.00  0.00    +0.000 OA
ENDBRANCH  18  21
ENDBRANCH   1  19
TORSDOF 3
ENDMDL
MODEL 6
REMARK VINA RESULT:      -9.1      1.726      2.696
REMARK  Name = 
REMARK  3 active torsions:
REMARK  status: ('A' for Active; 'I' for Inactive)
REMARK    1  A    between atoms: C_2  and  C_20
REMARK    2  A    between atoms: N_3  and  C_4
REMARK    3  A    between atoms: C_7  and  C_8
REMARK                            x       y       z     vdW  Elec       q    Type
REMARK                         _______ _______ _______ _____ _____    ______ ____
ROOT
ATOM      1  C   UNL     1       1.191   8.968  20.021  0.00  0.00    +0.000 A 
ATOM      2  C   UNL     1       1.492   9.036  18.663  0.00  0.00    +0.000 A 
ATOM      3  C   UNL     1       2.093   7.949  18.011  0.00  0.00    +0.000 A 
ATOM      4  C   UNL     1       2.410   6.775  18.704  0.00  0.00    +0.000 A 
ATOM      5  C   UNL     1       2.149   6.733  20.078  0.00  0.00    +0.000 A 
ATOM      6  C   UNL     1       1.522   7.804  20.724  0.00  0.00    +0.000 A 
ENDROOT
BRANCH   4   7
ATOM      7  C   UNL     1       3.027   5.655  17.987  0.00  0.00    +0.000 A 
ATOM      8  N   UNL     1       2.465   4.473  17.806  0.00  0.00    +0.000 NA
ATOM      9  N   UNL     1       3.299   3.698  17.048  0.00  0.00    +0.000 NA
ATOM     10  C   UNL     1       4.383   4.395  16.784  0.00  0.00    +0.000 A 
ATOM     11  N   UNL     1       4.287   5.612  17.418  0.00  0.00    +0.000 N 
ATOM     12  C   UNL     1       5.312   6.633  17.510  0.00  0.00    +0.000 C 
ATOM     13  C   UNL     1       6.738   6.107  17.580  0.00  0.00    +0.000 C 
ATOM     14  C   UNL     1       7.311   5.703  16.224  0.00  0.00    +0.000 C 
ATOM     15  C   UNL     1       6.331   5.007  15.279  0.00  0.00    +0.000 C 
ATOM     16  C   UNL     1       5.522   3.905  15.954  0.00  0.00    +0.000 C 
ENDBRANCH   4   7
BRANCH   1  19
ATOM     17  O   UNL     1       1.493  11.913  19.805  0.00  0.00    +0.000 OA
ATOM     18  C   UNL     1       0.764  11.356  20.613  0.00  0.00    +0.000 C 
ATOM     19  N   UNL     1       0.568   9.998  20.752  0.00  0.00    +0.000 N 
ATOM     20  H   UNL     1      -0.129   9.696  21.418  0.00  0.00    +0.000 HD
BRANCH  18  21
ATOM     21  C   UNL     1      -0.031  12.210  21.543  0.00  0.00    +0.000 A 
ATOM     22  C   UNL     1       0.259  13.566  21.750  0.00  0.00    +0.000 A 
ATOM     23  C   UNL     1      -0.572  14.338  22.569  0.00  0.00    +0.000 A 
ATOM     24  C   UNL     1      -1.690  13.761  23.175  0.00  0.00    +0.000 A 
ATOM     25  C   UNL     1      -1.953  12.405  23.001  0.00  0.00    +0.000 A 
ATOM     26  C   UNL     1      -1.135  11.632  22.180  0.00  0.00    +0.000 A 
ATOM     27  O   UNL     1      -2.989  11.757  23.616  0.00  0.00    +0.000 OA
ATOM     28  C   UNL     1      -4.035  12.662  23.962  0.00  0.00    +0.000 C 
ATOM     29  C   UNL     1      -3.525  13.939  24.616  0.00  0.00    +0.000 C 
ATOM     30  O   UNL     1      -2.495  14.606  23.884  0.00  0.00    +0.000 OA
ENDBRANCH  18  21
ENDBRANCH   1  19
TORSDOF 3
ENDMDL
MODEL 7
REMARK VINA RESULT:      -9.1      0.859      1.682
REMARK  Name = 
REMARK  3 active torsions:
REMARK  status: ('A' for Active; 'I' for Inactive)
REMARK    1  A    between atoms: C_2  and  C_20
REMARK    2  A    between atoms: N_3  and  C_4
REMARK    3  A    between atoms: C_7  and  C_8
REMARK                            x       y       z     vdW  Elec       q    Type
REMARK                         _______ _______ _______ _____ _____    ______ ____
ROOT
ATOM      1  C   UNL     1       0.602   9.684  20.367  0.00  0.00    +0.000 A 
ATOM      2  C   UNL     1       1.100   8.535  20.976  0.00  0.00    +0.000 A 
ATOM      3  C   UNL     1       1.890   7.631  20.251  0.00  0.00    +0.000 A 
ATOM      4  C   UNL     1       2.193   7.853  18.903  0.00  0.00    +0.000 A 
ATOM      5  C   UNL     1       1.646   8.984  18.286  0.00  0.00    +0.000 A 
ATOM      6  C   UNL     1       0.884   9.903  19.015  0.00  0.00    +0.000 A 
ENDROOT
BRANCH   4   7
ATOM      7  C   UNL     1       3.031   6.892  18.180  0.00  0.00    +0.000 A 
ATOM      8  N   UNL     1       4.044   7.213  17.397  0.00  0.00    +0.000 NA
ATOM      9  N   UNL     1       4.630   6.066  16.938  0.00  0.00    +0.000 NA
ATOM     10  C   UNL     1       3.961   5.040  17.419  0.00  0.00    +0.000 A 
ATOM     11  N   UNL     1       2.898   5.515  18.151  0.00  0.00    +0.000 N 
ATOM     12  C   UNL     1       1.828   4.737  18.742  0.00  0.00    +0.000 C 
ATOM     13  C   UNL     1       1.421   3.500  17.955  0.00  0.00    +0.000 C 
ATOM     14  C   UNL     1       2.354   2.308  18.161  0.00  0.00    +0.000 C 
ATOM     15  C   UNL     1       3.841   2.648  18.254  0.00  0.00    +0.000 C 
ATOM     16  C   UNL     1       4.309   3.611  17.169  0.00  0.00    +0.000 C 
ENDBRANCH   4   7
BRANCH   1  19
ATOM     17  O   UNL     1       0.172  10.154  23.267  0.00  0.00    +0.000 OA
ATOM     18  C   UNL     1      -0.350  10.815  22.381  0.00  0.00    +0.000 C 
ATOM     19  N   UNL     1      -0.178  10.657  21.021  0.00  0.00    +0.000 N 
ATOM     20  H   UNL     1      -0.620  11.336  20.416  0.00  0.00    +0.000 HD
BRANCH  18  21
ATOM     21  C   UNL     1      -1.252  11.934  22.781  0.00  0.00    +0.000 A 
ATOM     22  C   UNL     1      -2.506  11.713  23.367  0.00  0.00    +0.000 A 
ATOM     23  C   UNL     1      -3.273  12.800  23.799  0.00  0.00    +0.000 A 
ATOM     24  C   UNL     1      -2.789  14.102  23.652  0.00  0.00    +0.000 A 
ATOM     25  C   UNL     1      -1.562  14.322  23.032  0.00  0.00    +0.000 A 
ATOM     26  C   UNL     1      -0.788  13.243  22.607  0.00  0.00    +0.000 A 
ATOM     27  O   UNL     1      -1.055  15.569  22.792  0.00  0.00    +0.000 OA
ATOM     28  C   UNL     1      -1.596  16.531  23.695  0.00  0.00    +0.000 C 
ATOM     29  C   UNL     1      -3.105  16.412  23.858  0.00  0.00    +0.000 C 
ATOM     30  O   UNL     1      -3.561  15.097  24.181  0.00  0.00    +0.000 OA
ENDBRANCH  18  21
ENDBRANCH   1  19
TORSDOF 3
ENDMDL
MODEL 8
REMARK VINA RESULT:      -9.0      1.076      1.077
REMARK  Name = 
REMARK  3 active torsions:
REMARK  status: ('A' for Active; 'I' for Inactive)
REMARK    1  A    between atoms: C_2  and  C_20
REMARK    2  A    between atoms: N_3  and  C_4
REMARK    3  A    between atoms: C_7  and  C_8
REMARK                            x       y       z     vdW  Elec       q    Type
REMARK                         _______ _______ _______ _____ _____    ______ ____
ROOT
ATOM      1  C   UNL     1       0.507   9.670  20.197  0.00  0.00    +0.000 A 
ATOM      2  C   UNL     1       1.146   8.610  20.835  0.00  0.00    +0.000 A 
ATOM      3  C   UNL     1       1.993   7.753  20.116  0.00  0.00    +0.000 A 
ATOM      4  C   UNL     1       2.213   7.934  18.746  0.00  0.00    +0.000 A 
ATOM      5  C   UNL     1       1.527   8.972  18.103  0.00  0.00    +0.000 A 
ATOM      6  C   UNL     1       0.707   9.846  18.824  0.00  0.00    +0.000 A 
ENDROOT
BRANCH   4   7
ATOM      7  C   UNL     1       3.114   7.026  18.030  0.00  0.00    +0.000 A 
ATOM      8  N   UNL     1       4.169   7.405  17.332  0.00  0.00    +0.000 NA
ATOM      9  N   UNL     1       4.804   6.292  16.853  0.00  0.00    +0.000 NA
ATOM     10  C   UNL     1       4.126   5.232  17.235  0.00  0.00    +0.000 A 
ATOM     11  N   UNL     1       3.009   5.651  17.921  0.00  0.00    +0.000 N 
ATOM     12  C   UNL     1       1.918   4.826  18.400  0.00  0.00    +0.000 C 
ATOM     13  C   UNL     1       1.586   3.626  17.525  0.00  0.00    +0.000 C 
ATOM     14  C   UNL     1       2.525   2.440  17.728  0.00  0.00    +0.000 C 
ATOM     15  C   UNL     1       3.997   2.797  17.935  0.00  0.00    +0.000 C 
ATOM     16  C   UNL     1       4.516   3.824  16.934  0.00  0.00    +0.000 C 
ENDBRANCH   4   7
BRANCH   1  19
ATOM     17  O   UNL     1       1.129  12.309  21.406  0.00  0.00    +0.000 OA
ATOM     18  C   UNL     1       0.016  11.804  21.399  0.00  0.00    +0.000 C 
ATOM     19  N   UNL     1      -0.339  10.593  20.841  0.00  0.00    +0.000 N 
ATOM     20  H   UNL     1      -1.320  10.348  20.850  0.00  0.00    +0.000 HD
BRANCH  18  21
ATOM     21  C   UNL     1      -1.103  12.564  22.029  0.00  0.00    +0.000 A 
ATOM     22  C   UNL     1      -0.890  13.512  23.039  0.00  0.00    +0.000 A 
ATOM     23  C   UNL     1      -1.967  14.255  23.534  0.00  0.00    +0.000 A 
ATOM     24  C   UNL     1      -3.251  14.057  23.019  0.00  0.00    +0.000 A 
ATOM     25  C   UNL     1      -3.467  13.086  22.045  0.00  0.00    +0.000 A 
ATOM     26  C   UNL     1      -2.397  12.348  21.542  0.00  0.00    +0.000 A 
ATOM     27  O   UNL     1      -4.704  12.789  21.544  0.00  0.00    +0.000 OA
ATOM     28  C   UNL     1      -5.599  13.890  21.683  0.00  0.00    +0.000 C 
ATOM     29  C   UNL     1      -5.541  14.532  23.063  0.00  0.00    +0.000 C 
ATOM     30  O   UNL     1      -4.226  14.886  23.495  0.00  0.00    +0.000 OA
ENDBRANCH  18  21
ENDBRANCH   1  19
TORSDOF 3
ENDMDL
MODEL 9
REMARK VINA RESULT:      -8.9      0.668      1.120
REMARK  Name = 
REMARK  3 active torsions:
REMARK  status: ('A' for Active; 'I' for Inactive)
REMARK    1  A    between atoms: C_2  and  C_20
REMARK    2  A    between atoms: N_3  and  C_4
REMARK    3  A    between atoms: C_7  and  C_8
REMARK                            x       y       z     vdW  Elec       q    Type
REMARK                         _______ _______ _______ _____ _____    ______ ____
ROOT
ATOM      1  C   UNL     1       0.535   9.832  20.488  0.00  0.00    +0.000 A 
ATOM      2  C   UNL     1       0.957   9.903  19.163  0.00  0.00    +0.000 A 
ATOM      3  C   UNL     1       1.698   8.856  18.595  0.00  0.00    +0.000 A 
ATOM      4  C   UNL     1       2.038   7.722  19.341  0.00  0.00    +0.000 A 
ATOM      5  C   UNL     1       1.653   7.682  20.687  0.00  0.00    +0.000 A 
ATOM      6  C   UNL     1       0.887   8.710  21.246  0.00  0.00    +0.000 A 
ENDROOT
BRANCH   4   7
ATOM      7  C   UNL     1       2.804   6.643  18.711  0.00  0.00    +0.000 A 
ATOM      8  N   UNL     1       3.739   6.817  17.794  0.00  0.00    +0.000 NA
ATOM      9  N   UNL     1       4.279   5.601  17.477  0.00  0.00    +0.000 NA
ATOM     10  C   UNL     1       3.658   4.678  18.179  0.00  0.00    +0.000 A 
ATOM     11  N   UNL     1       2.668   5.282  18.920  0.00  0.00    +0.000 N 
ATOM     12  C   UNL     1       1.659   4.627  19.727  0.00  0.00    +0.000 C 
ATOM     13  C   UNL     1       1.180   3.285  19.194  0.00  0.00    +0.000 C 
ATOM     14  C   UNL     1       2.127   2.128  19.503  0.00  0.00    +0.000 C 
ATOM     15  C   UNL     1       3.617   2.455  19.401  0.00  0.00    +0.000 C 
ATOM     16  C   UNL     1       3.981   3.222  18.135  0.00  0.00    +0.000 C 
ENDBRANCH   4   7
BRANCH   1  19
ATOM     17  O   UNL     1      -0.012  10.240  23.378  0.00  0.00    +0.000 OA
ATOM     18  C   UNL     1      -0.461  10.948  22.489  0.00  0.00    +0.000 C 
ATOM     19  N   UNL     1      -0.231  10.821  21.134  0.00  0.00    +0.000 N 
ATOM     20  H   UNL     1      -0.613  11.536  20.530  0.00  0.00    +0.000 HD
BRANCH  18  21
ATOM     21  C   UNL     1      -1.331  12.096  22.880  0.00  0.00    +0.000 A 
ATOM     22  C   UNL     1      -0.840  13.402  23.007  0.00  0.00    +0.000 A 
ATOM     23  C   UNL     1      -1.718  14.451  23.293  0.00  0.00    +0.000 A 
ATOM     24  C   UNL     1      -3.084  14.200  23.449  0.00  0.00    +0.000 A 
ATOM     25  C   UNL     1      -3.565  12.896  23.364  0.00  0.00    +0.000 A 
ATOM     26  C   UNL     1      -2.696  11.846  23.070  0.00  0.00    +0.000 A 
ATOM     27  O   UNL     1      -4.874  12.565  23.572  0.00  0.00    +0.000 OA
ATOM     28  C   UNL     1      -5.736  13.674  23.326  0.00  0.00    +0.000 C 
ATOM     29  C   UNL     1      -5.235  14.967  23.956  0.00  0.00    +0.000 C 
ATOM     30  O   UNL     1      -3.881  15.292  23.639  0.00  0.00    +0.000 OA
ENDBRANCH  18  21
ENDBRANCH   1  19
TORSDOF 3
ENDMDL
