MODEL 1
REMARK VINA RESULT:      -8.4      0.000      0.000
REMARK  Name = 
REMARK  4 active torsions:
REMARK  status: ('A' for Active; 'I' for Inactive)
REMARK    1  A    between atoms: C_4  and  C_5
REMARK    2  A    between atoms: C_5  and  N_6
REMARK    3  A    between atoms: N_9  and  S_10
REMARK    4  A    between atoms: S_10  and  C_13
REMARK                            x       y       z     vdW  Elec       q    Type
REMARK                         _______ _______ _______ _____ _____    ______ ____
ROOT
ATOM      1  N   UNL     1       2.334   6.342  18.828  0.00  0.00    +0.000 NA
ATOM      2  C   UNL     1       1.961   5.140  18.025  0.00  0.00    +0.000 C 
ATOM      3  C   UNL     1       2.931   3.896  17.911  0.00  0.00    +0.000 C 
ATOM      4  N   UNL     1       4.381   4.220  18.159  0.00  0.00    +0.000 NA
ATOM      5  C   UNL     1       4.478   5.200  19.265  0.00  0.00    +0.000 C 
ATOM      6  C   UNL     1       3.800   6.492  18.791  0.00  0.00    +0.000 C 
ENDROOT
BRANCH   4   7
ATOM      7  S   UNL     1       5.335   4.686  16.809  0.00  0.00    +0.000 S 
ATOM      8  O   UNL     1       5.941   3.500  16.252  0.00  0.00    +0.000 OA
ATOM      9  O   UNL     1       4.549   5.586  15.982  0.00  0.00    +0.000 OA
BRANCH   7  10
ATOM     10  C   UNL     1       6.594   5.691  17.512  0.00  0.00    +0.000 A 
ATOM     11  C   UNL     1       7.349   5.200  18.583  0.00  0.00    +0.000 A 
ATOM     12  C   UNL     1       8.268   6.038  19.212  0.00  0.00    +0.000 A 
ATOM     13  C   UNL     1       8.416   7.354  18.770  0.00  0.00    +0.000 A 
ATOM     14  C   UNL     1       7.641   7.827  17.714  0.00  0.00    +0.000 A 
ATOM     15  F   UNL     1       7.772   9.099  17.319  0.00  0.00    +0.000 F 
ATOM     16  C   UNL     1       6.724   7.007  17.076  0.00  0.00    +0.000 A 
ENDBRANCH   7  10
ENDBRANCH   4   7
BRANCH   1  17
ATOM     17  C   UNL     1       1.839   6.440  20.226  0.00  0.00    +0.000 C 
BRANCH  17  21
ATOM     18  O   UNL     1       0.750   9.573  23.529  0.00  0.00    +0.000 OA
ATOM     19  C   UNL     1       0.919   9.388  22.330  0.00  0.00    +0.000 A 
ATOM     20  N   UNL     1       1.555   8.278  21.839  0.00  0.00    +0.000 N 
ATOM     21  C   UNL     1       1.559   7.947  20.510  0.00  0.00    +0.000 A 
ATOM     22  N   UNL     1       1.198   8.778  19.576  0.00  0.00    +0.000 NA
ATOM     23  C   UNL     1       0.704  10.049  19.978  0.00  0.00    +0.000 A 
ATOM     24  C   UNL     1       0.403  11.023  19.020  0.00  0.00    +0.000 A 
ATOM     25  C   UNL     1      -0.150  12.253  19.407  0.00  0.00    +0.000 A 
ATOM     26 CL   UNL     1      -0.396  13.493  18.237  0.00  0.00    +0.000 Cl
ATOM     27  C   UNL     1      -0.482  12.500  20.740  0.00  0.00    +0.000 A 
ATOM     28  C   UNL     1      -0.189  11.540  21.706  0.00  0.00    +0.000 A 
ATOM     29  C   UNL     1       0.441  10.347  21.321  0.00  0.00    +0.000 A 
ATOM     30  H   UNL     1       1.801   7.580  22.526  0.00  0.00    +0.000 HD
ENDBRANCH  17  21
ENDBRANCH   1  17
TORSDOF 4
ENDMDL
MODEL 2
REMARK VINA RESULT:      -8.3      4.650      9.593
REMARK  Name = 
REMARK  4 active torsions:
REMARK  status: ('A' for Active; 'I' for Inactive)
REMARK    1  A    between atoms: C_4  and  C_5
REMARK    2  A    between atoms: C_5  and  N_6
REMARK    3  A    between atoms: N_9  and  S_10
REMARK    4  A    between atoms: S_10  and  C_13
REMARK                            x       y       z     vdW  Elec       q    Type
REMARK                         _______ _______ _______ _____ _____    ______ ____
ROOT
ATOM      1  N   UNL     1       1.768   9.923  19.066  0.00  0.00    +0.000 NA
ATOM      2  C   UNL     1       1.030   9.213  20.152  0.00  0.00    +0.000 C 
ATOM      3  C   UNL     1      -0.483   9.546  20.470  0.00  0.00    +0.000 C 
ATOM      4  N   UNL     1      -0.916  10.922  20.035  0.00  0.00    +0.000 NA
ATOM      5  C   UNL     1      -0.294  11.238  18.729  0.00  0.00    +0.000 C 
ATOM      6  C   UNL     1       1.224  11.288  18.946  0.00  0.00    +0.000 C 
ENDROOT
BRANCH   4   7
ATOM      7  S   UNL     1      -0.728  12.207  21.159  0.00  0.00    +0.000 S 
ATOM      8  O   UNL     1       0.148  11.760  22.216  0.00  0.00    +0.000 OA
ATOM      9  O   UNL     1      -0.450  13.426  20.418  0.00  0.00    +0.000 OA
BRANCH   7  10
ATOM     10  C   UNL     1      -2.344  12.428  21.816  0.00  0.00    +0.000 A 
ATOM     11  C   UNL     1      -3.362  12.916  20.989  0.00  0.00    +0.000 A 
ATOM     12  C   UNL     1      -4.611  13.198  21.538  0.00  0.00    +0.000 A 
ATOM     13  C   UNL     1      -4.825  12.998  22.904  0.00  0.00    +0.000 A 
ATOM     14  C   UNL     1      -3.792  12.530  23.711  0.00  0.00    +0.000 A 
ATOM     15  F   UNL     1      -4.002  12.370  25.024  0.00  0.00    +0.000 F 
ATOM     16  C   UNL     1      -2.544  12.243  23.181  0.00  0.00    +0.000 A 
ENDBRANCH   7  10
ENDBRANCH   4   7
BRANCH   1  17
ATOM     17  C   UNL     1       1.849   9.280  17.728  0.00  0.00    +0.000 C 
BRANCH  17  21
ATOM     18  O   UNL     1       5.621   6.692  16.739  0.00  0.00    +0.000 OA
ATOM     19  C   UNL     1       4.506   6.698  17.245  0.00  0.00    +0.000 A 
ATOM     20  N   UNL     1       3.851   7.857  17.569  0.00  0.00    +0.000 N 
ATOM     21  C   UNL     1       2.529   7.892  17.927  0.00  0.00    +0.000 A 
ATOM     22  N   UNL     1       1.859   6.824  18.248  0.00  0.00    +0.000 NA
ATOM     23  C   UNL     1       2.519   5.571  18.136  0.00  0.00    +0.000 A 
ATOM     24  C   UNL     1       1.887   4.399  18.567  0.00  0.00    +0.000 A 
ATOM     25  C   UNL     1       2.506   3.152  18.395  0.00  0.00    +0.000 A 
ATOM     26 CL   UNL     1       1.779   1.732  19.045  0.00  0.00    +0.000 Cl
ATOM     27  C   UNL     1       3.725   3.046  17.722  0.00  0.00    +0.000 A 
ATOM     28  C   UNL     1       4.366   4.202  17.286  0.00  0.00    +0.000 A 
ATOM     29  C   UNL     1       3.779   5.452  17.537  0.00  0.00    +0.000 A 
ATOM     30  H   UNL     1       4.312   8.709  17.285  0.00  0.00    +0.000 HD
ENDBRANCH  17  21
ENDBRANCH   1  17
TORSDOF 4
ENDMDL
MODEL 3
REMARK VINA RESULT:      -8.2      3.333      4.203
REMARK  Name = 
REMARK  4 active torsions:
REMARK  status: ('A' for Active; 'I' for Inactive)
REMARK    1  A    between atoms: C_4  and  C_5
REMARK    2  A    between atoms: C_5  and  N_6
REMARK    3  A    between atoms: N_9  and  S_10
REMARK    4  A    between atoms: S_10  and  C_13
REMARK                            x       y       z     vdW  Elec       q    Type
REMARK                         _______ _______ _______ _____ _____    ______ ____
ROOT
ATOM      1  N   UNL     1       4.410   5.830  19.152  0.00  0.00    +0.000 NA
ATOM      2  C   UNL     1       4.495   6.965  18.185  0.00  0.00    +0.000 C 
ATOM      3  C   UNL     1       4.579   6.711  16.627  0.00  0.00    +0.000 C 
ATOM      4  N   UNL     1       5.118   5.355  16.252  0.00  0.00    +0.000 NA
ATOM      5  C   UNL     1       4.584   4.342  17.190  0.00  0.00    +0.000 C 
ATOM      6  C   UNL     1       5.131   4.677  18.584  0.00  0.00    +0.000 C 
ENDROOT
BRANCH   4   7
ATOM      7  S   UNL     1       6.816   5.202  16.047  0.00  0.00    +0.000 S 
ATOM      8  O   UNL     1       7.416   6.499  16.251  0.00  0.00    +0.000 OA
ATOM      9  O   UNL     1       7.265   4.041  16.797  0.00  0.00    +0.000 OA
BRANCH   7  10
ATOM     10  C   UNL     1       6.996   4.753  14.357  0.00  0.00    +0.000 A 
ATOM     11  C   UNL     1       7.839   5.505  13.531  0.00  0.00    +0.000 A 
ATOM     12  C   UNL     1       7.894   5.218  12.168  0.00  0.00    +0.000 A 
ATOM     13  C   UNL     1       7.102   4.192  11.648  0.00  0.00    +0.000 A 
ATOM     14  C   UNL     1       6.256   3.469  12.485  0.00  0.00    +0.000 A 
ATOM     15  F   UNL     1       5.482   2.508  11.968  0.00  0.00    +0.000 F 
ATOM     16  C   UNL     1       6.191   3.740  13.843  0.00  0.00    +0.000 A 
ENDBRANCH   7  10
ENDBRANCH   4   7
BRANCH   1  17
ATOM     17  C   UNL     1       3.068   5.413  19.636  0.00  0.00    +0.000 C 
BRANCH  17  21
ATOM     18  O   UNL     1       1.930   9.348  17.371  0.00  0.00    +0.000 OA
ATOM     19  C   UNL     1       1.786   8.698  18.399  0.00  0.00    +0.000 A 
ATOM     20  N   UNL     1       2.122   7.372  18.484  0.00  0.00    +0.000 N 
ATOM     21  C   UNL     1       2.175   6.691  19.671  0.00  0.00    +0.000 A 
ATOM     22  N   UNL     1       1.662   7.155  20.773  0.00  0.00    +0.000 NA
ATOM     23  C   UNL     1       1.102   8.460  20.741  0.00  0.00    +0.000 A 
ATOM     24  C   UNL     1       0.440   8.971  21.864  0.00  0.00    +0.000 A 
ATOM     25  C   UNL     1      -0.053  10.284  21.862  0.00  0.00    +0.000 A 
ATOM     26 CL   UNL     1      -0.978  10.859  23.197  0.00  0.00    +0.000 Cl
ATOM     27  C   UNL     1       0.172  11.131  20.775  0.00  0.00    +0.000 A 
ATOM     28  C   UNL     1       0.828  10.638  19.650  0.00  0.00    +0.000 A 
ATOM     29  C   UNL     1       1.245   9.298  19.629  0.00  0.00    +0.000 A 
ATOM     30  H   UNL     1       2.576   6.987  17.668  0.00  0.00    +0.000 HD
ENDBRANCH  17  21
ENDBRANCH   1  17
TORSDOF 4
ENDMDL
MODEL 4
REMARK VINA RESULT:      -8.2      2.548      3.147
REMARK  Name = 
REMARK  4 active torsions:
REMARK  status: ('A' for Active; 'I' for Inactive)
REMARK    1  A    between atoms: C_4  and  C_5
REMARK    2  A    between atoms: C_5  and  N_6
REMARK    3  A    between atoms: N_9  and  S_10
REMARK    4  A    between atoms: S_10  and  C_13
REMARK                            x       y       z     vdW  Elec       q    Type
REMARK                         _______ _______ _______ _____ _____    ______ ____
ROOT
ATOM      1  N   UNL     1       1.669   6.343  20.108  0.00  0.00    +0.000 NA
ATOM      2  C   UNL     1       1.317   4.963  20.556  0.00  0.00    +0.000 C 
ATOM      3  C   UNL     1       2.393   3.804  20.565  0.00  0.00    +0.000 C 
ATOM      4  N   UNL     1       3.542   4.022  19.614  0.00  0.00    +0.000 NA
ATOM      5  C   UNL     1       3.921   5.452  19.629  0.00  0.00    +0.000 C 
ATOM      6  C   UNL     1       2.726   6.248  19.085  0.00  0.00    +0.000 C 
ENDROOT
BRANCH   4   7
ATOM      7  S   UNL     1       3.374   3.422  18.013  0.00  0.00    +0.000 S 
ATOM      8  O   UNL     1       3.474   1.983  18.055  0.00  0.00    +0.000 OA
ATOM      9  O   UNL     1       2.233   4.078  17.396  0.00  0.00    +0.000 OA
BRANCH   7  10
ATOM     10  C   UNL     1       4.780   4.065  17.176  0.00  0.00    +0.000 A 
ATOM     11  C   UNL     1       4.659   4.475  15.843  0.00  0.00    +0.000 A 
ATOM     12  C   UNL     1       5.798   4.877  15.147  0.00  0.00    +0.000 A 
ATOM     13  C   UNL     1       7.039   4.857  15.785  0.00  0.00    +0.000 A 
ATOM     14  C   UNL     1       7.139   4.427  17.106  0.00  0.00    +0.000 A 
ATOM     15  F   UNL     1       8.339   4.386  17.697  0.00  0.00    +0.000 F 
ATOM     16  C   UNL     1       6.017   4.026  17.814  0.00  0.00    +0.000 A 
ENDBRANCH   7  10
ENDBRANCH   4   7
BRANCH   1  17
ATOM     17  C   UNL     1       2.037   7.349  21.139  0.00  0.00    +0.000 C 
BRANCH  17  21
ATOM     18  O   UNL     1       0.856  11.104  18.606  0.00  0.00    +0.000 OA
ATOM     19  C   UNL     1       0.632  10.463  19.625  0.00  0.00    +0.000 A 
ATOM     20  N   UNL     1       1.079   9.180  19.801  0.00  0.00    +0.000 N 
ATOM     21  C   UNL     1       1.030   8.531  21.007  0.00  0.00    +0.000 A 
ATOM     22  N   UNL     1       0.324   8.964  22.011  0.00  0.00    +0.000 NA
ATOM     23  C   UNL     1      -0.349  10.206  21.858  0.00  0.00    +0.000 A 
ATOM     24  C   UNL     1      -1.208  10.671  22.861  0.00  0.00    +0.000 A 
ATOM     25  C   UNL     1      -1.820  11.927  22.746  0.00  0.00    +0.000 A 
ATOM     26 CL   UNL     1      -2.974  12.433  23.921  0.00  0.00    +0.000 Cl
ATOM     27  C   UNL     1      -1.528  12.770  21.672  0.00  0.00    +0.000 A 
ATOM     28  C   UNL     1      -0.675  12.323  20.666  0.00  0.00    +0.000 A 
ATOM     29  C   UNL     1      -0.133  11.031  20.748  0.00  0.00    +0.000 A 
ATOM     30  H   UNL     1       1.678   8.825  19.070  0.00  0.00    +0.000 HD
ENDBRANCH  17  21
ENDBRANCH   1  17
TORSDOF 4
ENDMDL
MODEL 5
REMARK VINA RESULT:      -8.2      2.230      2.657
REMARK  Name = 
REMARK  4 active torsions:
REMARK  status: ('A' for Active; 'I' for Inactive)
REMARK    1  A    between atoms: C_4  and  C_5
REMARK    2  A    between atoms: C_5  and  N_6
REMARK    3  A    between atoms: N_9  and  S_10
REMARK    4  A    between atoms: S_10  and  C_13
REMARK                            x       y       z     vdW  Elec       q    Type
REMARK                         _______ _______ _______ _____ _____    ______ ____
ROOT
ATOM      1  N   UNL     1       1.644   6.478  20.115  0.00  0.00    +0.000 NA
ATOM      2  C   UNL     1       1.350   5.110  20.634  0.00  0.00    +0.000 C 
ATOM      3  C   UNL     1       2.465   3.989  20.672  0.00  0.00    +0.000 C 
ATOM      4  N   UNL     1       3.584   4.199  19.686  0.00  0.00    +0.000 NA
ATOM      5  C   UNL     1       3.915   5.641  19.625  0.00  0.00    +0.000 C 
ATOM      6  C   UNL     1       2.682   6.370  19.073  0.00  0.00    +0.000 C 
ENDROOT
BRANCH   4   7
ATOM      7  S   UNL     1       3.403   3.520  18.119  0.00  0.00    +0.000 S 
ATOM      8  O   UNL     1       3.494   2.084  18.234  0.00  0.00    +0.000 OA
ATOM      9  O   UNL     1       2.262   4.152  17.476  0.00  0.00    +0.000 OA
BRANCH   7  10
ATOM     10  C   UNL     1       4.807   4.110  17.241  0.00  0.00    +0.000 A 
ATOM     11  C   UNL     1       4.674   4.484  15.899  0.00  0.00    +0.000 A 
ATOM     12  C   UNL     1       5.808   4.842  15.174  0.00  0.00    +0.000 A 
ATOM     13  C   UNL     1       7.059   4.816  15.793  0.00  0.00    +0.000 A 
ATOM     14  C   UNL     1       7.171   4.422  17.125  0.00  0.00    +0.000 A 
ATOM     15  F   UNL     1       8.380   4.374  17.698  0.00  0.00    +0.000 F 
ATOM     16  C   UNL     1       6.053   4.064  17.861  0.00  0.00    +0.000 A 
ENDBRANCH   7  10
ENDBRANCH   4   7
BRANCH   1  17
ATOM     17  C   UNL     1       2.000   7.543  21.090  0.00  0.00    +0.000 C 
BRANCH  17  21
ATOM     18  O   UNL     1      -0.108  11.411  22.673  0.00  0.00    +0.000 OA
ATOM     19  C   UNL     1       0.112  10.711  21.692  0.00  0.00    +0.000 A 
ATOM     20  N   UNL     1       1.095   9.756  21.675  0.00  0.00    +0.000 N 
ATOM     21  C   UNL     1       1.211   8.823  20.679  0.00  0.00    +0.000 A 
ATOM     22  N   UNL     1       0.581   8.922  19.545  0.00  0.00    +0.000 NA
ATOM     23  C   UNL     1      -0.325  10.005  19.385  0.00  0.00    +0.000 A 
ATOM     24  C   UNL     1      -0.950  10.226  18.152  0.00  0.00    +0.000 A 
ATOM     25  C   UNL     1      -1.897  11.251  18.009  0.00  0.00    +0.000 A 
ATOM     26 CL   UNL     1      -2.563  11.597  16.458  0.00  0.00    +0.000 Cl
ATOM     27  C   UNL     1      -2.292  12.019  19.106  0.00  0.00    +0.000 A 
ATOM     28  C   UNL     1      -1.679  11.811  20.339  0.00  0.00    +0.000 A 
ATOM     29  C   UNL     1      -0.673  10.840  20.454  0.00  0.00    +0.000 A 
ATOM     30  H   UNL     1       1.570   9.608  22.553  0.00  0.00    +0.000 HD
ENDBRANCH  17  21
ENDBRANCH   1  17
TORSDOF 4
ENDMDL
MODEL 6
REMARK VINA RESULT:      -8.1      4.649      9.528
REMARK  Name = 
REMARK  4 active torsions:
REMARK  status: ('A' for Active; 'I' for Inactive)
REMARK    1  A    between atoms: C_4  and  C_5
REMARK    2  A    between atoms: C_5  and  N_6
REMARK    3  A    between atoms: N_9  and  S_10
REMARK    4  A    between atoms: S_10  and  C_13
REMARK                            x       y       z     vdW  Elec       q    Type
REMARK                         _______ _______ _______ _____ _____    ______ ____
ROOT
ATOM      1  N   UNL     1       1.745   9.919  18.978  0.00  0.00    +0.000 NA
ATOM      2  C   UNL     1       1.002   9.296  20.113  0.00  0.00    +0.000 C 
ATOM      3  C   UNL     1      -0.484   9.718  20.452  0.00  0.00    +0.000 C 
ATOM      4  N   UNL     1      -0.860  11.093  19.965  0.00  0.00    +0.000 NA
ATOM      5  C   UNL     1      -0.258  11.318  18.631  0.00  0.00    +0.000 C 
ATOM      6  C   UNL     1       1.266  11.302  18.809  0.00  0.00    +0.000 C 
ENDROOT
BRANCH   4   7
ATOM      7  S   UNL     1      -0.580  12.416  21.023  0.00  0.00    +0.000 S 
ATOM      8  O   UNL     1       0.394  12.010  22.008  0.00  0.00    +0.000 OA
ATOM      9  O   UNL     1      -0.382  13.611  20.220  0.00  0.00    +0.000 OA
BRANCH   7  10
ATOM     10  C   UNL     1      -2.129  12.651  21.820  0.00  0.00    +0.000 A 
ATOM     11  C   UNL     1      -2.250  12.375  23.186  0.00  0.00    +0.000 A 
ATOM     12  C   UNL     1      -3.503  12.452  23.791  0.00  0.00    +0.000 A 
ATOM     13  C   UNL     1      -4.618  12.796  23.025  0.00  0.00    +0.000 A 
ATOM     14  C   UNL     1      -4.478  13.049  21.662  0.00  0.00    +0.000 A 
ATOM     15  F   UNL     1      -5.560  13.349  20.933  0.00  0.00    +0.000 F 
ATOM     16  C   UNL     1      -3.239  12.977  21.045  0.00  0.00    +0.000 A 
ENDBRANCH   7  10
ENDBRANCH   4   7
BRANCH   1  17
ATOM     17  C   UNL     1       1.759   9.213  17.670  0.00  0.00    +0.000 C 
BRANCH  17  21
ATOM     18  O   UNL     1       5.607   6.700  16.783  0.00  0.00    +0.000 OA
ATOM     19  C   UNL     1       4.482   6.686  17.266  0.00  0.00    +0.000 A 
ATOM     20  N   UNL     1       3.795   7.833  17.565  0.00  0.00    +0.000 N 
ATOM     21  C   UNL     1       2.466   7.842  17.896  0.00  0.00    +0.000 A 
ATOM     22  N   UNL     1       1.812   6.762  18.213  0.00  0.00    +0.000 NA
ATOM     23  C   UNL     1       2.502   5.523  18.126  0.00  0.00    +0.000 A 
ATOM     24  C   UNL     1       1.887   4.342  18.556  0.00  0.00    +0.000 A 
ATOM     25  C   UNL     1       2.537   3.108  18.408  0.00  0.00    +0.000 A 
ATOM     26 CL   UNL     1       1.828   1.678  19.057  0.00  0.00    +0.000 Cl
ATOM     27  C   UNL     1       3.771   3.022  17.761  0.00  0.00    +0.000 A 
ATOM     28  C   UNL     1       4.396   4.188  17.327  0.00  0.00    +0.000 A 
ATOM     29  C   UNL     1       3.777   5.426  17.555  0.00  0.00    +0.000 A 
ATOM     30  H   UNL     1       4.243   8.693  17.283  0.00  0.00    +0.000 HD
ENDBRANCH  17  21
ENDBRANCH   1  17
TORSDOF 4
ENDMDL
MODEL 7
REMARK VINA RESULT:      -8.1      1.865      2.403
REMARK  Name = 
REMARK  4 active torsions:
REMARK  status: ('A' for Active; 'I' for Inactive)
REMARK    1  A    between atoms: C_4  and  C_5
REMARK    2  A    between atoms: C_5  and  N_6
REMARK    3  A    between atoms: N_9  and  S_10
REMARK    4  A    between atoms: S_10  and  C_13
REMARK                            x       y       z     vdW  Elec       q    Type
REMARK                         _______ _______ _______ _____ _____    ______ ____
ROOT
ATOM      1  N   UNL     1       2.159   6.238  20.427  0.00  0.00    +0.000 NA
ATOM      2  C   UNL     1       2.595   6.446  19.014  0.00  0.00    +0.000 C 
ATOM      3  C   UNL     1       2.404   5.317  17.923  0.00  0.00    +0.000 C 
ATOM      4  N   UNL     1       2.306   3.924  18.488  0.00  0.00    +0.000 NA
ATOM      5  C   UNL     1       1.509   3.960  19.735  0.00  0.00    +0.000 C 
ATOM      6  C   UNL     1       2.288   4.806  20.751  0.00  0.00    +0.000 C 
ENDROOT
BRANCH   4   7
ATOM      7  S   UNL     1       3.765   3.041  18.688  0.00  0.00    +0.000 S 
ATOM      8  O   UNL     1       4.100   3.032  20.092  0.00  0.00    +0.000 OA
ATOM      9  O   UNL     1       3.659   1.804  17.933  0.00  0.00    +0.000 OA
BRANCH   7  10
ATOM     10  C   UNL     1       4.958   4.003  17.827  0.00  0.00    +0.000 A 
ATOM     11  C   UNL     1       5.040   3.911  16.433  0.00  0.00    +0.000 A 
ATOM     12  C   UNL     1       6.058   4.586  15.762  0.00  0.00    +0.000 A 
ATOM     13  C   UNL     1       6.984   5.335  16.491  0.00  0.00    +0.000 A 
ATOM     14  C   UNL     1       6.895   5.398  17.879  0.00  0.00    +0.000 A 
ATOM     15  F   UNL     1       7.806   6.096  18.567  0.00  0.00    +0.000 F 
ATOM     16  C   UNL     1       5.888   4.734  18.562  0.00  0.00    +0.000 A 
ENDBRANCH   7  10
ENDBRANCH   4   7
BRANCH   1  17
ATOM     17  C   UNL     1       0.822   6.742  20.836  0.00  0.00    +0.000 C 
BRANCH  17  21
ATOM     18  O   UNL     1      -0.292  10.429  23.497  0.00  0.00    +0.000 OA
ATOM     19  C   UNL     1       0.203  10.061  22.439  0.00  0.00    +0.000 A 
ATOM     20  N   UNL     1       0.593   8.765  22.220  0.00  0.00    +0.000 N 
ATOM     21  C   UNL     1       0.940   8.290  20.983  0.00  0.00    +0.000 A 
ATOM     22  N   UNL     1       1.187   9.071  19.972  0.00  0.00    +0.000 NA
ATOM     23  C   UNL     1       1.002  10.468  20.156  0.00  0.00    +0.000 A 
ATOM     24  C   UNL     1       1.354  11.365  19.142  0.00  0.00    +0.000 A 
ATOM     25  C   UNL     1       1.109  12.738  19.292  0.00  0.00    +0.000 A 
ATOM     26 CL   UNL     1       1.663  13.847  18.095  0.00  0.00    +0.000 Cl
ATOM     27  C   UNL     1       0.443  13.228  20.416  0.00  0.00    +0.000 A 
ATOM     28  C   UNL     1       0.086  12.347  21.435  0.00  0.00    +0.000 A 
ATOM     29  C   UNL     1       0.410  10.988  21.313  0.00  0.00    +0.000 A 
ATOM     30  H   UNL     1       0.367   8.115  22.958  0.00  0.00    +0.000 HD
ENDBRANCH  17  21
ENDBRANCH   1  17
TORSDOF 4
ENDMDL
MODEL 8
REMARK VINA RESULT:      -8.0      2.568      3.098
REMARK  Name = 
REMARK  4 active torsions:
REMARK  status: ('A' for Active; 'I' for Inactive)
REMARK    1  A    between atoms: C_4  and  C_5
REMARK    2  A    between atoms: C_5  and  N_6
REMARK    3  A    between atoms: N_9  and  S_10
REMARK    4  A    between atoms: S_10  and  C_13
REMARK                            x       y       z     vdW  Elec       q    Type
REMARK                         _______ _______ _______ _____ _____    ______ ____
ROOT
ATOM      1  N   UNL     1       1.733   6.377  20.123  0.00  0.00    +0.000 NA
ATOM      2  C   UNL     1       1.447   4.997  20.615  0.00  0.00    +0.000 C 
ATOM      3  C   UNL     1       2.564   3.878  20.614  0.00  0.00    +0.000 C 
ATOM      4  N   UNL     1       3.671   4.113  19.619  0.00  0.00    +0.000 NA
ATOM      5  C   UNL     1       3.998   5.556  19.587  0.00  0.00    +0.000 C 
ATOM      6  C   UNL     1       2.757   6.294  19.067  0.00  0.00    +0.000 C 
ENDROOT
BRANCH   4   7
ATOM      7  S   UNL     1       3.471   3.469  18.040  0.00  0.00    +0.000 S 
ATOM      8  O   UNL     1       3.411   2.030  18.141  0.00  0.00    +0.000 OA
ATOM      9  O   UNL     1       2.423   4.219  17.369  0.00  0.00    +0.000 OA
BRANCH   7  10
ATOM     10  C   UNL     1       4.957   3.917  17.213  0.00  0.00    +0.000 A 
ATOM     11  C   UNL     1       6.097   4.224  17.965  0.00  0.00    +0.000 A 
ATOM     12  C   UNL     1       7.239   4.688  17.315  0.00  0.00    +0.000 A 
ATOM     13  C   UNL     1       7.226   4.848  15.928  0.00  0.00    +0.000 A 
ATOM     14  C   UNL     1       6.074   4.554  15.202  0.00  0.00    +0.000 A 
ATOM     15  F   UNL     1       6.065   4.739  13.876  0.00  0.00    +0.000 F 
ATOM     16  C   UNL     1       4.930   4.090  15.832  0.00  0.00    +0.000 A 
ENDBRANCH   7  10
ENDBRANCH   4   7
BRANCH   1  17
ATOM     17  C   UNL     1       2.098   7.421  21.117  0.00  0.00    +0.000 C 
BRANCH  17  21
ATOM     18  O   UNL     1       0.735  11.093  18.555  0.00  0.00    +0.000 OA
ATOM     19  C   UNL     1       0.555  10.461  19.587  0.00  0.00    +0.000 A 
ATOM     20  N   UNL     1       1.050   9.196  19.773  0.00  0.00    +0.000 N 
ATOM     21  C   UNL     1       1.048   8.565  20.989  0.00  0.00    +0.000 A 
ATOM     22  N   UNL     1       0.348   8.988  22.000  0.00  0.00    +0.000 NA
ATOM     23  C   UNL     1      -0.372  10.203  21.843  0.00  0.00    +0.000 A 
ATOM     24  C   UNL     1      -1.226  10.653  22.856  0.00  0.00    +0.000 A 
ATOM     25  C   UNL     1      -1.885  11.886  22.736  0.00  0.00    +0.000 A 
ATOM     26 CL   UNL     1      -3.032  12.369  23.927  0.00  0.00    +0.000 Cl
ATOM     27  C   UNL     1      -1.643  12.722  21.644  0.00  0.00    +0.000 A 
ATOM     28  C   UNL     1      -0.796  12.289  20.628  0.00  0.00    +0.000 A 
ATOM     29  C   UNL     1      -0.207  11.019  20.717  0.00  0.00    +0.000 A 
ATOM     30  H   UNL     1       1.646   8.852  19.034  0.00  0.00    +0.000 HD
ENDBRANCH  17  21
ENDBRANCH   1  17
TORSDOF 4
ENDMDL
MODEL 9
REMARK VINA RESULT:      -8.0      4.844      9.673
REMARK  Name = 
REMARK  4 active torsions:
REMARK  status: ('A' for Active; 'I' for Inactive)
REMARK    1  A    between atoms: C_4  and  C_5
REMARK    2  A    between atoms: C_5  and  N_6
REMARK    3  A    between atoms: N_9  and  S_10
REMARK    4  A    between atoms: S_10  and  C_13
REMARK                            x       y       z     vdW  Elec       q    Type
REMARK                         _______ _______ _______ _____ _____    ______ ____
ROOT
ATOM      1  N   UNL     1       0.927   9.902  19.641  0.00  0.00    +0.000 NA
ATOM      2  C   UNL     1      -0.561   9.894  19.767  0.00  0.00    +0.000 C 
ATOM      3  C   UNL     1      -1.379  11.240  19.916  0.00  0.00    +0.000 C 
ATOM      4  N   UNL     1      -0.578  12.389  20.471  0.00  0.00    +0.000 NA
ATOM      5  C   UNL     1       0.786  12.353  19.898  0.00  0.00    +0.000 C 
ATOM      6  C   UNL     1       1.453  11.060  20.386  0.00  0.00    +0.000 C 
ENDROOT
BRANCH   4   7
ATOM      7  S   UNL     1      -0.548  12.589  22.176  0.00  0.00    +0.000 S 
ATOM      8  O   UNL     1      -0.307  11.300  22.779  0.00  0.00    +0.000 OA
ATOM      9  O   UNL     1       0.291  13.733  22.489  0.00  0.00    +0.000 OA
BRANCH   7  10
ATOM     10  C   UNL     1      -2.185  13.101  22.567  0.00  0.00    +0.000 A 
ATOM     11  C   UNL     1      -2.656  14.327  22.084  0.00  0.00    +0.000 A 
ATOM     12  C   UNL     1      -3.910  14.783  22.486  0.00  0.00    +0.000 A 
ATOM     13  C   UNL     1      -4.672  14.015  23.370  0.00  0.00    +0.000 A 
ATOM     14  C   UNL     1      -4.175  12.807  23.852  0.00  0.00    +0.000 A 
ATOM     15  F   UNL     1      -4.903  12.095  24.721  0.00  0.00    +0.000 F 
ATOM     16  C   UNL     1      -2.931  12.338  23.461  0.00  0.00    +0.000 A 
ENDBRANCH   7  10
ENDBRANCH   4   7
BRANCH   1  17
ATOM     17  C   UNL     1       1.521   9.850  18.279  0.00  0.00    +0.000 C 
BRANCH  17  21
ATOM     18  O   UNL     1       2.484   5.811  20.440  0.00  0.00    +0.000 OA
ATOM     19  C   UNL     1       2.673   6.489  19.438  0.00  0.00    +0.000 A 
ATOM     20  N   UNL     1       1.886   7.564  19.119  0.00  0.00    +0.000 N 
ATOM     21  C   UNL     1       2.210   8.459  18.133  0.00  0.00    +0.000 A 
ATOM     22  N   UNL     1       3.135   8.226  17.248  0.00  0.00    +0.000 NA
ATOM     23  C   UNL     1       3.885   7.026  17.376  0.00  0.00    +0.000 A 
ATOM     24  C   UNL     1       4.818   6.669  16.395  0.00  0.00    +0.000 A 
ATOM     25  C   UNL     1       5.610   5.522  16.552  0.00  0.00    +0.000 A 
ATOM     26 CL   UNL     1       6.661   5.022  15.281  0.00  0.00    +0.000 Cl
ATOM     27  C   UNL     1       5.541   4.759  17.718  0.00  0.00    +0.000 A 
ATOM     28  C   UNL     1       4.617   5.101  18.703  0.00  0.00    +0.000 A 
ATOM     29  C   UNL     1       3.771   6.201  18.501  0.00  0.00    +0.000 A 
ATOM     30  H   UNL     1       1.191   7.813  19.808  0.00  0.00    +0.000 HD
ENDBRANCH  17  21
ENDBRANCH   1  17
TORSDOF 4
ENDMDL
