MODEL 1
REMARK VINA RESULT:      -9.6      0.000      0.000
REMARK  Name = 
REMARK  5 active torsions:
REMARK  status: ('A' for Active; 'I' for Inactive)
REMARK    1  A    between atoms: C_1  and  N_2
REMARK    2  A    between atoms: C_6  and  C_7
REMARK    3  A    between atoms: C_7  and  C_8
REMARK    4  A    between atoms: C_13  and  N_14
REMARK    5  A    between atoms: C_21  and  C_22
REMARK                            x       y       z     vdW  Elec       q    Type
REMARK                         _______ _______ _______ _____ _____    ______ ____
ROOT
ATOM      1  C   UNL     1       4.756   4.182  17.227  0.00  0.00    +0.000 A 
ATOM      2  N   UNL     1       4.415   3.286  18.118  0.00  0.00    +0.000 NA
ATOM      3  N   UNL     1       3.582   3.530  19.148  0.00  0.00    +0.000 N 
ATOM      4  C   UNL     1       2.447   4.288  18.980  0.00  0.00    +0.000 A 
ATOM      5  C   UNL     1       2.491   5.480  19.582  0.00  0.00    +0.000 A 
ATOM      6  C   UNL     1       2.722   6.645  18.752  0.00  0.00    +0.000 A 
ATOM      7  C   UNL     1       3.589   6.586  17.705  0.00  0.00    +0.000 A 
ATOM      8  O   UNL     1       4.395   5.495  17.129  0.00  0.00    +0.000 OA
ATOM      9  H   UNL     1       3.441   2.740  19.782  0.00  0.00    +0.000 HD
ENDROOT
BRANCH   6  10
ATOM     10  N   UNL     1       2.068   7.821  19.145  0.00  0.00    +0.000 N 
ATOM     11  C   UNL     1       1.434   8.008  20.460  0.00  0.00    +0.000 C 
ATOM     12  C   UNL     1       0.874   9.400  20.402  0.00  0.00    +0.000 A 
ATOM     13  C   UNL     1       1.154   9.945  19.151  0.00  0.00    +0.000 A 
ATOM     14  C   UNL     1       0.764  11.218  18.775  0.00  0.00    +0.000 A 
ATOM     15  C   UNL     1       0.060  11.980  19.703  0.00  0.00    +0.000 A 
ATOM     16  C   UNL     1      -0.229  11.456  20.974  0.00  0.00    +0.000 A 
ATOM     17  C   UNL     1       0.176  10.154  21.348  0.00  0.00    +0.000 A 
ATOM     18  C   UNL     1       1.900   8.965  18.359  0.00  0.00    +0.000 C 
ATOM     19  O   UNL     1       2.265   9.196  17.216  0.00  0.00    +0.000 OA
BRANCH  17  20
ATOM     20  C   UNL     1      -0.156   9.656  22.731  0.00  0.00    +0.000 C 
ATOM     21  F   UNL     1      -0.866  10.548  23.475  0.00  0.00    +0.000 F 
ATOM     22  F   UNL     1      -0.899   8.515  22.706  0.00  0.00    +0.000 F 
ATOM     23  F   UNL     1       0.956   9.362  23.458  0.00  0.00    +0.000 F 
ENDBRANCH  17  20
ENDBRANCH   6  10
BRANCH   1  24
ATOM     24  C   UNL     1       5.646   3.603  16.152  0.00  0.00    +0.000 C 
BRANCH  24  30
ATOM     25  C   UNL     1       5.595   3.375  12.768  0.00  0.00    +0.000 C 
ATOM     26  N   UNL     1       6.412   4.137  13.668  0.00  0.00    +0.000 N 
ATOM     27  C   UNL     1       7.404   4.973  13.223  0.00  0.00    +0.000 A 
ATOM     28  N   UNL     1       7.996   5.546  14.233  0.00  0.00    +0.000 NA
ATOM     29  N   UNL     1       7.381   5.079  15.360  0.00  0.00    +0.000 NA
ATOM     30  C   UNL     1       6.419   4.223  15.036  0.00  0.00    +0.000 A 
ENDBRANCH  24  30
ENDBRANCH   1  24
TORSDOF 4
ENDMDL
MODEL 2
REMARK VINA RESULT:      -8.5      4.656      9.943
REMARK  Name = 
REMARK  5 active torsions:
REMARK  status: ('A' for Active; 'I' for Inactive)
REMARK    1  A    between atoms: C_1  and  N_2
REMARK    2  A    between atoms: C_6  and  C_7
REMARK    3  A    between atoms: C_7  and  C_8
REMARK    4  A    between atoms: C_13  and  N_14
REMARK    5  A    between atoms: C_21  and  C_22
REMARK                            x       y       z     vdW  Elec       q    Type
REMARK                         _______ _______ _______ _____ _____    ______ ____
ROOT
ATOM      1  C   UNL     1      -0.086  10.594  21.693  0.00  0.00    +0.000 A 
ATOM      2  N   UNL     1      -0.148  11.477  20.729  0.00  0.00    +0.000 NA
ATOM      3  N   UNL     1       0.371  11.286  19.501  0.00  0.00    +0.000 N 
ATOM      4  C   UNL     1       0.251  10.076  18.859  0.00  0.00    +0.000 A 
ATOM      5  C   UNL     1       1.401   9.405  18.737  0.00  0.00    +0.000 A 
ATOM      6  C   UNL     1       1.622   8.283  19.627  0.00  0.00    +0.000 A 
ATOM      7  C   UNL     1       1.216   8.339  20.924  0.00  0.00    +0.000 A 
ATOM      8  O   UNL     1       0.489   9.355  21.705  0.00  0.00    +0.000 OA
ATOM      9  H   UNL     1       0.276  12.083  18.867  0.00  0.00    +0.000 HD
ENDROOT
BRANCH   6  10
ATOM     10  N   UNL     1       2.335   7.202  19.090  0.00  0.00    +0.000 N 
ATOM     11  C   UNL     1       3.317   7.327  17.999  0.00  0.00    +0.000 C 
ATOM     12  C   UNL     1       3.797   5.921  17.776  0.00  0.00    +0.000 A 
ATOM     13  C   UNL     1       3.127   5.074  18.655  0.00  0.00    +0.000 A 
ATOM     14  C   UNL     1       3.337   3.707  18.697  0.00  0.00    +0.000 A 
ATOM     15  C   UNL     1       4.267   3.167  17.813  0.00  0.00    +0.000 A 
ATOM     16  C   UNL     1       4.960   4.002  16.921  0.00  0.00    +0.000 A 
ATOM     17  C   UNL     1       4.739   5.398  16.888  0.00  0.00    +0.000 A 
ATOM     18  C   UNL     1       2.212   5.866  19.480  0.00  0.00    +0.000 C 
ATOM     19  O   UNL     1       1.500   5.357  20.332  0.00  0.00    +0.000 OA
BRANCH  17  20
ATOM     20  C   UNL     1       5.524   6.238  15.916  0.00  0.00    +0.000 C 
ATOM     21  F   UNL     1       4.745   7.007  15.106  0.00  0.00    +0.000 F 
ATOM     22  F   UNL     1       6.373   7.099  16.543  0.00  0.00    +0.000 F 
ATOM     23  F   UNL     1       6.299   5.487  15.087  0.00  0.00    +0.000 F 
ENDBRANCH  17  20
ENDBRANCH   6  10
BRANCH   1  24
ATOM     24  C   UNL     1      -0.815  11.056  22.934  0.00  0.00    +0.000 C 
BRANCH  24  30
ATOM     25  C   UNL     1      -0.707  14.445  22.976  0.00  0.00    +0.000 C 
ATOM     26  N   UNL     1      -1.775  13.515  23.202  0.00  0.00    +0.000 N 
ATOM     27  C   UNL     1      -3.048  13.925  23.507  0.00  0.00    +0.000 A 
ATOM     28  N   UNL     1      -3.827  12.892  23.664  0.00  0.00    +0.000 NA
ATOM     29  N   UNL     1      -3.053  11.785  23.457  0.00  0.00    +0.000 NA
ATOM     30  C   UNL     1      -1.806  12.144  23.177  0.00  0.00    +0.000 A 
ENDBRANCH  24  30
ENDBRANCH   1  24
TORSDOF 4
ENDMDL
MODEL 3
REMARK VINA RESULT:      -8.4      0.733      1.198
REMARK  Name = 
REMARK  5 active torsions:
REMARK  status: ('A' for Active; 'I' for Inactive)
REMARK    1  A    between atoms: C_1  and  N_2
REMARK    2  A    between atoms: C_6  and  C_7
REMARK    3  A    between atoms: C_7  and  C_8
REMARK    4  A    between atoms: C_13  and  N_14
REMARK    5  A    between atoms: C_21  and  C_22
REMARK                            x       y       z     vdW  Elec       q    Type
REMARK                         _______ _______ _______ _____ _____    ______ ____
ROOT
ATOM      1  C   UNL     1       4.259   4.131  17.472  0.00  0.00    +0.000 A 
ATOM      2  N   UNL     1       3.897   3.262  18.382  0.00  0.00    +0.000 NA
ATOM      3  N   UNL     1       3.101   3.556  19.428  0.00  0.00    +0.000 N 
ATOM      4  C   UNL     1       1.999   4.365  19.277  0.00  0.00    +0.000 A 
ATOM      5  C   UNL     1       2.114   5.561  19.863  0.00  0.00    +0.000 A 
ATOM      6  C   UNL     1       2.380   6.704  19.014  0.00  0.00    +0.000 A 
ATOM      7  C   UNL     1       3.218   6.593  17.948  0.00  0.00    +0.000 A 
ATOM      8  O   UNL     1       3.957   5.458  17.366  0.00  0.00    +0.000 OA
ATOM      9  H   UNL     1       2.938   2.781  20.074  0.00  0.00    +0.000 HD
ENDROOT
BRANCH   6  10
ATOM     10  N   UNL     1       1.792   7.915  19.407  0.00  0.00    +0.000 N 
ATOM     11  C   UNL     1       1.139   8.125  20.710  0.00  0.00    +0.000 C 
ATOM     12  C   UNL     1       0.669   9.550  20.658  0.00  0.00    +0.000 A 
ATOM     13  C   UNL     1       1.013  10.091  19.422  0.00  0.00    +0.000 A 
ATOM     14  C   UNL     1       0.713  11.391  19.054  0.00  0.00    +0.000 A 
ATOM     15  C   UNL     1       0.036  12.185  19.976  0.00  0.00    +0.000 A 
ATOM     16  C   UNL     1      -0.316  11.664  21.232  0.00  0.00    +0.000 A 
ATOM     17  C   UNL     1      -0.003  10.335  21.598  0.00  0.00    +0.000 A 
ATOM     18  C   UNL     1       1.715   9.076  18.634  0.00  0.00    +0.000 C 
ATOM     19  O   UNL     1       2.122   9.298  17.503  0.00  0.00    +0.000 OA
BRANCH  17  20
ATOM     20  C   UNL     1      -0.399   9.842  22.965  0.00  0.00    +0.000 C 
ATOM     21  F   UNL     1      -1.187  10.714  23.651  0.00  0.00    +0.000 F 
ATOM     22  F   UNL     1      -1.094   8.672  22.913  0.00  0.00    +0.000 F 
ATOM     23  F   UNL     1       0.677   9.602  23.763  0.00  0.00    +0.000 F 
ENDBRANCH  17  20
ENDBRANCH   6  10
BRANCH   1  24
ATOM     24  C   UNL     1       5.094   3.498  16.383  0.00  0.00    +0.000 C 
BRANCH  24  30
ATOM     25  C   UNL     1       7.361   6.018  16.271  0.00  0.00    +0.000 C 
ATOM     26  N   UNL     1       6.908   5.087  15.277  0.00  0.00    +0.000 N 
ATOM     27  C   UNL     1       7.390   5.099  13.993  0.00  0.00    +0.000 A 
ATOM     28  N   UNL     1       6.822   4.158  13.292  0.00  0.00    +0.000 NA
ATOM     29  N   UNL     1       5.954   3.518  14.131  0.00  0.00    +0.000 NA
ATOM     30  C   UNL     1       5.993   4.069  15.338  0.00  0.00    +0.000 A 
ENDBRANCH  24  30
ENDBRANCH   1  24
TORSDOF 4
ENDMDL
MODEL 4
REMARK VINA RESULT:      -8.3      4.710      9.926
REMARK  Name = 
REMARK  5 active torsions:
REMARK  status: ('A' for Active; 'I' for Inactive)
REMARK    1  A    between atoms: C_1  and  N_2
REMARK    2  A    between atoms: C_6  and  C_7
REMARK    3  A    between atoms: C_7  and  C_8
REMARK    4  A    between atoms: C_13  and  N_14
REMARK    5  A    between atoms: C_21  and  C_22
REMARK                            x       y       z     vdW  Elec       q    Type
REMARK                         _______ _______ _______ _____ _____    ______ ____
ROOT
ATOM      1  C   UNL     1      -0.390  11.126  21.445  0.00  0.00    +0.000 A 
ATOM      2  N   UNL     1      -0.378  11.950  20.427  0.00  0.00    +0.000 NA
ATOM      3  N   UNL     1       0.237  11.690  19.258  0.00  0.00    +0.000 N 
ATOM      4  C   UNL     1       0.171  10.442  18.682  0.00  0.00    +0.000 A 
ATOM      5  C   UNL     1       1.328   9.773  18.692  0.00  0.00    +0.000 A 
ATOM      6  C   UNL     1       1.480   8.708  19.662  0.00  0.00    +0.000 A 
ATOM      7  C   UNL     1       0.973   8.839  20.918  0.00  0.00    +0.000 A 
ATOM      8  O   UNL     1       0.185   9.895  21.577  0.00  0.00    +0.000 OA
ATOM      9  H   UNL     1       0.191  12.446  18.572  0.00  0.00    +0.000 HD
ENDROOT
BRANCH   6  10
ATOM     10  N   UNL     1       2.236   7.602  19.248  0.00  0.00    +0.000 N 
ATOM     11  C   UNL     1       3.206   7.637  18.141  0.00  0.00    +0.000 C 
ATOM     12  C   UNL     1       3.744   6.236  18.080  0.00  0.00    +0.000 A 
ATOM     13  C   UNL     1       3.115   5.472  19.060  0.00  0.00    +0.000 A 
ATOM     14  C   UNL     1       3.383   4.129  19.260  0.00  0.00    +0.000 A 
ATOM     15  C   UNL     1       4.331   3.528  18.437  0.00  0.00    +0.000 A 
ATOM     16  C   UNL     1       4.983   4.279  17.446  0.00  0.00    +0.000 A 
ATOM     17  C   UNL     1       4.702   5.651  17.250  0.00  0.00    +0.000 A 
ATOM     18  C   UNL     1       2.171   6.316  19.795  0.00  0.00    +0.000 C 
ATOM     19  O   UNL     1       1.486   5.883  20.708  0.00  0.00    +0.000 OA
BRANCH  17  20
ATOM     20  C   UNL     1       5.446   6.403  16.178  0.00  0.00    +0.000 C 
ATOM     21  F   UNL     1       6.229   7.407  16.659  0.00  0.00    +0.000 F 
ATOM     22  F   UNL     1       6.276   5.596  15.460  0.00  0.00    +0.000 F 
ATOM     23  F   UNL     1       4.611   6.980  15.272  0.00  0.00    +0.000 F 
ENDBRANCH  17  20
ENDBRANCH   6  10
BRANCH   1  24
ATOM     24  C   UNL     1      -1.216  11.656  22.594  0.00  0.00    +0.000 C 
BRANCH  24  30
ATOM     25  C   UNL     1      -3.384  13.224  20.510  0.00  0.00    +0.000 C 
ATOM     26  N   UNL     1      -3.514  12.761  21.862  0.00  0.00    +0.000 N 
ATOM     27  C   UNL     1      -4.675  12.915  22.577  0.00  0.00    +0.000 A 
ATOM     28  N   UNL     1      -4.535  12.413  23.772  0.00  0.00    +0.000 NA
ATOM     29  N   UNL     1      -3.263  11.921  23.841  0.00  0.00    +0.000 NA
ATOM     30  C   UNL     1      -2.629  12.124  22.692  0.00  0.00    +0.000 A 
ENDBRANCH  24  30
ENDBRANCH   1  24
TORSDOF 4
ENDMDL
MODEL 5
REMARK VINA RESULT:      -8.3      4.586      9.820
REMARK  Name = 
REMARK  5 active torsions:
REMARK  status: ('A' for Active; 'I' for Inactive)
REMARK    1  A    between atoms: C_1  and  N_2
REMARK    2  A    between atoms: C_6  and  C_7
REMARK    3  A    between atoms: C_7  and  C_8
REMARK    4  A    between atoms: C_13  and  N_14
REMARK    5  A    between atoms: C_21  and  C_22
REMARK                            x       y       z     vdW  Elec       q    Type
REMARK                         _______ _______ _______ _____ _____    ______ ____
ROOT
ATOM      1  C   UNL     1       0.197  11.215  20.820  0.00  0.00    +0.000 A 
ATOM      2  N   UNL     1      -0.004  11.854  19.695  0.00  0.00    +0.000 NA
ATOM      3  N   UNL     1       0.378  11.392  18.490  0.00  0.00    +0.000 N 
ATOM      4  C   UNL     1       0.227  10.067  18.156  0.00  0.00    +0.000 A 
ATOM      5  C   UNL     1       1.378   9.394  18.054  0.00  0.00    +0.000 A 
ATOM      6  C   UNL     1       1.737   8.506  19.141  0.00  0.00    +0.000 A 
ATOM      7  C   UNL     1       1.480   8.854  20.431  0.00  0.00    +0.000 A 
ATOM      8  O   UNL     1       0.812  10.016  21.043  0.00  0.00    +0.000 OA
ATOM      9  H   UNL     1       0.185  12.022  17.708  0.00  0.00    +0.000 HD
ENDROOT
BRANCH   6  10
ATOM     10  N   UNL     1       2.421   7.337  18.781  0.00  0.00    +0.000 N 
ATOM     11  C   UNL     1       3.446   7.276  17.726  0.00  0.00    +0.000 C 
ATOM     12  C   UNL     1       3.871   5.836  17.710  0.00  0.00    +0.000 A 
ATOM     13  C   UNL     1       3.134   5.140  18.665  0.00  0.00    +0.000 A 
ATOM     14  C   UNL     1       3.282   3.784  18.895  0.00  0.00    +0.000 A 
ATOM     15  C   UNL     1       4.219   3.095  18.129  0.00  0.00    +0.000 A 
ATOM     16  C   UNL     1       4.980   3.776  17.165  0.00  0.00    +0.000 A 
ATOM     17  C   UNL     1       4.821   5.163  16.938  0.00  0.00    +0.000 A 
ATOM     18  C   UNL     1       2.225   6.070  19.339  0.00  0.00    +0.000 C 
ATOM     19  O   UNL     1       1.461   5.707  20.221  0.00  0.00    +0.000 OA
BRANCH  17  20
ATOM     20  C   UNL     1       5.677   5.835  15.897  0.00  0.00    +0.000 C 
ATOM     21  F   UNL     1       6.442   4.968  15.178  0.00  0.00    +0.000 F 
ATOM     22  F   UNL     1       4.938   6.525  14.985  0.00  0.00    +0.000 F 
ATOM     23  F   UNL     1       6.541   6.738  16.437  0.00  0.00    +0.000 F 
ENDBRANCH  17  20
ENDBRANCH   6  10
BRANCH   1  24
ATOM     24  C   UNL     1      -0.402  11.942  22.002  0.00  0.00    +0.000 C 
BRANCH  24  30
ATOM     25  C   UNL     1      -2.782  14.021  20.771  0.00  0.00    +0.000 C 
ATOM     26  N   UNL     1      -2.775  13.122  21.889  0.00  0.00    +0.000 N 
ATOM     27  C   UNL     1      -3.864  12.970  22.710  0.00  0.00    +0.000 A 
ATOM     28  N   UNL     1      -3.604  12.100  23.645  0.00  0.00    +0.000 NA
ATOM     29  N   UNL     1      -2.323  11.673  23.433  0.00  0.00    +0.000 NA
ATOM     30  C   UNL     1      -1.805  12.282  22.373  0.00  0.00    +0.000 A 
ENDBRANCH  24  30
ENDBRANCH   1  24
TORSDOF 4
ENDMDL
MODEL 6
REMARK VINA RESULT:      -8.3      4.402      9.819
REMARK  Name = 
REMARK  5 active torsions:
REMARK  status: ('A' for Active; 'I' for Inactive)
REMARK    1  A    between atoms: C_1  and  N_2
REMARK    2  A    between atoms: C_6  and  C_7
REMARK    3  A    between atoms: C_7  and  C_8
REMARK    4  A    between atoms: C_13  and  N_14
REMARK    5  A    between atoms: C_21  and  C_22
REMARK                            x       y       z     vdW  Elec       q    Type
REMARK                         _______ _______ _______ _____ _____    ______ ____
ROOT
ATOM      1  C   UNL     1      -0.883  11.369  22.227  0.00  0.00    +0.000 A 
ATOM      2  N   UNL     1      -0.519  12.326  21.410  0.00  0.00    +0.000 NA
ATOM      3  N   UNL     1       0.298  12.143  20.357  0.00  0.00    +0.000 N 
ATOM      4  C   UNL     1       0.180  11.037  19.548  0.00  0.00    +0.000 A 
ATOM      5  C   UNL     1       1.192  10.171  19.654  0.00  0.00    +0.000 A 
ATOM      6  C   UNL     1       0.962   8.957  20.409  0.00  0.00    +0.000 A 
ATOM      7  C   UNL     1       0.209   8.980  21.543  0.00  0.00    +0.000 A 
ATOM      8  O   UNL     1      -0.542  10.047  22.227  0.00  0.00    +0.000 OA
ATOM      9  H   UNL     1       0.521  12.994  19.834  0.00  0.00    +0.000 HD
ENDROOT
BRANCH   6  10
ATOM     10  N   UNL     1       1.619   7.808  19.945  0.00  0.00    +0.000 N 
ATOM     11  C   UNL     1       1.612   6.516  20.651  0.00  0.00    +0.000 C 
ATOM     12  C   UNL     1       2.442   5.618  19.780  0.00  0.00    +0.000 A 
ATOM     13  C   UNL     1       2.894   6.349  18.684  0.00  0.00    +0.000 A 
ATOM     14  C   UNL     1       3.696   5.810  17.693  0.00  0.00    +0.000 A 
ATOM     15  C   UNL     1       4.057   4.471  17.809  0.00  0.00    +0.000 A 
ATOM     16  C   UNL     1       3.608   3.711  18.902  0.00  0.00    +0.000 A 
ATOM     17  C   UNL     1       2.788   4.271  19.909  0.00  0.00    +0.000 A 
ATOM     18  C   UNL     1       2.385   7.719  18.779  0.00  0.00    +0.000 C 
ATOM     19  O   UNL     1       2.643   8.567  17.939  0.00  0.00    +0.000 OA
BRANCH  17  20
ATOM     20  C   UNL     1       2.331   3.398  21.047  0.00  0.00    +0.000 C 
ATOM     21  F   UNL     1       1.052   2.953  20.913  0.00  0.00    +0.000 F 
ATOM     22  F   UNL     1       3.101   2.283  21.186  0.00  0.00    +0.000 F 
ATOM     23  F   UNL     1       2.381   4.038  22.247  0.00  0.00    +0.000 F 
ENDBRANCH  17  20
ENDBRANCH   6  10
BRANCH   1  24
ATOM     24  C   UNL     1      -1.859  11.856  23.273  0.00  0.00    +0.000 C 
BRANCH  24  30
ATOM     25  C   UNL     1      -3.882  13.191  20.901  0.00  0.00    +0.000 C 
ATOM     26  N   UNL     1      -4.123  12.798  22.260  0.00  0.00    +0.000 N 
ATOM     27  C   UNL     1      -5.353  12.932  22.851  0.00  0.00    +0.000 A 
ATOM     28  N   UNL     1      -5.309  12.505  24.082  0.00  0.00    +0.000 NA
ATOM     29  N   UNL     1      -4.028  12.083  24.302  0.00  0.00    +0.000 NA
ATOM     30  C   UNL     1      -3.295  12.254  23.208  0.00  0.00    +0.000 A 
ENDBRANCH  24  30
ENDBRANCH   1  24
TORSDOF 4
ENDMDL
MODEL 7
REMARK VINA RESULT:      -8.3      4.485      9.599
REMARK  Name = 
REMARK  5 active torsions:
REMARK  status: ('A' for Active; 'I' for Inactive)
REMARK    1  A    between atoms: C_1  and  N_2
REMARK    2  A    between atoms: C_6  and  C_7
REMARK    3  A    between atoms: C_7  and  C_8
REMARK    4  A    between atoms: C_13  and  N_14
REMARK    5  A    between atoms: C_21  and  C_22
REMARK                            x       y       z     vdW  Elec       q    Type
REMARK                         _______ _______ _______ _____ _____    ______ ____
ROOT
ATOM      1  C   UNL     1       0.794  10.821  20.611  0.00  0.00    +0.000 A 
ATOM      2  N   UNL     1       0.966  11.473  19.488  0.00  0.00    +0.000 NA
ATOM      3  N   UNL     1       1.467  10.920  18.368  0.00  0.00    +0.000 N 
ATOM      4  C   UNL     1       1.095   9.657  17.970  0.00  0.00    +0.000 A 
ATOM      5  C   UNL     1       2.065   8.744  18.075  0.00  0.00    +0.000 A 
ATOM      6  C   UNL     1       1.996   7.813  19.183  0.00  0.00    +0.000 A 
ATOM      7  C   UNL     1       1.572   8.228  20.408  0.00  0.00    +0.000 A 
ATOM      8  O   UNL     1       1.071   9.518  20.913  0.00  0.00    +0.000 OA
ATOM      9  H   UNL     1       1.576  11.567  17.583  0.00  0.00    +0.000 HD
ENDROOT
BRANCH   6  10
ATOM     10  N   UNL     1       2.461   6.515  18.928  0.00  0.00    +0.000 N 
ATOM     11  C   UNL     1       3.465   6.190  17.902  0.00  0.00    +0.000 C 
ATOM     12  C   UNL     1       3.625   4.700  18.006  0.00  0.00    +0.000 A 
ATOM     13  C   UNL     1       2.768   4.225  18.995  0.00  0.00    +0.000 A 
ATOM     14  C   UNL     1       2.668   2.886  19.332  0.00  0.00    +0.000 A 
ATOM     15  C   UNL     1       3.471   1.983  18.641  0.00  0.00    +0.000 A 
ATOM     16  C   UNL     1       4.349   2.439  17.643  0.00  0.00    +0.000 A 
ATOM     17  C   UNL     1       4.443   3.809  17.308  0.00  0.00    +0.000 A 
ATOM     18  C   UNL     1       2.037   5.352  19.577  0.00  0.00    +0.000 C 
ATOM     19  O   UNL     1       1.214   5.203  20.468  0.00  0.00    +0.000 OA
BRANCH  17  20
ATOM     20  C   UNL     1       5.414   4.233  16.237  0.00  0.00    +0.000 C 
ATOM     21  F   UNL     1       6.462   4.961  16.708  0.00  0.00    +0.000 F 
ATOM     22  F   UNL     1       5.961   3.170  15.584  0.00  0.00    +0.000 F 
ATOM     23  F   UNL     1       4.827   4.999  15.277  0.00  0.00    +0.000 F 
ENDBRANCH  17  20
ENDBRANCH   6  10
BRANCH   1  24
ATOM     24  C   UNL     1       0.150  11.680  21.674  0.00  0.00    +0.000 C 
BRANCH  24  30
ATOM     25  C   UNL     1      -2.564  12.680  19.903  0.00  0.00    +0.000 C 
ATOM     26  N   UNL     1      -2.376  12.397  21.297  0.00  0.00    +0.000 N 
ATOM     27  C   UNL     1      -3.395  12.511  22.208  0.00  0.00    +0.000 A 
ATOM     28  N   UNL     1      -2.969  12.199  23.400  0.00  0.00    +0.000 NA
ATOM     29  N   UNL     1      -1.649  11.873  23.268  0.00  0.00    +0.000 NA
ATOM     30  C   UNL     1      -1.272  11.988  22.000  0.00  0.00    +0.000 A 
ENDBRANCH  24  30
ENDBRANCH   1  24
TORSDOF 4
ENDMDL
MODEL 8
REMARK VINA RESULT:      -8.3      4.174      9.627
REMARK  Name = 
REMARK  5 active torsions:
REMARK  status: ('A' for Active; 'I' for Inactive)
REMARK    1  A    between atoms: C_1  and  N_2
REMARK    2  A    between atoms: C_6  and  C_7
REMARK    3  A    between atoms: C_7  and  C_8
REMARK    4  A    between atoms: C_13  and  N_14
REMARK    5  A    between atoms: C_21  and  C_22
REMARK                            x       y       z     vdW  Elec       q    Type
REMARK                         _______ _______ _______ _____ _____    ______ ____
ROOT
ATOM      1  C   UNL     1      -0.266  11.192  21.625  0.00  0.00    +0.000 A 
ATOM      2  N   UNL     1      -0.283  11.910  20.530  0.00  0.00    +0.000 NA
ATOM      3  N   UNL     1       0.241  11.505  19.359  0.00  0.00    +0.000 N 
ATOM      4  C   UNL     1       0.080  10.213  18.916  0.00  0.00    +0.000 A 
ATOM      5  C   UNL     1       1.204   9.488  18.923  0.00  0.00    +0.000 A 
ATOM      6  C   UNL     1       1.370   8.516  19.985  0.00  0.00    +0.000 A 
ATOM      7  C   UNL     1       0.953   8.796  21.250  0.00  0.00    +0.000 A 
ATOM      8  O   UNL     1       0.259   9.951  21.845  0.00  0.00    +0.000 OA
ATOM      9  H   UNL     1       0.185  12.192  18.603  0.00  0.00    +0.000 HD
ENDROOT
BRANCH   6  10
ATOM     10  N   UNL     1       2.046   7.337  19.640  0.00  0.00    +0.000 N 
ATOM     11  C   UNL     1       1.977   6.093  20.424  0.00  0.00    +0.000 C 
ATOM     12  C   UNL     1       2.856   5.136  19.670  0.00  0.00    +0.000 A 
ATOM     13  C   UNL     1       3.389   5.793  18.564  0.00  0.00    +0.000 A 
ATOM     14  C   UNL     1       4.251   5.188  17.666  0.00  0.00    +0.000 A 
ATOM     15  C   UNL     1       4.590   3.857  17.891  0.00  0.00    +0.000 A 
ATOM     16  C   UNL     1       4.060   3.170  18.996  0.00  0.00    +0.000 A 
ATOM     17  C   UNL     1       3.179   3.798  19.907  0.00  0.00    +0.000 A 
ATOM     18  C   UNL     1       2.888   7.169  18.537  0.00  0.00    +0.000 C 
ATOM     19  O   UNL     1       3.211   7.961  17.665  0.00  0.00    +0.000 OA
BRANCH  17  20
ATOM     20  C   UNL     1       2.637   3.002  21.065  0.00  0.00    +0.000 C 
ATOM     21  F   UNL     1       2.263   3.768  22.125  0.00  0.00    +0.000 F 
ATOM     22  F   UNL     1       1.537   2.275  20.723  0.00  0.00    +0.000 F 
ATOM     23  F   UNL     1       3.540   2.107  21.549  0.00  0.00    +0.000 F 
ENDBRANCH  17  20
ENDBRANCH   6  10
BRANCH   1  24
ATOM     24  C   UNL     1      -0.990  11.874  22.763  0.00  0.00    +0.000 C 
BRANCH  24  30
ATOM     25  C   UNL     1      -2.667  14.509  21.441  0.00  0.00    +0.000 C 
ATOM     26  N   UNL     1      -3.057  13.491  22.374  0.00  0.00    +0.000 N 
ATOM     27  C   UNL     1      -4.313  13.447  22.924  0.00  0.00    +0.000 A 
ATOM     28  N   UNL     1      -4.413  12.432  23.735  0.00  0.00    +0.000 NA
ATOM     29  N   UNL     1      -3.203  11.798  23.716  0.00  0.00    +0.000 NA
ATOM     30  C   UNL     1      -2.368  12.427  22.897  0.00  0.00    +0.000 A 
ENDBRANCH  24  30
ENDBRANCH   1  24
TORSDOF 4
ENDMDL
MODEL 9
REMARK VINA RESULT:      -8.2      4.672      9.868
REMARK  Name = 
REMARK  5 active torsions:
REMARK  status: ('A' for Active; 'I' for Inactive)
REMARK    1  A    between atoms: C_1  and  N_2
REMARK    2  A    between atoms: C_6  and  C_7
REMARK    3  A    between atoms: C_7  and  C_8
REMARK    4  A    between atoms: C_13  and  N_14
REMARK    5  A    between atoms: C_21  and  C_22
REMARK                            x       y       z     vdW  Elec       q    Type
REMARK                         _______ _______ _______ _____ _____    ______ ____
ROOT
ATOM      1  C   UNL     1      -0.323  11.266  20.936  0.00  0.00    +0.000 A 
ATOM      2  N   UNL     1      -0.502  11.881  19.794  0.00  0.00    +0.000 NA
ATOM      3  N   UNL     1      -0.007  11.445  18.620  0.00  0.00    +0.000 N 
ATOM      4  C   UNL     1      -0.031  10.110  18.291  0.00  0.00    +0.000 A 
ATOM      5  C   UNL     1       1.174   9.530  18.269  0.00  0.00    +0.000 A 
ATOM      6  C   UNL     1       1.531   8.680  19.386  0.00  0.00    +0.000 A 
ATOM      7  C   UNL     1       1.164   9.013  20.653  0.00  0.00    +0.000 A 
ATOM      8  O   UNL     1       0.369  10.121  21.210  0.00  0.00    +0.000 OA
ATOM      9  H   UNL     1      -0.199  12.053  17.821  0.00  0.00    +0.000 HD
ENDROOT
BRANCH   6  10
ATOM     10  N   UNL     1       2.327   7.566  19.082  0.00  0.00    +0.000 N 
ATOM     11  C   UNL     1       3.332   7.544  18.006  0.00  0.00    +0.000 C 
ATOM     12  C   UNL     1       3.905   6.158  18.069  0.00  0.00    +0.000 A 
ATOM     13  C   UNL     1       3.264   5.453  19.085  0.00  0.00    +0.000 A 
ATOM     14  C   UNL     1       3.558   4.137  19.396  0.00  0.00    +0.000 A 
ATOM     15  C   UNL     1       4.547   3.501  18.651  0.00  0.00    +0.000 A 
ATOM     16  C   UNL     1       5.214   4.192  17.626  0.00  0.00    +0.000 A 
ATOM     17  C   UNL     1       4.905   5.537  17.317  0.00  0.00    +0.000 A 
ATOM     18  C   UNL     1       2.276   6.325  19.723  0.00  0.00    +0.000 C 
ATOM     19  O   UNL     1       1.572   5.943  20.646  0.00  0.00    +0.000 OA
BRANCH  17  20
ATOM     20  C   UNL     1       5.665   6.225  16.213  0.00  0.00    +0.000 C 
ATOM     21  F   UNL     1       6.539   5.409  15.563  0.00  0.00    +0.000 F 
ATOM     22  F   UNL     1       4.842   6.730  15.253  0.00  0.00    +0.000 F 
ATOM     23  F   UNL     1       6.401   7.277  16.665  0.00  0.00    +0.000 F 
ENDBRANCH  17  20
ENDBRANCH   6  10
BRANCH   1  24
ATOM     24  C   UNL     1      -1.052  11.949  22.069  0.00  0.00    +0.000 C 
BRANCH  24  30
ATOM     25  C   UNL     1      -3.013  13.915  24.016  0.00  0.00    +0.000 C 
ATOM     26  N   UNL     1      -1.697  14.104  23.476  0.00  0.00    +0.000 N 
ATOM     27  C   UNL     1      -0.973  15.247  23.702  0.00  0.00    +0.000 A 
ATOM     28  N   UNL     1       0.184  15.171  23.106  0.00  0.00    +0.000 NA
ATOM     29  N   UNL     1       0.220  13.957  22.480  0.00  0.00    +0.000 NA
ATOM     30  C   UNL     1      -0.913  13.297  22.693  0.00  0.00    +0.000 A 
ENDBRANCH  24  30
ENDBRANCH   1  24
TORSDOF 4
ENDMDL
