MODEL 1
REMARK VINA RESULT:      -8.8      0.000      0.000
REMARK  Name = 
REMARK  3 active torsions:
REMARK  status: ('A' for Active; 'I' for Inactive)
REMARK    1  A    between atoms: C_2  and  C_20
REMARK    2  A    between atoms: N_3  and  C_4
REMARK    3  A    between atoms: C_9  and  N_10
REMARK                            x       y       z     vdW  Elec       q    Type
REMARK                         _______ _______ _______ _____ _____    ______ ____
ROOT
ATOM      1  C   UNL     1       2.301   5.681  19.958  0.00  0.00    +0.000 A 
ATOM      2  C   UNL     1       1.493   4.963  20.857  0.00  0.00    +0.000 A 
ATOM      3  C   UNL     1       1.441   3.567  20.853  0.00  0.00    +0.000 A 
ATOM      4  C   UNL     1       2.176   2.850  19.926  0.00  0.00    +0.000 A 
ATOM      5  C   UNL     1       3.010   3.530  19.043  0.00  0.00    +0.000 A 
ATOM      6  C   UNL     1       3.115   4.936  19.072  0.00  0.00    +0.000 A 
ENDROOT
BRANCH   6   7
ATOM      7  N   UNL     1       4.113   5.553  18.256  0.00  0.00    +0.000 N 
ATOM      8  N   UNL     1       3.785   6.214  17.092  0.00  0.00    +0.000 NA
ATOM      9  C   UNL     1       4.950   6.693  16.637  0.00  0.00    +0.000 A 
ATOM     10  C   UNL     1       6.009   6.425  17.500  0.00  0.00    +0.000 A 
ATOM     11  C   UNL     1       7.398   6.786  17.543  0.00  0.00    +0.000 A 
ATOM     12  O   UNL     1       7.964   7.459  16.687  0.00  0.00    +0.000 OA
ATOM     13  N   UNL     1       8.039   6.320  18.673  0.00  0.00    +0.000 N 
ATOM     14  C   UNL     1       7.409   5.577  19.645  0.00  0.00    +0.000 A 
ATOM     15  N   UNL     1       6.161   5.224  19.617  0.00  0.00    +0.000 NA
ATOM     16  C   UNL     1       5.482   5.666  18.517  0.00  0.00    +0.000 A 
ATOM     17  H   UNL     1       9.012   6.569  18.769  0.00  0.00    +0.000 HD
ENDBRANCH   6   7
BRANCH   1  20
ATOM     18  O   UNL     1       0.445   7.554  21.269  0.00  0.00    +0.000 OA
ATOM     19  C   UNL     1       1.359   7.935  20.541  0.00  0.00    +0.000 C 
ATOM     20  N   UNL     1       2.299   7.106  19.951  0.00  0.00    +0.000 N 
ATOM     21  H   UNL     1       3.127   7.531  19.529  0.00  0.00    +0.000 HD
BRANCH  19  22
ATOM     22  C   UNL     1       1.589   9.425  20.302  0.00  0.00    +0.000 C 
ATOM     23  C   UNL     1       0.657  10.321  21.184  0.00  0.00    +0.000 C 
ATOM     24  C   UNL     1      -0.034  11.220  20.142  0.00  0.00    +0.000 C 
ATOM     25  C   UNL     1       1.137  11.458  19.173  0.00  0.00    +0.000 C 
ATOM     26  C   UNL     1       1.300   9.957  18.863  0.00  0.00    +0.000 C 
ATOM     27  C   UNL     1      -0.110   9.544  18.436  0.00  0.00    +0.000 C 
ATOM     28  C   UNL     1      -1.182  10.461  17.869  0.00  0.00    +0.000 C 
ATOM     29  C   UNL     1      -0.995  10.336  19.351  0.00  0.00    +0.000 C 
ENDBRANCH  19  22
ENDBRANCH   1  20
TORSDOF 3
ENDMDL
MODEL 2
REMARK VINA RESULT:      -8.6      2.053      6.327
REMARK  Name = 
REMARK  3 active torsions:
REMARK  status: ('A' for Active; 'I' for Inactive)
REMARK    1  A    between atoms: C_2  and  C_20
REMARK    2  A    between atoms: N_3  and  C_4
REMARK    3  A    between atoms: C_9  and  N_10
REMARK                            x       y       z     vdW  Elec       q    Type
REMARK                         _______ _______ _______ _____ _____    ______ ____
ROOT
ATOM      1  C   UNL     1       3.471   4.585  19.420  0.00  0.00    +0.000 A 
ATOM      2  C   UNL     1       3.476   3.254  19.871  0.00  0.00    +0.000 A 
ATOM      3  C   UNL     1       2.542   2.783  20.798  0.00  0.00    +0.000 A 
ATOM      4  C   UNL     1       1.595   3.644  21.324  0.00  0.00    +0.000 A 
ATOM      5  C   UNL     1       1.545   4.960  20.875  0.00  0.00    +0.000 A 
ATOM      6  C   UNL     1       2.445   5.435  19.897  0.00  0.00    +0.000 A 
ENDROOT
BRANCH   6   7
ATOM      7  N   UNL     1       2.228   6.741  19.361  0.00  0.00    +0.000 N 
ATOM      8  N   UNL     1       2.377   7.002  18.017  0.00  0.00    +0.000 NA
ATOM      9  C   UNL     1       2.047   8.294  17.885  0.00  0.00    +0.000 A 
ATOM     10  C   UNL     1       1.624   8.859  19.085  0.00  0.00    +0.000 A 
ATOM     11  C   UNL     1       1.081  10.132  19.470  0.00  0.00    +0.000 A 
ATOM     12  O   UNL     1       0.909  11.071  18.700  0.00  0.00    +0.000 OA
ATOM     13  N   UNL     1       0.741  10.187  20.807  0.00  0.00    +0.000 N 
ATOM     14  C   UNL     1       0.917   9.134  21.674  0.00  0.00    +0.000 A 
ATOM     15  N   UNL     1       1.422   7.983  21.352  0.00  0.00    +0.000 NA
ATOM     16  C   UNL     1       1.773   7.878  20.036  0.00  0.00    +0.000 A 
ATOM     17  H   UNL     1       0.328  11.050  21.127  0.00  0.00    +0.000 HD
ENDBRANCH   6   7
BRANCH   1  20
ATOM     18  O   UNL     1       6.371   4.906  19.821  0.00  0.00    +0.000 OA
ATOM     19  C   UNL     1       5.810   5.238  18.779  0.00  0.00    +0.000 C 
ATOM     20  N   UNL     1       4.464   5.052  18.511  0.00  0.00    +0.000 N 
ATOM     21  H   UNL     1       4.136   5.179  17.551  0.00  0.00    +0.000 HD
BRANCH  19  22
ATOM     22  C   UNL     1       6.614   5.818  17.617  0.00  0.00    +0.000 C 
ATOM     23  C   UNL     1       5.745   6.732  16.690  0.00  0.00    +0.000 C 
ATOM     24  C   UNL     1       5.962   6.108  15.299  0.00  0.00    +0.000 C 
ATOM     25  C   UNL     1       7.451   5.731  15.402  0.00  0.00    +0.000 C 
ATOM     26  C   UNL     1       7.220   4.795  16.605  0.00  0.00    +0.000 C 
ATOM     27  C   UNL     1       6.120   3.859  16.099  0.00  0.00    +0.000 C 
ATOM     28  C   UNL     1       5.813   3.537  14.645  0.00  0.00    +0.000 C 
ATOM     29  C   UNL     1       5.241   4.763  15.290  0.00  0.00    +0.000 C 
ENDBRANCH  19  22
ENDBRANCH   1  20
TORSDOF 3
ENDMDL
MODEL 3
REMARK VINA RESULT:      -7.9      0.798      1.709
REMARK  Name = 
REMARK  3 active torsions:
REMARK  status: ('A' for Active; 'I' for Inactive)
REMARK    1  A    between atoms: C_2  and  C_20
REMARK    2  A    between atoms: N_3  and  C_4
REMARK    3  A    between atoms: C_9  and  N_10
REMARK                            x       y       z     vdW  Elec       q    Type
REMARK                         _______ _______ _______ _____ _____    ______ ____
ROOT
ATOM      1  C   UNL     1       2.338   5.448  20.086  0.00  0.00    +0.000 A 
ATOM      2  C   UNL     1       1.221   4.838  20.681  0.00  0.00    +0.000 A 
ATOM      3  C   UNL     1       1.124   3.451  20.824  0.00  0.00    +0.000 A 
ATOM      4  C   UNL     1       2.132   2.634  20.345  0.00  0.00    +0.000 A 
ATOM      5  C   UNL     1       3.265   3.209  19.779  0.00  0.00    +0.000 A 
ATOM      6  C   UNL     1       3.403   4.610  19.678  0.00  0.00    +0.000 A 
ENDROOT
BRANCH   6   7
ATOM      7  N   UNL     1       4.660   5.132  19.244  0.00  0.00    +0.000 N 
ATOM      8  N   UNL     1       5.824   4.878  19.936  0.00  0.00    +0.000 NA
ATOM      9  C   UNL     1       6.782   5.476  19.216  0.00  0.00    +0.000 A 
ATOM     10  C   UNL     1       6.288   6.050  18.048  0.00  0.00    +0.000 A 
ATOM     11  C   UNL     1       6.877   6.702  16.912  0.00  0.00    +0.000 A 
ATOM     12  O   UNL     1       8.079   6.918  16.784  0.00  0.00    +0.000 OA
ATOM     13  N   UNL     1       5.949   7.043  15.948  0.00  0.00    +0.000 N 
ATOM     14  C   UNL     1       4.603   6.791  16.076  0.00  0.00    +0.000 A 
ATOM     15  N   UNL     1       4.048   6.221  17.101  0.00  0.00    +0.000 NA
ATOM     16  C   UNL     1       4.928   5.862  18.082  0.00  0.00    +0.000 A 
ATOM     17  H   UNL     1       6.312   7.479  15.114  0.00  0.00    +0.000 HD
ENDBRANCH   6   7
BRANCH   1  20
ATOM     18  O   UNL     1       0.653   7.547  21.281  0.00  0.00    +0.000 OA
ATOM     19  C   UNL     1       1.528   7.797  20.454  0.00  0.00    +0.000 C 
ATOM     20  N   UNL     1       2.391   6.861  19.908  0.00  0.00    +0.000 N 
ATOM     21  H   UNL     1       3.204   7.195  19.385  0.00  0.00    +0.000 HD
BRANCH  19  22
ATOM     22  C   UNL     1       1.799   9.236  20.024  0.00  0.00    +0.000 C 
ATOM     23  C   UNL     1       0.958  10.271  20.844  0.00  0.00    +0.000 C 
ATOM     24  C   UNL     1       0.237  11.070  19.743  0.00  0.00    +0.000 C 
ATOM     25  C   UNL     1       1.353  11.139  18.686  0.00  0.00    +0.000 C 
ATOM     26  C   UNL     1       1.440   9.607  18.551  0.00  0.00    +0.000 C 
ATOM     27  C   UNL     1      -0.008   9.209  18.259  0.00  0.00    +0.000 C 
ATOM     28  C   UNL     1      -1.078  10.100  17.647  0.00  0.00    +0.000 C 
ATOM     29  C   UNL     1      -0.804  10.143  19.120  0.00  0.00    +0.000 C 
ENDBRANCH  19  22
ENDBRANCH   1  20
TORSDOF 3
ENDMDL
MODEL 4
REMARK VINA RESULT:      -7.8      1.568      2.073
REMARK  Name = 
REMARK  3 active torsions:
REMARK  status: ('A' for Active; 'I' for Inactive)
REMARK    1  A    between atoms: C_2  and  C_20
REMARK    2  A    between atoms: N_3  and  C_4
REMARK    3  A    between atoms: C_9  and  N_10
REMARK                            x       y       z     vdW  Elec       q    Type
REMARK                         _______ _______ _______ _____ _____    ______ ____
ROOT
ATOM      1  C   UNL     1       2.299   4.557  19.742  0.00  0.00    +0.000 A 
ATOM      2  C   UNL     1       1.664   4.255  20.959  0.00  0.00    +0.000 A 
ATOM      3  C   UNL     1       2.015   3.137  21.720  0.00  0.00    +0.000 A 
ATOM      4  C   UNL     1       2.995   2.271  21.267  0.00  0.00    +0.000 A 
ATOM      5  C   UNL     1       3.664   2.559  20.081  0.00  0.00    +0.000 A 
ATOM      6  C   UNL     1       3.360   3.714  19.330  0.00  0.00    +0.000 A 
ENDROOT
BRANCH   6   7
ATOM      7  N   UNL     1       4.199   4.035  18.219  0.00  0.00    +0.000 N 
ATOM      8  N   UNL     1       3.773   3.862  16.920  0.00  0.00    +0.000 NA
ATOM      9  C   UNL     1       4.789   4.308  16.170  0.00  0.00    +0.000 A 
ATOM     10  C   UNL     1       5.828   4.827  16.938  0.00  0.00    +0.000 A 
ATOM     11  C   UNL     1       7.063   5.502  16.648  0.00  0.00    +0.000 A 
ATOM     12  O   UNL     1       7.474   5.735  15.516  0.00  0.00    +0.000 OA
ATOM     13  N   UNL     1       7.738   5.895  17.785  0.00  0.00    +0.000 N 
ATOM     14  C   UNL     1       7.277   5.652  19.059  0.00  0.00    +0.000 A 
ATOM     15  N   UNL     1       6.175   5.028  19.343  0.00  0.00    +0.000 NA
ATOM     16  C   UNL     1       5.468   4.621  18.247  0.00  0.00    +0.000 A 
ATOM     17  H   UNL     1       8.600   6.400  17.641  0.00  0.00    +0.000 HD
ENDBRANCH   6   7
BRANCH   1  20
ATOM     18  O   UNL     1       3.514   7.231  19.524  0.00  0.00    +0.000 OA
ATOM     19  C   UNL     1       2.470   6.933  18.947  0.00  0.00    +0.000 C 
ATOM     20  N   UNL     1       1.889   5.676  18.961  0.00  0.00    +0.000 N 
ATOM     21  H   UNL     1       1.138   5.479  18.297  0.00  0.00    +0.000 HD
BRANCH  19  22
ATOM     22  C   UNL     1       1.761   7.950  18.055  0.00  0.00    +0.000 C 
ATOM     23  C   UNL     1       2.639   9.216  17.780  0.00  0.00    +0.000 C 
ATOM     24  C   UNL     1       1.719  10.368  18.224  0.00  0.00    +0.000 C 
ATOM     25  C   UNL     1       0.362   9.834  17.734  0.00  0.00    +0.000 C 
ATOM     26  C   UNL     1       0.443   8.572  18.614  0.00  0.00    +0.000 C 
ATOM     27  C   UNL     1       0.696   9.147  20.009  0.00  0.00    +0.000 C 
ATOM     28  C   UNL     1       0.333  10.545  20.484  0.00  0.00    +0.000 C 
ATOM     29  C   UNL     1       1.614  10.302  19.746  0.00  0.00    +0.000 C 
ENDBRANCH  19  22
ENDBRANCH   1  20
TORSDOF 3
ENDMDL
MODEL 5
REMARK VINA RESULT:      -7.8      1.374      1.994
REMARK  Name = 
REMARK  3 active torsions:
REMARK  status: ('A' for Active; 'I' for Inactive)
REMARK    1  A    between atoms: C_2  and  C_20
REMARK    2  A    between atoms: N_3  and  C_4
REMARK    3  A    between atoms: C_9  and  N_10
REMARK                            x       y       z     vdW  Elec       q    Type
REMARK                         _______ _______ _______ _____ _____    ______ ____
ROOT
ATOM      1  C   UNL     1       2.162   5.023  19.944  0.00  0.00    +0.000 A 
ATOM      2  C   UNL     1       1.128   4.264  20.520  0.00  0.00    +0.000 A 
ATOM      3  C   UNL     1       1.096   2.870  20.434  0.00  0.00    +0.000 A 
ATOM      4  C   UNL     1       2.087   2.197  19.740  0.00  0.00    +0.000 A 
ATOM      5  C   UNL     1       3.140   2.917  19.186  0.00  0.00    +0.000 A 
ATOM      6  C   UNL     1       3.216   4.320  19.313  0.00  0.00    +0.000 A 
ENDROOT
BRANCH   6   7
ATOM      7  N   UNL     1       4.408   4.972  18.869  0.00  0.00    +0.000 N 
ATOM      8  N   UNL     1       5.345   5.445  19.762  0.00  0.00    +0.000 NA
ATOM      9  C   UNL     1       6.325   5.937  18.993  0.00  0.00    +0.000 A 
ATOM     10  C   UNL     1       6.086   5.737  17.635  0.00  0.00    +0.000 A 
ATOM     11  C   UNL     1       6.832   5.968  16.430  0.00  0.00    +0.000 A 
ATOM     12  O   UNL     1       7.946   6.483  16.395  0.00  0.00    +0.000 OA
ATOM     13  N   UNL     1       6.176   5.524  15.300  0.00  0.00    +0.000 N 
ATOM     14  C   UNL     1       4.934   4.932  15.333  0.00  0.00    +0.000 A 
ATOM     15  N   UNL     1       4.236   4.731  16.407  0.00  0.00    +0.000 NA
ATOM     16  C   UNL     1       4.845   5.153  17.554  0.00  0.00    +0.000 A 
ATOM     17  H   UNL     1       6.668   5.635  14.426  0.00  0.00    +0.000 HD
ENDBRANCH   6   7
BRANCH   1  20
ATOM     18  O   UNL     1       1.814   6.983  17.774  0.00  0.00    +0.000 OA
ATOM     19  C   UNL     1       2.037   7.319  18.935  0.00  0.00    +0.000 C 
ATOM     20  N   UNL     1       2.146   6.446  20.005  0.00  0.00    +0.000 N 
ATOM     21  H   UNL     1       2.134   6.832  20.952  0.00  0.00    +0.000 HD
BRANCH  19  22
ATOM     22  C   UNL     1       2.119   8.797  19.312  0.00  0.00    +0.000 C 
ATOM     23  C   UNL     1       1.305   9.127  20.607  0.00  0.00    +0.000 C 
ATOM     24  C   UNL     1       0.375  10.263  20.143  0.00  0.00    +0.000 C 
ATOM     25  C   UNL     1       1.330  11.028  19.210  0.00  0.00    +0.000 C 
ATOM     26  C   UNL     1       1.535   9.815  18.282  0.00  0.00    +0.000 C 
ATOM     27  C   UNL     1       0.102   9.418  17.922  0.00  0.00    +0.000 C 
ATOM     28  C   UNL     1      -1.115  10.329  17.944  0.00  0.00    +0.000 C 
ATOM     29  C   UNL     1      -0.652   9.648  19.196  0.00  0.00    +0.000 C 
ENDBRANCH  19  22
ENDBRANCH   1  20
TORSDOF 3
ENDMDL
MODEL 6
REMARK VINA RESULT:      -7.8      2.194      6.000
REMARK  Name = 
REMARK  3 active torsions:
REMARK  status: ('A' for Active; 'I' for Inactive)
REMARK    1  A    between atoms: C_2  and  C_20
REMARK    2  A    between atoms: N_3  and  C_4
REMARK    3  A    between atoms: C_9  and  N_10
REMARK                            x       y       z     vdW  Elec       q    Type
REMARK                         _______ _______ _______ _____ _____    ______ ____
ROOT
ATOM      1  C   UNL     1       3.441   3.856  19.944  0.00  0.00    +0.000 A 
ATOM      2  C   UNL     1       3.318   2.590  20.541  0.00  0.00    +0.000 A 
ATOM      3  C   UNL     1       2.233   2.259  21.359  0.00  0.00    +0.000 A 
ATOM      4  C   UNL     1       1.256   3.201  21.626  0.00  0.00    +0.000 A 
ATOM      5  C   UNL     1       1.333   4.453  21.025  0.00  0.00    +0.000 A 
ATOM      6  C   UNL     1       2.392   4.783  20.153  0.00  0.00    +0.000 A 
ENDROOT
BRANCH   6   7
ATOM      7  N   UNL     1       2.317   6.020  19.441  0.00  0.00    +0.000 N 
ATOM      8  N   UNL     1       2.571   6.090  18.089  0.00  0.00    +0.000 NA
ATOM      9  C   UNL     1       2.358   7.374  17.772  0.00  0.00    +0.000 A 
ATOM     10  C   UNL     1       1.909   8.122  18.857  0.00  0.00    +0.000 A 
ATOM     11  C   UNL     1       1.451   9.471  19.038  0.00  0.00    +0.000 A 
ATOM     12  O   UNL     1       1.405  10.311  18.145  0.00  0.00    +0.000 OA
ATOM     13  N   UNL     1       1.034   9.727  20.328  0.00  0.00    +0.000 N 
ATOM     14  C   UNL     1       1.068   8.786  21.333  0.00  0.00    +0.000 A 
ATOM     15  N   UNL     1       1.495   7.569  21.196  0.00  0.00    +0.000 NA
ATOM     16  C   UNL     1       1.917   7.266  19.932  0.00  0.00    +0.000 A 
ATOM     17  H   UNL     1       0.675  10.653  20.506  0.00  0.00    +0.000 HD
ENDBRANCH   6   7
BRANCH   1  20
ATOM     18  O   UNL     1       4.322   2.724  17.372  0.00  0.00    +0.000 OA
ATOM     19  C   UNL     1       4.976   3.571  17.977  0.00  0.00    +0.000 C 
ATOM     20  N   UNL     1       4.581   4.184  19.155  0.00  0.00    +0.000 N 
ATOM     21  H   UNL     1       5.096   5.009  19.471  0.00  0.00    +0.000 HD
BRANCH  19  22
ATOM     22  C   UNL     1       6.285   4.100  17.395  0.00  0.00    +0.000 C 
ATOM     23  C   UNL     1       6.803   5.369  18.151  0.00  0.00    +0.000 C 
ATOM     24  C   UNL     1       6.976   6.393  17.014  0.00  0.00    +0.000 C 
ATOM     25  C   UNL     1       7.507   5.473  15.901  0.00  0.00    +0.000 C 
ATOM     26  C   UNL     1       6.247   4.586  15.913  0.00  0.00    +0.000 C 
ATOM     27  C   UNL     1       5.117   5.601  15.733  0.00  0.00    +0.000 C 
ATOM     28  C   UNL     1       5.236   6.975  15.092  0.00  0.00    +0.000 C 
ATOM     29  C   UNL     1       5.578   6.779  16.538  0.00  0.00    +0.000 C 
ENDBRANCH  19  22
ENDBRANCH   1  20
TORSDOF 3
ENDMDL
MODEL 7
REMARK VINA RESULT:      -7.8      0.806      1.369
REMARK  Name = 
REMARK  3 active torsions:
REMARK  status: ('A' for Active; 'I' for Inactive)
REMARK    1  A    between atoms: C_2  and  C_20
REMARK    2  A    between atoms: N_3  and  C_4
REMARK    3  A    between atoms: C_9  and  N_10
REMARK                            x       y       z     vdW  Elec       q    Type
REMARK                         _______ _______ _______ _____ _____    ______ ____
ROOT
ATOM      1  C   UNL     1       2.131   5.393  19.599  0.00  0.00    +0.000 A 
ATOM      2  C   UNL     1       1.352   4.760  20.582  0.00  0.00    +0.000 A 
ATOM      3  C   UNL     1       1.715   3.528  21.134  0.00  0.00    +0.000 A 
ATOM      4  C   UNL     1       2.855   2.880  20.691  0.00  0.00    +0.000 A 
ATOM      5  C   UNL     1       3.663   3.496  19.741  0.00  0.00    +0.000 A 
ATOM      6  C   UNL     1       3.341   4.765  19.216  0.00  0.00    +0.000 A 
ENDROOT
BRANCH   6   7
ATOM      7  N   UNL     1       4.300   5.410  18.376  0.00  0.00    +0.000 N 
ATOM      8  N   UNL     1       3.934   6.002  17.187  0.00  0.00    +0.000 NA
ATOM      9  C   UNL     1       5.067   6.534  16.712  0.00  0.00    +0.000 A 
ATOM     10  C   UNL     1       6.139   6.367  17.585  0.00  0.00    +0.000 A 
ATOM     11  C   UNL     1       7.503   6.816  17.613  0.00  0.00    +0.000 A 
ATOM     12  O   UNL     1       8.028   7.488  16.731  0.00  0.00    +0.000 OA
ATOM     13  N   UNL     1       8.169   6.435  18.760  0.00  0.00    +0.000 N 
ATOM     14  C   UNL     1       7.584   5.695  19.762  0.00  0.00    +0.000 A 
ATOM     15  N   UNL     1       6.361   5.264  19.748  0.00  0.00    +0.000 NA
ATOM     16  C   UNL     1       5.659   5.618  18.632  0.00  0.00    +0.000 A 
ATOM     17  H   UNL     1       9.125   6.749  18.846  0.00  0.00    +0.000 HD
ENDBRANCH   6   7
BRANCH   1  20
ATOM     18  O   UNL     1       2.118   8.099  20.762  0.00  0.00    +0.000 OA
ATOM     19  C   UNL     1       1.675   7.863  19.640  0.00  0.00    +0.000 C 
ATOM     20  N   UNL     1       1.714   6.625  19.018  0.00  0.00    +0.000 N 
ATOM     21  H   UNL     1       1.503   6.576  18.019  0.00  0.00    +0.000 HD
BRANCH  19  22
ATOM     22  C   UNL     1       1.113   8.990  18.776  0.00  0.00    +0.000 C 
ATOM     23  C   UNL     1       2.052  10.242  18.746  0.00  0.00    +0.000 C 
ATOM     24  C   UNL     1       1.113  11.379  19.187  0.00  0.00    +0.000 C 
ATOM     25  C   UNL     1      -0.183  10.950  18.478  0.00  0.00    +0.000 C 
ATOM     26  C   UNL     1      -0.249   9.604  19.226  0.00  0.00    +0.000 C 
ATOM     27  C   UNL     1      -0.163  10.027  20.694  0.00  0.00    +0.000 C 
ATOM     28  C   UNL     1      -0.549  11.385  21.262  0.00  0.00    +0.000 C 
ATOM     29  C   UNL     1       0.811  11.167  20.669  0.00  0.00    +0.000 C 
ENDBRANCH  19  22
ENDBRANCH   1  20
TORSDOF 3
ENDMDL
MODEL 8
REMARK VINA RESULT:      -7.6      2.426      6.546
REMARK  Name = 
REMARK  3 active torsions:
REMARK  status: ('A' for Active; 'I' for Inactive)
REMARK    1  A    between atoms: C_2  and  C_20
REMARK    2  A    between atoms: N_3  and  C_4
REMARK    3  A    between atoms: C_9  and  N_10
REMARK                            x       y       z     vdW  Elec       q    Type
REMARK                         _______ _______ _______ _____ _____    ______ ____
ROOT
ATOM      1  C   UNL     1       3.482   4.306  19.692  0.00  0.00    +0.000 A 
ATOM      2  C   UNL     1       3.428   2.992  20.189  0.00  0.00    +0.000 A 
ATOM      3  C   UNL     1       2.409   2.566  21.046  0.00  0.00    +0.000 A 
ATOM      4  C   UNL     1       1.430   3.455  21.453  0.00  0.00    +0.000 A 
ATOM      5  C   UNL     1       1.438   4.754  20.954  0.00  0.00    +0.000 A 
ATOM      6  C   UNL     1       2.428   5.183  20.044  0.00  0.00    +0.000 A 
ENDROOT
BRANCH   6   7
ATOM      7  N   UNL     1       2.277   6.471  19.444  0.00  0.00    +0.000 N 
ATOM      8  N   UNL     1       2.514   6.672  18.101  0.00  0.00    +0.000 NA
ATOM      9  C   UNL     1       2.225   7.964  17.898  0.00  0.00    +0.000 A 
ATOM     10  C   UNL     1       1.745   8.588  19.047  0.00  0.00    +0.000 A 
ATOM     11  C   UNL     1       1.212   9.888  19.346  0.00  0.00    +0.000 A 
ATOM     12  O   UNL     1       1.111  10.798  18.530  0.00  0.00    +0.000 OA
ATOM     13  N   UNL     1       0.794  10.007  20.656  0.00  0.00    +0.000 N 
ATOM     14  C   UNL     1       0.890   8.986  21.574  0.00  0.00    +0.000 A 
ATOM     15  N   UNL     1       1.384   7.812  21.330  0.00  0.00    +0.000 NA
ATOM     16  C   UNL     1       1.811   7.645  20.043  0.00  0.00    +0.000 A 
ATOM     17  H   UNL     1       0.384  10.892  20.915  0.00  0.00    +0.000 HD
ENDBRANCH   6   7
BRANCH   1  20
ATOM     18  O   UNL     1       4.358   3.245  17.088  0.00  0.00    +0.000 OA
ATOM     19  C   UNL     1       4.959   4.148  17.667  0.00  0.00    +0.000 C 
ATOM     20  N   UNL     1       4.557   4.729  18.859  0.00  0.00    +0.000 N 
ATOM     21  H   UNL     1       5.010   5.596  19.155  0.00  0.00    +0.000 HD
BRANCH  19  22
ATOM     22  C   UNL     1       6.194   4.787  17.035  0.00  0.00    +0.000 C 
ATOM     23  C   UNL     1       5.862   6.131  16.306  0.00  0.00    +0.000 C 
ATOM     24  C   UNL     1       6.417   5.894  14.889  0.00  0.00    +0.000 C 
ATOM     25  C   UNL     1       7.693   5.104  15.228  0.00  0.00    +0.000 C 
ATOM     26  C   UNL     1       6.911   3.968  15.917  0.00  0.00    +0.000 C 
ATOM     27  C   UNL     1       5.896   3.559  14.847  0.00  0.00    +0.000 C 
ATOM     28  C   UNL     1       6.040   3.763  13.347  0.00  0.00    +0.000 C 
ATOM     29  C   UNL     1       5.513   4.864  14.217  0.00  0.00    +0.000 C 
ENDBRANCH  19  22
ENDBRANCH   1  20
TORSDOF 3
ENDMDL
MODEL 9
REMARK VINA RESULT:      -7.6      2.250      6.371
REMARK  Name = 
REMARK  3 active torsions:
REMARK  status: ('A' for Active; 'I' for Inactive)
REMARK    1  A    between atoms: C_2  and  C_20
REMARK    2  A    between atoms: N_3  and  C_4
REMARK    3  A    between atoms: C_9  and  N_10
REMARK                            x       y       z     vdW  Elec       q    Type
REMARK                         _______ _______ _______ _____ _____    ______ ____
ROOT
ATOM      1  C   UNL     1       3.378   4.248  19.305  0.00  0.00    +0.000 A 
ATOM      2  C   UNL     1       3.391   2.960  19.869  0.00  0.00    +0.000 A 
ATOM      3  C   UNL     1       2.732   2.671  21.067  0.00  0.00    +0.000 A 
ATOM      4  C   UNL     1       2.067   3.673  21.751  0.00  0.00    +0.000 A 
ATOM      5  C   UNL     1       2.011   4.951  21.203  0.00  0.00    +0.000 A 
ATOM      6  C   UNL     1       2.622   5.245  19.966  0.00  0.00    +0.000 A 
ENDROOT
BRANCH   6   7
ATOM      7  N   UNL     1       2.380   6.527  19.384  0.00  0.00    +0.000 N 
ATOM      8  N   UNL     1       2.550   6.749  18.034  0.00  0.00    +0.000 NA
ATOM      9  C   UNL     1       2.187   8.026  17.855  0.00  0.00    +0.000 A 
ATOM     10  C   UNL     1       1.724   8.617  19.027  0.00  0.00    +0.000 A 
ATOM     11  C   UNL     1       1.138   9.885  19.360  0.00  0.00    +0.000 A 
ATOM     12  O   UNL     1       0.955  10.795  18.557  0.00  0.00    +0.000 OA
ATOM     13  N   UNL     1       0.769   9.974  20.687  0.00  0.00    +0.000 N 
ATOM     14  C   UNL     1       0.957   8.954  21.592  0.00  0.00    +0.000 A 
ATOM     15  N   UNL     1       1.500   7.808  21.317  0.00  0.00    +0.000 NA
ATOM     16  C   UNL     1       1.880   7.672  20.012  0.00  0.00    +0.000 A 
ATOM     17  H   UNL     1       0.326  10.835  20.971  0.00  0.00    +0.000 HD
ENDBRANCH   6   7
BRANCH   1  20
ATOM     18  O   UNL     1       2.902   3.274  16.566  0.00  0.00    +0.000 OA
ATOM     19  C   UNL     1       3.860   3.989  16.853  0.00  0.00    +0.000 C 
ATOM     20  N   UNL     1       4.098   4.527  18.107  0.00  0.00    +0.000 N 
ATOM     21  H   UNL     1       4.804   5.262  18.196  0.00  0.00    +0.000 HD
BRANCH  19  22
ATOM     22  C   UNL     1       4.847   4.431  15.776  0.00  0.00    +0.000 C 
ATOM     23  C   UNL     1       6.148   3.561  15.767  0.00  0.00    +0.000 C 
ATOM     24  C   UNL     1       7.262   4.616  15.895  0.00  0.00    +0.000 C 
ATOM     25  C   UNL     1       6.674   5.737  15.020  0.00  0.00    +0.000 C 
ATOM     26  C   UNL     1       5.415   5.880  15.898  0.00  0.00    +0.000 C 
ATOM     27  C   UNL     1       5.999   6.087  17.297  0.00  0.00    +0.000 C 
ATOM     28  C   UNL     1       7.381   6.633  17.622  0.00  0.00    +0.000 C 
ATOM     29  C   UNL     1       7.191   5.178  17.312  0.00  0.00    +0.000 C 
ENDBRANCH  19  22
ENDBRANCH   1  20
TORSDOF 3
ENDMDL
