MODEL 1
REMARK VINA RESULT:      -8.5      0.000      0.000
REMARK  Name = 
REMARK  4 active torsions:
REMARK  status: ('A' for Active; 'I' for Inactive)
REMARK    1  A    between atoms: C_2  and  C_3
REMARK    2  A    between atoms: C_3  and  C_4
REMARK    3  A    between atoms: N_11  and  C_12
REMARK    4  A    between atoms: C_15  and  N_16
REMARK                            x       y       z     vdW  Elec       q    Type
REMARK                         _______ _______ _______ _____ _____    ______ ____
ROOT
ATOM      1  C   UNL     1       1.368   9.212  19.426  0.00  0.00    +0.000 A 
ATOM      2  C   UNL     1       1.943   8.822  18.217  0.00  0.00    +0.000 A 
ATOM      3  C   UNL     1       2.525   7.554  18.074  0.00  0.00    +0.000 A 
ATOM      4  C   UNL     1       2.536   6.648  19.142  0.00  0.00    +0.000 A 
ATOM      5  C   UNL     1       1.968   7.043  20.358  0.00  0.00    +0.000 A 
ATOM      6  C   UNL     1       1.390   8.312  20.497  0.00  0.00    +0.000 A 
ENDROOT
BRANCH   4   7
ATOM      7  N   UNL     1       3.122   5.358  18.965  0.00  0.00    +0.000 N 
ATOM      8  N   UNL     1       4.486   5.230  18.863  0.00  0.00    +0.000 NA
ATOM      9  C   UNL     1       4.704   3.920  18.730  0.00  0.00    +0.000 A 
ATOM     10  C   UNL     1       3.520   3.191  18.727  0.00  0.00    +0.000 A 
ATOM     11  C   UNL     1       3.196   1.800  18.606  0.00  0.00    +0.000 A 
ATOM     12  O   UNL     1       4.021   0.902  18.493  0.00  0.00    +0.000 OA
ATOM     13  N   UNL     1       1.836   1.567  18.627  0.00  0.00    +0.000 N 
ATOM     14  C   UNL     1       0.901   2.570  18.764  0.00  0.00    +0.000 A 
ATOM     15  N   UNL     1       1.171   3.830  18.889  0.00  0.00    +0.000 NA
ATOM     16  C   UNL     1       2.506   4.111  18.868  0.00  0.00    +0.000 A 
ATOM     17  H   UNL     1       1.550   0.602  18.538  0.00  0.00    +0.000 HD
ENDBRANCH   4   7
BRANCH   1  20
ATOM     18  O   UNL     1      -1.424  10.097  18.910  0.00  0.00    +0.000 OA
ATOM     19  C   UNL     1      -0.550  10.821  19.383  0.00  0.00    +0.000 C 
ATOM     20  N   UNL     1       0.761  10.466  19.648  0.00  0.00    +0.000 N 
ATOM     21  H   UNL     1       1.365  11.194  20.013  0.00  0.00    +0.000 HD
BRANCH  19  22
ATOM     22  C   UNL     1      -0.862  12.263  19.740  0.00  0.00    +0.000 C 
BRANCH  22  23
ATOM     23  C   UNL     1      -1.898  12.382  20.825  0.00  0.00    +0.000 A 
ATOM     24  C   UNL     1      -3.209  12.783  20.531  0.00  0.00    +0.000 A 
ATOM     25  C   UNL     1      -4.165  12.866  21.547  0.00  0.00    +0.000 A 
ATOM     26  C   UNL     1      -3.819  12.562  22.864  0.00  0.00    +0.000 A 
ATOM     27  C   UNL     1      -2.511  12.188  23.169  0.00  0.00    +0.000 A 
ATOM     28  C   UNL     1      -1.564  12.110  22.153  0.00  0.00    +0.000 A 
ATOM     29  F   UNL     1      -0.305  11.762  22.460  0.00  0.00    +0.000 F 
ENDBRANCH  22  23
ENDBRANCH  19  22
ENDBRANCH   1  20
TORSDOF 4
ENDMDL
MODEL 2
REMARK VINA RESULT:      -8.5      3.062      9.480
REMARK  Name = 
REMARK  4 active torsions:
REMARK  status: ('A' for Active; 'I' for Inactive)
REMARK    1  A    between atoms: C_2  and  C_3
REMARK    2  A    between atoms: C_3  and  C_4
REMARK    3  A    between atoms: N_11  and  C_12
REMARK    4  A    between atoms: C_15  and  N_16
REMARK                            x       y       z     vdW  Elec       q    Type
REMARK                         _______ _______ _______ _____ _____    ______ ____
ROOT
ATOM      1  C   UNL     1       2.545   7.025  18.852  0.00  0.00    +0.000 A 
ATOM      2  C   UNL     1       2.320   8.092  17.982  0.00  0.00    +0.000 A 
ATOM      3  C   UNL     1       1.632   9.236  18.413  0.00  0.00    +0.000 A 
ATOM      4  C   UNL     1       1.161   9.335  19.728  0.00  0.00    +0.000 A 
ATOM      5  C   UNL     1       1.378   8.260  20.597  0.00  0.00    +0.000 A 
ATOM      6  C   UNL     1       2.063   7.118  20.162  0.00  0.00    +0.000 A 
ENDROOT
BRANCH   4   7
ATOM      7  N   UNL     1       0.477  10.517  20.144  0.00  0.00    +0.000 N 
ATOM      8  N   UNL     1       0.986  11.284  21.164  0.00  0.00    +0.000 NA
ATOM      9  C   UNL     1       0.138  12.307  21.287  0.00  0.00    +0.000 A 
ATOM     10  C   UNL     1      -0.920  12.221  20.387  0.00  0.00    +0.000 A 
ATOM     11  C   UNL     1      -2.075  13.024  20.114  0.00  0.00    +0.000 A 
ATOM     12  O   UNL     1      -2.345  14.071  20.690  0.00  0.00    +0.000 OA
ATOM     13  N   UNL     1      -2.870  12.491  19.120  0.00  0.00    +0.000 N 
ATOM     14  C   UNL     1      -2.568  11.319  18.461  0.00  0.00    +0.000 A 
ATOM     15  N   UNL     1      -1.524  10.586  18.681  0.00  0.00    +0.000 NA
ATOM     16  C   UNL     1      -0.708  11.071  19.661  0.00  0.00    +0.000 A 
ATOM     17  H   UNL     1      -3.703  13.013  18.891  0.00  0.00    +0.000 HD
ENDBRANCH   4   7
BRANCH   1  20
ATOM     18  O   UNL     1       1.515   4.527  17.609  0.00  0.00    +0.000 OA
ATOM     19  C   UNL     1       2.690   4.705  17.921  0.00  0.00    +0.000 C 
ATOM     20  N   UNL     1       3.228   5.843  18.498  0.00  0.00    +0.000 N 
ATOM     21  H   UNL     1       4.217   5.816  18.722  0.00  0.00    +0.000 HD
BRANCH  19  22
ATOM     22  C   UNL     1       3.718   3.613  17.683  0.00  0.00    +0.000 C 
BRANCH  22  23
ATOM     23  C   UNL     1       4.926   4.106  16.935  0.00  0.00    +0.000 A 
ATOM     24  C   UNL     1       4.913   4.223  15.538  0.00  0.00    +0.000 A 
ATOM     25  C   UNL     1       6.037   4.706  14.861  0.00  0.00    +0.000 A 
ATOM     26  C   UNL     1       7.184   5.063  15.568  0.00  0.00    +0.000 A 
ATOM     27  C   UNL     1       7.216   4.924  16.956  0.00  0.00    +0.000 A 
ATOM     28  C   UNL     1       6.095   4.441  17.624  0.00  0.00    +0.000 A 
ATOM     29  F   UNL     1       6.140   4.299  18.957  0.00  0.00    +0.000 F 
ENDBRANCH  22  23
ENDBRANCH  19  22
ENDBRANCH   1  20
TORSDOF 4
ENDMDL
MODEL 3
REMARK VINA RESULT:      -8.4      0.910      1.588
REMARK  Name = 
REMARK  4 active torsions:
REMARK  status: ('A' for Active; 'I' for Inactive)
REMARK    1  A    between atoms: C_2  and  C_3
REMARK    2  A    between atoms: C_3  and  C_4
REMARK    3  A    between atoms: N_11  and  C_12
REMARK    4  A    between atoms: C_15  and  N_16
REMARK                            x       y       z     vdW  Elec       q    Type
REMARK                         _______ _______ _______ _____ _____    ______ ____
ROOT
ATOM      1  C   UNL     1       1.251   9.145  19.728  0.00  0.00    +0.000 A 
ATOM      2  C   UNL     1       1.299   8.191  20.744  0.00  0.00    +0.000 A 
ATOM      3  C   UNL     1       1.900   6.942  20.528  0.00  0.00    +0.000 A 
ATOM      4  C   UNL     1       2.470   6.627  19.288  0.00  0.00    +0.000 A 
ATOM      5  C   UNL     1       2.413   7.581  18.266  0.00  0.00    +0.000 A 
ATOM      6  C   UNL     1       1.810   8.827  18.485  0.00  0.00    +0.000 A 
ENDROOT
BRANCH   4   7
ATOM      7  N   UNL     1       3.089   5.354  19.100  0.00  0.00    +0.000 N 
ATOM      8  N   UNL     1       4.458   5.254  19.056  0.00  0.00    +0.000 NA
ATOM      9  C   UNL     1       4.708   3.953  18.895  0.00  0.00    +0.000 A 
ATOM     10  C   UNL     1       3.539   3.202  18.817  0.00  0.00    +0.000 A 
ATOM     11  C   UNL     1       3.248   1.810  18.641  0.00  0.00    +0.000 A 
ATOM     12  O   UNL     1       4.095   0.931  18.540  0.00  0.00    +0.000 OA
ATOM     13  N   UNL     1       1.893   1.552  18.593  0.00  0.00    +0.000 N 
ATOM     14  C   UNL     1       0.934   2.533  18.716  0.00  0.00    +0.000 A 
ATOM     15  N   UNL     1       1.174   3.794  18.890  0.00  0.00    +0.000 NA
ATOM     16  C   UNL     1       2.502   4.100  18.938  0.00  0.00    +0.000 A 
ATOM     17  H   UNL     1       1.630   0.586  18.463  0.00  0.00    +0.000 HD
ENDBRANCH   4   7
BRANCH   1  20
ATOM     18  O   UNL     1      -1.407  10.133  18.834  0.00  0.00    +0.000 OA
ATOM     19  C   UNL     1      -0.580  10.825  19.423  0.00  0.00    +0.000 C 
ATOM     20  N   UNL     1       0.668  10.422  19.865  0.00  0.00    +0.000 N 
ATOM     21  H   UNL     1       1.244  11.129  20.309  0.00  0.00    +0.000 HD
BRANCH  19  22
ATOM     22  C   UNL     1      -0.883  12.280  19.733  0.00  0.00    +0.000 C 
BRANCH  22  23
ATOM     23  C   UNL     1      -1.788  12.444  20.923  0.00  0.00    +0.000 A 
ATOM     24  C   UNL     1      -1.278  12.409  22.229  0.00  0.00    +0.000 A 
ATOM     25  C   UNL     1      -2.129  12.587  23.323  0.00  0.00    +0.000 A 
ATOM     26  C   UNL     1      -3.495  12.790  23.125  0.00  0.00    +0.000 A 
ATOM     27  C   UNL     1      -4.015  12.799  21.831  0.00  0.00    +0.000 A 
ATOM     28  C   UNL     1      -3.162  12.619  20.747  0.00  0.00    +0.000 A 
ATOM     29  F   UNL     1      -3.674  12.617  19.507  0.00  0.00    +0.000 F 
ENDBRANCH  22  23
ENDBRANCH  19  22
ENDBRANCH   1  20
TORSDOF 4
ENDMDL
MODEL 4
REMARK VINA RESULT:      -8.3      3.353      9.716
REMARK  Name = 
REMARK  4 active torsions:
REMARK  status: ('A' for Active; 'I' for Inactive)
REMARK    1  A    between atoms: C_2  and  C_3
REMARK    2  A    between atoms: C_3  and  C_4
REMARK    3  A    between atoms: N_11  and  C_12
REMARK    4  A    between atoms: C_15  and  N_16
REMARK                            x       y       z     vdW  Elec       q    Type
REMARK                         _______ _______ _______ _____ _____    ______ ____
ROOT
ATOM      1  C   UNL     1       2.586   6.798  18.944  0.00  0.00    +0.000 A 
ATOM      2  C   UNL     1       2.091   6.942  20.240  0.00  0.00    +0.000 A 
ATOM      3  C   UNL     1       1.422   8.112  20.628  0.00  0.00    +0.000 A 
ATOM      4  C   UNL     1       1.232   9.161  19.720  0.00  0.00    +0.000 A 
ATOM      5  C   UNL     1       1.738   9.022  18.423  0.00  0.00    +0.000 A 
ATOM      6  C   UNL     1       2.407   7.852  18.041  0.00  0.00    +0.000 A 
ENDROOT
BRANCH   4   7
ATOM      7  N   UNL     1       0.535  10.336  20.138  0.00  0.00    +0.000 N 
ATOM      8  N   UNL     1       0.998  11.069  21.203  0.00  0.00    +0.000 NA
ATOM      9  C   UNL     1       0.150  12.093  21.317  0.00  0.00    +0.000 A 
ATOM     10  C   UNL     1      -0.864  12.040  20.365  0.00  0.00    +0.000 A 
ATOM     11  C   UNL     1      -2.001  12.858  20.061  0.00  0.00    +0.000 A 
ATOM     12  O   UNL     1      -2.293  13.889  20.654  0.00  0.00    +0.000 OA
ATOM     13  N   UNL     1      -2.750  12.359  19.015  0.00  0.00    +0.000 N 
ATOM     14  C   UNL     1      -2.422  11.206  18.336  0.00  0.00    +0.000 A 
ATOM     15  N   UNL     1      -1.393  10.459  18.584  0.00  0.00    +0.000 NA
ATOM     16  C   UNL     1      -0.624  10.910  19.616  0.00  0.00    +0.000 A 
ATOM     17  H   UNL     1      -3.569  12.893  18.762  0.00  0.00    +0.000 HD
ENDBRANCH   4   7
BRANCH   1  20
ATOM     18  O   UNL     1       5.230   5.695  19.739  0.00  0.00    +0.000 OA
ATOM     19  C   UNL     1       4.504   5.191  18.885  0.00  0.00    +0.000 C 
ATOM     20  N   UNL     1       3.266   5.655  18.476  0.00  0.00    +0.000 N 
ATOM     21  H   UNL     1       2.808   5.137  17.734  0.00  0.00    +0.000 HD
BRANCH  19  22
ATOM     22  C   UNL     1       4.939   3.931  18.159  0.00  0.00    +0.000 C 
BRANCH  22  23
ATOM     23  C   UNL     1       5.587   4.218  16.832  0.00  0.00    +0.000 A 
ATOM     24  C   UNL     1       4.857   4.133  15.638  0.00  0.00    +0.000 A 
ATOM     25  C   UNL     1       5.468   4.426  14.416  0.00  0.00    +0.000 A 
ATOM     26  C   UNL     1       6.813   4.795  14.373  0.00  0.00    +0.000 A 
ATOM     27  C   UNL     1       7.553   4.856  15.553  0.00  0.00    +0.000 A 
ATOM     28  C   UNL     1       6.939   4.561  16.766  0.00  0.00    +0.000 A 
ATOM     29  F   UNL     1       7.665   4.610  17.894  0.00  0.00    +0.000 F 
ENDBRANCH  22  23
ENDBRANCH  19  22
ENDBRANCH   1  20
TORSDOF 4
ENDMDL
MODEL 5
REMARK VINA RESULT:      -8.2      3.257      9.856
REMARK  Name = 
REMARK  4 active torsions:
REMARK  status: ('A' for Active; 'I' for Inactive)
REMARK    1  A    between atoms: C_2  and  C_3
REMARK    2  A    between atoms: C_3  and  C_4
REMARK    3  A    between atoms: N_11  and  C_12
REMARK    4  A    between atoms: C_15  and  N_16
REMARK                            x       y       z     vdW  Elec       q    Type
REMARK                         _______ _______ _______ _____ _____    ______ ____
ROOT
ATOM      1  C   UNL     1       2.454   7.424  18.924  0.00  0.00    +0.000 A 
ATOM      2  C   UNL     1       1.774   7.873  20.056  0.00  0.00    +0.000 A 
ATOM      3  C   UNL     1       1.139   9.123  20.064  0.00  0.00    +0.000 A 
ATOM      4  C   UNL     1       1.169   9.947  18.931  0.00  0.00    +0.000 A 
ATOM      5  C   UNL     1       1.860   9.501  17.799  0.00  0.00    +0.000 A 
ATOM      6  C   UNL     1       2.495   8.252  17.797  0.00  0.00    +0.000 A 
ENDROOT
BRANCH   4   7
ATOM      7  N   UNL     1       0.501  11.209  18.961  0.00  0.00    +0.000 N 
ATOM      8  N   UNL     1      -0.864  11.262  19.102  0.00  0.00    +0.000 NA
ATOM      9  C   UNL     1      -1.163  12.563  19.115  0.00  0.00    +0.000 A 
ATOM     10  C   UNL     1      -0.032  13.360  18.971  0.00  0.00    +0.000 A 
ATOM     11  C   UNL     1       0.200  14.773  18.910  0.00  0.00    +0.000 A 
ATOM     12  O   UNL     1      -0.674  15.625  19.012  0.00  0.00    +0.000 OA
ATOM     13  N   UNL     1       1.531  15.086  18.720  0.00  0.00    +0.000 N 
ATOM     14  C   UNL     1       2.521  14.133  18.614  0.00  0.00    +0.000 A 
ATOM     15  N   UNL     1       2.336  12.853  18.680  0.00  0.00    +0.000 NA
ATOM     16  C   UNL     1       1.033  12.495  18.863  0.00  0.00    +0.000 A 
ATOM     17  H   UNL     1       1.751  16.069  18.662  0.00  0.00    +0.000 HD
ENDBRANCH   4   7
BRANCH   1  20
ATOM     18  O   UNL     1       1.550   4.868  17.704  0.00  0.00    +0.000 OA
ATOM     19  C   UNL     1       2.638   5.018  18.254  0.00  0.00    +0.000 C 
ATOM     20  N   UNL     1       3.115   6.181  18.835  0.00  0.00    +0.000 N 
ATOM     21  H   UNL     1       4.026   6.128  19.277  0.00  0.00    +0.000 HD
BRANCH  19  22
ATOM     22  C   UNL     1       3.614   3.860  18.347  0.00  0.00    +0.000 C 
BRANCH  22  23
ATOM     23  C   UNL     1       4.876   4.099  17.563  0.00  0.00    +0.000 A 
ATOM     24  C   UNL     1       4.926   3.853  16.184  0.00  0.00    +0.000 A 
ATOM     25  C   UNL     1       6.100   4.103  15.466  0.00  0.00    +0.000 A 
ATOM     26  C   UNL     1       7.233   4.588  16.118  0.00  0.00    +0.000 A 
ATOM     27  C   UNL     1       7.200   4.810  17.495  0.00  0.00    +0.000 A 
ATOM     28  C   UNL     1       6.029   4.558  18.204  0.00  0.00    +0.000 A 
ATOM     29  F   UNL     1       6.012   4.762  19.530  0.00  0.00    +0.000 F 
ENDBRANCH  22  23
ENDBRANCH  19  22
ENDBRANCH   1  20
TORSDOF 4
ENDMDL
MODEL 6
REMARK VINA RESULT:      -8.2      3.156      9.345
REMARK  Name = 
REMARK  4 active torsions:
REMARK  status: ('A' for Active; 'I' for Inactive)
REMARK    1  A    between atoms: C_2  and  C_3
REMARK    2  A    between atoms: C_3  and  C_4
REMARK    3  A    between atoms: N_11  and  C_12
REMARK    4  A    between atoms: C_15  and  N_16
REMARK                            x       y       z     vdW  Elec       q    Type
REMARK                         _______ _______ _______ _____ _____    ______ ____
ROOT
ATOM      1  C   UNL     1       2.358   7.662  19.027  0.00  0.00    +0.000 A 
ATOM      2  C   UNL     1       1.837   7.686  20.320  0.00  0.00    +0.000 A 
ATOM      3  C   UNL     1       0.965   8.707  20.725  0.00  0.00    +0.000 A 
ATOM      4  C   UNL     1       0.592   9.723  19.835  0.00  0.00    +0.000 A 
ATOM      5  C   UNL     1       1.122   9.705  18.541  0.00  0.00    +0.000 A 
ATOM      6  C   UNL     1       1.996   8.684  18.142  0.00  0.00    +0.000 A 
ENDROOT
BRANCH   4   7
ATOM      7  N   UNL     1      -0.310  10.743  20.268  0.00  0.00    +0.000 N 
ATOM      8  N   UNL     1      -0.076  11.413  21.444  0.00  0.00    +0.000 NA
ATOM      9  C   UNL     1      -1.071  12.297  21.545  0.00  0.00    +0.000 A 
ATOM     10  C   UNL     1      -1.957  12.211  20.475  0.00  0.00    +0.000 A 
ATOM     11  C   UNL     1      -3.161  12.897  20.109  0.00  0.00    +0.000 A 
ATOM     12  O   UNL     1      -3.662  13.810  20.753  0.00  0.00    +0.000 OA
ATOM     13  N   UNL     1      -3.712  12.416  18.939  0.00  0.00    +0.000 N 
ATOM     14  C   UNL     1      -3.148  11.396  18.204  0.00  0.00    +0.000 A 
ATOM     15  N   UNL     1      -2.055  10.772  18.508  0.00  0.00    +0.000 NA
ATOM     16  C   UNL     1      -1.475  11.209  19.663  0.00  0.00    +0.000 A 
ATOM     17  H   UNL     1      -4.567  12.860  18.637  0.00  0.00    +0.000 HD
ENDBRANCH   4   7
BRANCH   1  20
ATOM     18  O   UNL     1       1.761   5.055  17.728  0.00  0.00    +0.000 OA
ATOM     19  C   UNL     1       2.897   5.468  17.947  0.00  0.00    +0.000 C 
ATOM     20  N   UNL     1       3.237   6.671  18.543  0.00  0.00    +0.000 N 
ATOM     21  H   UNL     1       4.226   6.848  18.679  0.00  0.00    +0.000 HD
BRANCH  19  22
ATOM     22  C   UNL     1       4.103   4.635  17.554  0.00  0.00    +0.000 C 
BRANCH  22  23
ATOM     23  C   UNL     1       5.407   5.311  17.877  0.00  0.00    +0.000 A 
ATOM     24  C   UNL     1       6.078   5.051  19.080  0.00  0.00    +0.000 A 
ATOM     25  C   UNL     1       7.301   5.670  19.353  0.00  0.00    +0.000 A 
ATOM     26  C   UNL     1       7.858   6.562  18.436  0.00  0.00    +0.000 A 
ATOM     27  C   UNL     1       7.184   6.847  17.249  0.00  0.00    +0.000 A 
ATOM     28  C   UNL     1       5.966   6.229  16.984  0.00  0.00    +0.000 A 
ATOM     29  F   UNL     1       5.320   6.521  15.845  0.00  0.00    +0.000 F 
ENDBRANCH  22  23
ENDBRANCH  19  22
ENDBRANCH   1  20
TORSDOF 4
ENDMDL
MODEL 7
REMARK VINA RESULT:      -8.2      3.168      9.329
REMARK  Name = 
REMARK  4 active torsions:
REMARK  status: ('A' for Active; 'I' for Inactive)
REMARK    1  A    between atoms: C_2  and  C_3
REMARK    2  A    between atoms: C_3  and  C_4
REMARK    3  A    between atoms: N_11  and  C_12
REMARK    4  A    between atoms: C_15  and  N_16
REMARK                            x       y       z     vdW  Elec       q    Type
REMARK                         _______ _______ _______ _____ _____    ______ ____
ROOT
ATOM      1  C   UNL     1       2.383   7.843  18.732  0.00  0.00    +0.000 A 
ATOM      2  C   UNL     1       1.900   7.796  20.039  0.00  0.00    +0.000 A 
ATOM      3  C   UNL     1       1.023   8.781  20.517  0.00  0.00    +0.000 A 
ATOM      4  C   UNL     1       0.610   9.832  19.690  0.00  0.00    +0.000 A 
ATOM      5  C   UNL     1       1.103   9.886  18.382  0.00  0.00    +0.000 A 
ATOM      6  C   UNL     1       1.980   8.900  17.909  0.00  0.00    +0.000 A 
ENDROOT
BRANCH   4   7
ATOM      7  N   UNL     1      -0.295  10.814  20.197  0.00  0.00    +0.000 N 
ATOM      8  N   UNL     1      -0.027  11.446  21.387  0.00  0.00    +0.000 NA
ATOM      9  C   UNL     1      -1.036  12.303  21.561  0.00  0.00    +0.000 A 
ATOM     10  C   UNL     1      -1.963  12.235  20.527  0.00  0.00    +0.000 A 
ATOM     11  C   UNL     1      -3.196  12.906  20.236  0.00  0.00    +0.000 A 
ATOM     12  O   UNL     1      -3.689  13.784  20.933  0.00  0.00    +0.000 OA
ATOM     13  N   UNL     1      -3.785  12.456  19.072  0.00  0.00    +0.000 N 
ATOM     14  C   UNL     1      -3.230  11.477  18.277  0.00  0.00    +0.000 A 
ATOM     15  N   UNL     1      -2.112  10.868  18.512  0.00  0.00    +0.000 NA
ATOM     16  C   UNL     1      -1.495  11.276  19.658  0.00  0.00    +0.000 A 
ATOM     17  H   UNL     1      -4.661  12.891  18.822  0.00  0.00    +0.000 HD
ENDBRANCH   4   7
BRANCH   1  20
ATOM     18  O   UNL     1       1.858   5.059  17.831  0.00  0.00    +0.000 OA
ATOM     19  C   UNL     1       2.958   5.601  17.777  0.00  0.00    +0.000 C 
ATOM     20  N   UNL     1       3.264   6.892  18.176  0.00  0.00    +0.000 N 
ATOM     21  H   UNL     1       4.233   7.177  18.092  0.00  0.00    +0.000 HD
BRANCH  19  22
ATOM     22  C   UNL     1       4.156   4.848  17.228  0.00  0.00    +0.000 C 
BRANCH  22  23
ATOM     23  C   UNL     1       5.467   5.439  17.669  0.00  0.00    +0.000 A 
ATOM     24  C   UNL     1       6.147   6.367  16.866  0.00  0.00    +0.000 A 
ATOM     25  C   UNL     1       7.352   6.925  17.301  0.00  0.00    +0.000 A 
ATOM     26  C   UNL     1       7.895   6.556  18.532  0.00  0.00    +0.000 A 
ATOM     27  C   UNL     1       7.239   5.613  19.325  0.00  0.00    +0.000 A 
ATOM     28  C   UNL     1       6.041   5.060  18.885  0.00  0.00    +0.000 A 
ATOM     29  F   UNL     1       5.425   4.145  19.648  0.00  0.00    +0.000 F 
ENDBRANCH  22  23
ENDBRANCH  19  22
ENDBRANCH   1  20
TORSDOF 4
ENDMDL
MODEL 8
REMARK VINA RESULT:      -8.1      1.731      1.961
REMARK  Name = 
REMARK  4 active torsions:
REMARK  status: ('A' for Active; 'I' for Inactive)
REMARK    1  A    between atoms: C_2  and  C_3
REMARK    2  A    between atoms: C_3  and  C_4
REMARK    3  A    between atoms: N_11  and  C_12
REMARK    4  A    between atoms: C_15  and  N_16
REMARK                            x       y       z     vdW  Elec       q    Type
REMARK                         _______ _______ _______ _____ _____    ______ ____
ROOT
ATOM      1  C   UNL     1       0.886   9.618  19.145  0.00  0.00    +0.000 A 
ATOM      2  C   UNL     1       1.492   9.107  17.998  0.00  0.00    +0.000 A 
ATOM      3  C   UNL     1       2.239   7.921  18.047  0.00  0.00    +0.000 A 
ATOM      4  C   UNL     1       2.389   7.220  19.250  0.00  0.00    +0.000 A 
ATOM      5  C   UNL     1       1.790   7.738  20.403  0.00  0.00    +0.000 A 
ATOM      6  C   UNL     1       1.047   8.925  20.350  0.00  0.00    +0.000 A 
ENDROOT
BRANCH   4   7
ATOM      7  N   UNL     1       3.143   6.007  19.269  0.00  0.00    +0.000 N 
ATOM      8  N   UNL     1       4.228   5.859  18.440  0.00  0.00    +0.000 NA
ATOM      9  C   UNL     1       4.713   4.646  18.715  0.00  0.00    +0.000 A 
ATOM     10  C   UNL     1       3.965   3.993  19.689  0.00  0.00    +0.000 A 
ATOM     11  C   UNL     1       4.042   2.709  20.322  0.00  0.00    +0.000 A 
ATOM     12  O   UNL     1       4.909   1.875  20.097  0.00  0.00    +0.000 OA
ATOM     13  N   UNL     1       3.022   2.502  21.228  0.00  0.00    +0.000 N 
ATOM     14  C   UNL     1       2.049   3.440  21.495  0.00  0.00    +0.000 A 
ATOM     15  N   UNL     1       1.968   4.609  20.946  0.00  0.00    +0.000 NA
ATOM     16  C   UNL     1       2.954   4.859  20.037  0.00  0.00    +0.000 A 
ATOM     17  H   UNL     1       3.023   1.609  21.700  0.00  0.00    +0.000 HD
ENDBRANCH   4   7
BRANCH   1  20
ATOM     18  O   UNL     1      -1.901  10.106  18.234  0.00  0.00    +0.000 OA
ATOM     19  C   UNL     1      -1.182  10.967  18.733  0.00  0.00    +0.000 C 
ATOM     20  N   UNL     1       0.118  10.801  19.178  0.00  0.00    +0.000 N 
ATOM     21  H   UNL     1       0.586  11.625  19.539  0.00  0.00    +0.000 HD
BRANCH  19  22
ATOM     22  C   UNL     1      -1.698  12.383  18.915  0.00  0.00    +0.000 C 
BRANCH  22  23
ATOM     23  C   UNL     1      -2.603  12.524  20.108  0.00  0.00    +0.000 A 
ATOM     24  C   UNL     1      -2.078  12.646  21.402  0.00  0.00    +0.000 A 
ATOM     25  C   UNL     1      -2.933  12.800  22.498  0.00  0.00    +0.000 A 
ATOM     26  C   UNL     1      -4.316  12.821  22.313  0.00  0.00    +0.000 A 
ATOM     27  C   UNL     1      -4.847  12.672  21.032  0.00  0.00    +0.000 A 
ATOM     28  C   UNL     1      -3.991  12.517  19.947  0.00  0.00    +0.000 A 
ATOM     29  F   UNL     1      -4.513  12.362  18.720  0.00  0.00    +0.000 F 
ENDBRANCH  22  23
ENDBRANCH  19  22
ENDBRANCH   1  20
TORSDOF 4
ENDMDL
MODEL 9
REMARK VINA RESULT:      -8.1      1.345      1.363
REMARK  Name = 
REMARK  4 active torsions:
REMARK  status: ('A' for Active; 'I' for Inactive)
REMARK    1  A    between atoms: C_2  and  C_3
REMARK    2  A    between atoms: C_3  and  C_4
REMARK    3  A    between atoms: N_11  and  C_12
REMARK    4  A    between atoms: C_15  and  N_16
REMARK                            x       y       z     vdW  Elec       q    Type
REMARK                         _______ _______ _______ _____ _____    ______ ____
ROOT
ATOM      1  C   UNL     1       0.931   9.621  19.184  0.00  0.00    +0.000 A 
ATOM      2  C   UNL     1       1.551   9.124  18.038  0.00  0.00    +0.000 A 
ATOM      3  C   UNL     1       2.289   7.932  18.080  0.00  0.00    +0.000 A 
ATOM      4  C   UNL     1       2.415   7.211  19.274  0.00  0.00    +0.000 A 
ATOM      5  C   UNL     1       1.802   7.714  20.426  0.00  0.00    +0.000 A 
ATOM      6  C   UNL     1       1.067   8.907  20.380  0.00  0.00    +0.000 A 
ENDROOT
BRANCH   4   7
ATOM      7  N   UNL     1       3.160   5.992  19.284  0.00  0.00    +0.000 N 
ATOM      8  N   UNL     1       4.249   5.844  18.460  0.00  0.00    +0.000 NA
ATOM      9  C   UNL     1       4.724   4.625  18.725  0.00  0.00    +0.000 A 
ATOM     10  C   UNL     1       3.966   3.968  19.689  0.00  0.00    +0.000 A 
ATOM     11  C   UNL     1       4.030   2.678  20.310  0.00  0.00    +0.000 A 
ATOM     12  O   UNL     1       4.892   1.839  20.080  0.00  0.00    +0.000 OA
ATOM     13  N   UNL     1       3.004   2.468  21.208  0.00  0.00    +0.000 N 
ATOM     14  C   UNL     1       2.036   3.411  21.479  0.00  0.00    +0.000 A 
ATOM     15  N   UNL     1       1.966   4.586  20.941  0.00  0.00    +0.000 NA
ATOM     16  C   UNL     1       2.959   4.838  20.040  0.00  0.00    +0.000 A 
ATOM     17  H   UNL     1       2.996   1.571  21.671  0.00  0.00    +0.000 HD
ENDBRANCH   4   7
BRANCH   1  20
ATOM     18  O   UNL     1      -1.900  10.097  18.412  0.00  0.00    +0.000 OA
ATOM     19  C   UNL     1      -1.151  10.969  18.846  0.00  0.00    +0.000 C 
ATOM     20  N   UNL     1       0.171  10.808  19.225  0.00  0.00    +0.000 N 
ATOM     21  H   UNL     1       0.660  11.640  19.535  0.00  0.00    +0.000 HD
BRANCH  19  22
ATOM     22  C   UNL     1      -1.651  12.392  19.014  0.00  0.00    +0.000 C 
BRANCH  22  23
ATOM     23  C   UNL     1      -2.631  12.535  20.147  0.00  0.00    +0.000 A 
ATOM     24  C   UNL     1      -4.010  12.604  19.905  0.00  0.00    +0.000 A 
ATOM     25  C   UNL     1      -4.908  12.712  20.970  0.00  0.00    +0.000 A 
ATOM     26  C   UNL     1      -4.439  12.764  22.283  0.00  0.00    +0.000 A 
ATOM     27  C   UNL     1      -3.067  12.723  22.531  0.00  0.00    +0.000 A 
ATOM     28  C   UNL     1      -2.178  12.617  21.466  0.00  0.00    +0.000 A 
ATOM     29  F   UNL     1      -0.860  12.592  21.715  0.00  0.00    +0.000 F 
ENDBRANCH  22  23
ENDBRANCH  19  22
ENDBRANCH   1  20
TORSDOF 4
ENDMDL
