MODEL 1
REMARK VINA RESULT:      -9.0      0.000      0.000
REMARK  Name = 
REMARK  4 active torsions:
REMARK  status: ('A' for Active; 'I' for Inactive)
REMARK    1  A    between atoms: C_1  and  C_2
REMARK    2  A    between atoms: C_7  and  C_9
REMARK    3  A    between atoms: C_13  and  S_14
REMARK    4  A    between atoms: S_14  and  N_17
REMARK                            x       y       z     vdW  Elec       q    Type
REMARK                         _______ _______ _______ _____ _____    ______ ____
ROOT
ATOM      1  C   UNL     1       7.944   7.930  18.068  0.00  0.00    +0.000 A 
ATOM      2  C   UNL     1       8.448   7.165  19.130  0.00  0.00    +0.000 A 
ATOM      3  C   UNL     1       8.116   5.816  19.257  0.00  0.00    +0.000 A 
ATOM      4  C   UNL     1       7.240   5.232  18.344  0.00  0.00    +0.000 A 
ATOM      5  C   UNL     1       6.716   5.999  17.296  0.00  0.00    +0.000 A 
ATOM      6  C   UNL     1       7.091   7.334  17.132  0.00  0.00    +0.000 A 
ENDROOT
BRANCH   1  13
ATOM      7  C   UNL     1      12.182  13.987  19.537  0.00  0.00    +0.000 C 
ATOM      8  C   UNL     1      11.108  13.035  19.178  0.00  0.00    +0.000 A 
ATOM      9  C   UNL     1      10.047  13.222  18.318  0.00  0.00    +0.000 A 
ATOM     10  N   UNL     1       9.233  12.125  18.128  0.00  0.00    +0.000 NA
ATOM     11  C   UNL     1       9.681  11.117  18.845  0.00  0.00    +0.000 A 
ATOM     12  N   UNL     1       9.220   9.831  18.895  0.00  0.00    +0.000 N 
ATOM     13  C   UNL     1       8.235   9.397  18.049  0.00  0.00    +0.000 C 
ATOM     14  O   UNL     1       7.588  10.073  17.256  0.00  0.00    +0.000 OA
ATOM     15  S   UNL     1      11.054  11.439  19.809  0.00  0.00    +0.000 S 
ATOM     16  H   UNL     1       9.679   9.230  19.558  0.00  0.00    +0.000 HD
ENDBRANCH   1  13
BRANCH   5  17
ATOM     17  S   UNL     1       5.530   5.240  16.208  0.00  0.00    +0.000 S 
ATOM     18  O   UNL     1       5.357   6.168  15.109  0.00  0.00    +0.000 OA
ATOM     19  O   UNL     1       5.972   3.883  15.986  0.00  0.00    +0.000 OA
BRANCH  17  20
ATOM     20  N   UNL     1       4.087   5.175  17.047  0.00  0.00    +0.000 N 
ATOM     21  C   UNL     1       3.621   6.297  17.905  0.00  0.00    +0.000 C 
ATOM     22  C   UNL     1       2.148   5.941  18.115  0.00  0.00    +0.000 C 
ATOM     23  C   UNL     1       2.335   4.464  18.313  0.00  0.00    +0.000 A 
ATOM     24  C   UNL     1       1.727   3.640  19.236  0.00  0.00    +0.000 A 
ATOM     25  C   UNL     1       2.171   2.323  19.310  0.00  0.00    +0.000 A 
ATOM     26  C   UNL     1       3.131   1.834  18.403  0.00  0.00    +0.000 A 
ATOM     27  C   UNL     1       3.754   2.683  17.477  0.00  0.00    +0.000 A 
ATOM     28  C   UNL     1       3.406   4.014  17.519  0.00  0.00    +0.000 A 
ENDBRANCH  17  20
ENDBRANCH   5  17
TORSDOF 3
ENDMDL
MODEL 2
REMARK VINA RESULT:      -8.7      0.929      1.815
REMARK  Name = 
REMARK  4 active torsions:
REMARK  status: ('A' for Active; 'I' for Inactive)
REMARK    1  A    between atoms: C_1  and  C_2
REMARK    2  A    between atoms: C_7  and  C_9
REMARK    3  A    between atoms: C_13  and  S_14
REMARK    4  A    between atoms: S_14  and  N_17
REMARK                            x       y       z     vdW  Elec       q    Type
REMARK                         _______ _______ _______ _____ _____    ______ ____
ROOT
ATOM      1  C   UNL     1       7.793   7.550  18.101  0.00  0.00    +0.000 A 
ATOM      2  C   UNL     1       8.441   6.870  19.143  0.00  0.00    +0.000 A 
ATOM      3  C   UNL     1       8.171   5.524  19.390  0.00  0.00    +0.000 A 
ATOM      4  C   UNL     1       7.217   4.859  18.623  0.00  0.00    +0.000 A 
ATOM      5  C   UNL     1       6.551   5.541  17.598  0.00  0.00    +0.000 A 
ATOM      6  C   UNL     1       6.860   6.872  17.309  0.00  0.00    +0.000 A 
ENDROOT
BRANCH   1  13
ATOM      7  C   UNL     1      11.701  13.896  19.226  0.00  0.00    +0.000 C 
ATOM      8  C   UNL     1      10.688  12.869  18.898  0.00  0.00    +0.000 A 
ATOM      9  C   UNL     1       9.677  12.928  17.962  0.00  0.00    +0.000 A 
ATOM     10  N   UNL     1       8.918  11.784  17.831  0.00  0.00    +0.000 NA
ATOM     11  C   UNL     1       9.357  10.868  18.668  0.00  0.00    +0.000 A 
ATOM     12  N   UNL     1       8.942   9.574  18.814  0.00  0.00    +0.000 N 
ATOM     13  C   UNL     1       8.029   9.020  17.957  0.00  0.00    +0.000 C 
ATOM     14  O   UNL     1       7.409   9.589  17.065  0.00  0.00    +0.000 OA
ATOM     15  S   UNL     1      10.653  11.339  19.677  0.00  0.00    +0.000 S 
ATOM     16  H   UNL     1       9.380   9.059  19.559  0.00  0.00    +0.000 HD
ENDBRANCH   1  13
BRANCH   5  17
ATOM     17  S   UNL     1       5.274   4.681  16.705  0.00  0.00    +0.000 S 
ATOM     18  O   UNL     1       4.446   5.713  16.116  0.00  0.00    +0.000 OA
ATOM     19  O   UNL     1       5.931   3.685  15.889  0.00  0.00    +0.000 OA
BRANCH  17  20
ATOM     20  N   UNL     1       4.352   3.880  17.844  0.00  0.00    +0.000 N 
ATOM     21  C   UNL     1       3.714   2.567  17.562  0.00  0.00    +0.000 C 
ATOM     22  C   UNL     1       3.344   2.089  18.968  0.00  0.00    +0.000 C 
ATOM     23  C   UNL     1       2.862   3.409  19.497  0.00  0.00    +0.000 A 
ATOM     24  C   UNL     1       1.754   3.665  20.277  0.00  0.00    +0.000 A 
ATOM     25  C   UNL     1       1.441   4.997  20.528  0.00  0.00    +0.000 A 
ATOM     26  C   UNL     1       2.287   6.033  20.085  0.00  0.00    +0.000 A 
ATOM     27  C   UNL     1       3.403   5.764  19.280  0.00  0.00    +0.000 A 
ATOM     28  C   UNL     1       3.612   4.451  18.922  0.00  0.00    +0.000 A 
ENDBRANCH  17  20
ENDBRANCH   5  17
TORSDOF 3
ENDMDL
MODEL 3
REMARK VINA RESULT:      -8.5      5.250      7.803
REMARK  Name = 
REMARK  4 active torsions:
REMARK  status: ('A' for Active; 'I' for Inactive)
REMARK    1  A    between atoms: C_1  and  C_2
REMARK    2  A    between atoms: C_7  and  C_9
REMARK    3  A    between atoms: C_13  and  S_14
REMARK    4  A    between atoms: S_14  and  N_17
REMARK                            x       y       z     vdW  Elec       q    Type
REMARK                         _______ _______ _______ _____ _____    ______ ____
ROOT
ATOM      1  C   UNL     1       1.652   8.225  19.760  0.00  0.00    +0.000 A 
ATOM      2  C   UNL     1       1.964   8.909  18.575  0.00  0.00    +0.000 A 
ATOM      3  C   UNL     1       2.669   8.274  17.552  0.00  0.00    +0.000 A 
ATOM      4  C   UNL     1       3.104   6.961  17.724  0.00  0.00    +0.000 A 
ATOM      5  C   UNL     1       2.814   6.284  18.915  0.00  0.00    +0.000 A 
ATOM      6  C   UNL     1       2.059   6.896  19.918  0.00  0.00    +0.000 A 
ENDROOT
BRANCH   1  13
ATOM      7  C   UNL     1      -3.249  13.233  22.538  0.00  0.00    +0.000 C 
ATOM      8  C   UNL     1      -2.153  12.264  22.311  0.00  0.00    +0.000 A 
ATOM      9  C   UNL     1      -1.535  11.437  23.226  0.00  0.00    +0.000 A 
ATOM     10  N   UNL     1      -0.580  10.587  22.710  0.00  0.00    +0.000 NA
ATOM     11  C   UNL     1      -0.479  10.776  21.412  0.00  0.00    +0.000 A 
ATOM     12  N   UNL     1       0.288  10.098  20.506  0.00  0.00    +0.000 N 
ATOM     13  C   UNL     1       1.002   8.988  20.870  0.00  0.00    +0.000 C 
ATOM     14  O   UNL     1       1.142   8.535  22.000  0.00  0.00    +0.000 OA
ATOM     15  S   UNL     1      -1.476  11.999  20.756  0.00  0.00    +0.000 S 
ATOM     16  H   UNL     1       0.254  10.445  19.562  0.00  0.00    +0.000 HD
ENDBRANCH   1  13
BRANCH   5  17
ATOM     17  S   UNL     1       3.468   4.643  19.131  0.00  0.00    +0.000 S 
ATOM     18  O   UNL     1       3.529   4.432  20.563  0.00  0.00    +0.000 OA
ATOM     19  O   UNL     1       2.701   3.769  18.272  0.00  0.00    +0.000 OA
BRANCH  17  20
ATOM     20  N   UNL     1       5.036   4.675  18.557  0.00  0.00    +0.000 N 
ATOM     21  C   UNL     1       6.082   5.539  19.165  0.00  0.00    +0.000 C 
ATOM     22  C   UNL     1       7.363   4.940  18.581  0.00  0.00    +0.000 C 
ATOM     23  C   UNL     1       6.851   4.719  17.186  0.00  0.00    +0.000 A 
ATOM     24  C   UNL     1       7.496   4.955  15.991  0.00  0.00    +0.000 A 
ATOM     25  C   UNL     1       6.757   4.797  14.822  0.00  0.00    +0.000 A 
ATOM     26  C   UNL     1       5.434   4.314  14.865  0.00  0.00    +0.000 A 
ATOM     27  C   UNL     1       4.782   4.092  16.086  0.00  0.00    +0.000 A 
ATOM     28  C   UNL     1       5.484   4.394  17.232  0.00  0.00    +0.000 A 
ENDBRANCH  17  20
ENDBRANCH   5  17
TORSDOF 3
ENDMDL
MODEL 4
REMARK VINA RESULT:      -8.3      6.921     10.046
REMARK  Name = 
REMARK  4 active torsions:
REMARK  status: ('A' for Active; 'I' for Inactive)
REMARK    1  A    between atoms: C_1  and  C_2
REMARK    2  A    between atoms: C_7  and  C_9
REMARK    3  A    between atoms: C_13  and  S_14
REMARK    4  A    between atoms: S_14  and  N_17
REMARK                            x       y       z     vdW  Elec       q    Type
REMARK                         _______ _______ _______ _____ _____    ______ ____
ROOT
ATOM      1  C   UNL     1       0.677   9.233  20.933  0.00  0.00    +0.000 A 
ATOM      2  C   UNL     1       0.530   8.841  22.272  0.00  0.00    +0.000 A 
ATOM      3  C   UNL     1      -0.167   9.643  23.175  0.00  0.00    +0.000 A 
ATOM      4  C   UNL     1      -0.686  10.867  22.755  0.00  0.00    +0.000 A 
ATOM      5  C   UNL     1      -0.520  11.272  21.425  0.00  0.00    +0.000 A 
ATOM      6  C   UNL     1       0.127  10.445  20.503  0.00  0.00    +0.000 A 
ENDROOT
BRANCH   1  13
ATOM      7  C   UNL     1       3.726   2.721  18.672  0.00  0.00    +0.000 C 
ATOM      8  C   UNL     1       3.358   4.136  18.898  0.00  0.00    +0.000 A 
ATOM      9  C   UNL     1       3.476   5.203  18.032  0.00  0.00    +0.000 A 
ATOM     10  N   UNL     1       2.989   6.406  18.498  0.00  0.00    +0.000 NA
ATOM     11  C   UNL     1       2.508   6.244  19.712  0.00  0.00    +0.000 A 
ATOM     12  N   UNL     1       1.868   7.153  20.507  0.00  0.00    +0.000 N 
ATOM     13  C   UNL     1       1.536   8.396  20.038  0.00  0.00    +0.000 C 
ATOM     14  O   UNL     1       1.837   8.884  18.955  0.00  0.00    +0.000 OA
ATOM     15  S   UNL     1       2.656   4.673  20.369  0.00  0.00    +0.000 S 
ATOM     16  H   UNL     1       1.629   6.831  21.429  0.00  0.00    +0.000 HD
ENDBRANCH   1  13
BRANCH   5  17
ATOM     17  S   UNL     1      -1.116  12.881  20.954  0.00  0.00    +0.000 S 
ATOM     18  O   UNL     1      -1.418  13.565  22.194  0.00  0.00    +0.000 OA
ATOM     19  O   UNL     1      -0.165  13.419  20.007  0.00  0.00    +0.000 OA
BRANCH  17  20
ATOM     20  N   UNL     1      -2.558  12.637  20.146  0.00  0.00    +0.000 N 
ATOM     21  C   UNL     1      -3.854  12.517  20.864  0.00  0.00    +0.000 C 
ATOM     22  C   UNL     1      -4.861  12.702  19.726  0.00  0.00    +0.000 C 
ATOM     23  C   UNL     1      -4.140  11.879  18.698  0.00  0.00    +0.000 A 
ATOM     24  C   UNL     1      -4.668  10.975  17.801  0.00  0.00    +0.000 A 
ATOM     25  C   UNL     1      -3.773  10.233  17.036  0.00  0.00    +0.000 A 
ATOM     26  C   UNL     1      -2.387  10.478  17.108  0.00  0.00    +0.000 A 
ATOM     27  C   UNL     1      -1.859  11.390  18.033  0.00  0.00    +0.000 A 
ATOM     28  C   UNL     1      -2.751  12.006  18.881  0.00  0.00    +0.000 A 
ENDBRANCH  17  20
ENDBRANCH   5  17
TORSDOF 3
ENDMDL
MODEL 5
REMARK VINA RESULT:      -8.2      2.474      3.796
REMARK  Name = 
REMARK  4 active torsions:
REMARK  status: ('A' for Active; 'I' for Inactive)
REMARK    1  A    between atoms: C_1  and  C_2
REMARK    2  A    between atoms: C_7  and  C_9
REMARK    3  A    between atoms: C_13  and  S_14
REMARK    4  A    between atoms: S_14  and  N_17
REMARK                            x       y       z     vdW  Elec       q    Type
REMARK                         _______ _______ _______ _____ _____    ______ ____
ROOT
ATOM      1  C   UNL     1       6.623   6.485  17.346  0.00  0.00    +0.000 A 
ATOM      2  C   UNL     1       6.929   5.913  16.102  0.00  0.00    +0.000 A 
ATOM      3  C   UNL     1       6.073   4.980  15.517  0.00  0.00    +0.000 A 
ATOM      4  C   UNL     1       4.923   4.579  16.194  0.00  0.00    +0.000 A 
ATOM      5  C   UNL     1       4.626   5.130  17.447  0.00  0.00    +0.000 A 
ATOM      6  C   UNL     1       5.450   6.107  18.009  0.00  0.00    +0.000 A 
ENDROOT
BRANCH   1  13
ATOM      7  C   UNL     1       9.539  13.231  19.018  0.00  0.00    +0.000 C 
ATOM      8  C   UNL     1       9.269  11.791  18.811  0.00  0.00    +0.000 A 
ATOM      9  C   UNL     1       9.776  10.713  19.506  0.00  0.00    +0.000 A 
ATOM     10  N   UNL     1       9.292   9.478  19.128  0.00  0.00    +0.000 NA
ATOM     11  C   UNL     1       8.426   9.628  18.148  0.00  0.00    +0.000 A 
ATOM     12  N   UNL     1       7.661   8.679  17.531  0.00  0.00    +0.000 N 
ATOM     13  C   UNL     1       7.633   7.386  17.982  0.00  0.00    +0.000 C 
ATOM     14  O   UNL     1       8.322   6.896  18.869  0.00  0.00    +0.000 OA
ATOM     15  S   UNL     1       8.184  11.230  17.605  0.00  0.00    +0.000 S 
ATOM     16  H   UNL     1       7.101   9.005  16.762  0.00  0.00    +0.000 HD
ENDBRANCH   1  13
BRANCH   5  17
ATOM     17  S   UNL     1       3.198   4.522  18.317  0.00  0.00    +0.000 S 
ATOM     18  O   UNL     1       2.186   4.303  17.305  0.00  0.00    +0.000 OA
ATOM     19  O   UNL     1       3.654   3.449  19.172  0.00  0.00    +0.000 OA
BRANCH  17  20
ATOM     20  N   UNL     1       2.672   5.768  19.298  0.00  0.00    +0.000 N 
ATOM     21  C   UNL     1       1.807   5.528  20.483  0.00  0.00    +0.000 C 
ATOM     22  C   UNL     1       1.931   6.854  21.236  0.00  0.00    +0.000 C 
ATOM     23  C   UNL     1       1.862   7.760  20.040  0.00  0.00    +0.000 A 
ATOM     24  C   UNL     1       1.172   8.946  19.904  0.00  0.00    +0.000 A 
ATOM     25  C   UNL     1       1.155   9.536  18.643  0.00  0.00    +0.000 A 
ATOM     26  C   UNL     1       1.903   8.989  17.581  0.00  0.00    +0.000 A 
ATOM     27  C   UNL     1       2.590   7.776  17.726  0.00  0.00    +0.000 A 
ATOM     28  C   UNL     1       2.473   7.134  18.939  0.00  0.00    +0.000 A 
ENDBRANCH  17  20
ENDBRANCH   5  17
TORSDOF 3
ENDMDL
MODEL 6
REMARK VINA RESULT:      -8.2      7.172     10.412
REMARK  Name = 
REMARK  4 active torsions:
REMARK  status: ('A' for Active; 'I' for Inactive)
REMARK    1  A    between atoms: C_1  and  C_2
REMARK    2  A    between atoms: C_7  and  C_9
REMARK    3  A    between atoms: C_13  and  S_14
REMARK    4  A    between atoms: S_14  and  N_17
REMARK                            x       y       z     vdW  Elec       q    Type
REMARK                         _______ _______ _______ _____ _____    ______ ____
ROOT
ATOM      1  C   UNL     1       0.594   9.000  21.092  0.00  0.00    +0.000 A 
ATOM      2  C   UNL     1       0.590   8.872  22.489  0.00  0.00    +0.000 A 
ATOM      3  C   UNL     1      -0.127   9.767  23.283  0.00  0.00    +0.000 A 
ATOM      4  C   UNL     1      -0.811  10.825  22.686  0.00  0.00    +0.000 A 
ATOM      5  C   UNL     1      -0.789  10.969  21.294  0.00  0.00    +0.000 A 
ATOM      6  C   UNL     1      -0.121  10.042  20.491  0.00  0.00    +0.000 A 
ENDROOT
BRANCH   1  13
ATOM      7  C   UNL     1       3.375   2.248  19.221  0.00  0.00    +0.000 C 
ATOM      8  C   UNL     1       3.090   3.690  19.393  0.00  0.00    +0.000 A 
ATOM      9  C   UNL     1       3.372   4.730  18.533  0.00  0.00    +0.000 A 
ATOM     10  N   UNL     1       2.929   5.973  18.934  0.00  0.00    +0.000 NA
ATOM     11  C   UNL     1       2.317   5.867  20.095  0.00  0.00    +0.000 A 
ATOM     12  N   UNL     1       1.669   6.833  20.811  0.00  0.00    +0.000 N 
ATOM     13  C   UNL     1       1.476   8.088  20.298  0.00  0.00    +0.000 C 
ATOM     14  O   UNL     1       1.919   8.535  19.246  0.00  0.00    +0.000 OA
ATOM     15  S   UNL     1       2.284   4.302  20.780  0.00  0.00    +0.000 S 
ATOM     16  H   UNL     1       1.315   6.545  21.708  0.00  0.00    +0.000 HD
ENDBRANCH   1  13
BRANCH   5  17
ATOM     17  S   UNL     1      -1.597  12.385  20.581  0.00  0.00    +0.000 S 
ATOM     18  O   UNL     1      -2.663  12.732  21.498  0.00  0.00    +0.000 OA
ATOM     19  O   UNL     1      -0.559  13.332  20.238  0.00  0.00    +0.000 OA
BRANCH  17  20
ATOM     20  N   UNL     1      -2.302  11.865  19.159  0.00  0.00    +0.000 N 
ATOM     21  C   UNL     1      -1.584  11.912  17.858  0.00  0.00    +0.000 C 
ATOM     22  C   UNL     1      -2.453  11.003  16.986  0.00  0.00    +0.000 C 
ATOM     23  C   UNL     1      -3.787  11.487  17.477  0.00  0.00    +0.000 A 
ATOM     24  C   UNL     1      -4.923  11.755  16.743  0.00  0.00    +0.000 A 
ATOM     25  C   UNL     1      -6.000  12.326  17.415  0.00  0.00    +0.000 A 
ATOM     26  C   UNL     1      -5.958  12.523  18.810  0.00  0.00    +0.000 A 
ATOM     27  C   UNL     1      -4.793  12.261  19.544  0.00  0.00    +0.000 A 
ATOM     28  C   UNL     1      -3.692  11.834  18.837  0.00  0.00    +0.000 A 
ENDBRANCH  17  20
ENDBRANCH   5  17
TORSDOF 3
ENDMDL
MODEL 7
REMARK VINA RESULT:      -8.1      5.641      8.093
REMARK  Name = 
REMARK  4 active torsions:
REMARK  status: ('A' for Active; 'I' for Inactive)
REMARK    1  A    between atoms: C_1  and  C_2
REMARK    2  A    between atoms: C_7  and  C_9
REMARK    3  A    between atoms: C_13  and  S_14
REMARK    4  A    between atoms: S_14  and  N_17
REMARK                            x       y       z     vdW  Elec       q    Type
REMARK                         _______ _______ _______ _____ _____    ______ ____
ROOT
ATOM      1  C   UNL     1       1.233   8.829  19.920  0.00  0.00    +0.000 A 
ATOM      2  C   UNL     1       1.644   9.530  18.776  0.00  0.00    +0.000 A 
ATOM      3  C   UNL     1       2.301   8.873  17.737  0.00  0.00    +0.000 A 
ATOM      4  C   UNL     1       2.592   7.515  17.852  0.00  0.00    +0.000 A 
ATOM      5  C   UNL     1       2.204   6.817  19.003  0.00  0.00    +0.000 A 
ATOM      6  C   UNL     1       1.494   7.458  20.020  0.00  0.00    +0.000 A 
ENDROOT
BRANCH   1  13
ATOM      7  C   UNL     1      -3.698  13.666  22.938  0.00  0.00    +0.000 C 
ATOM      8  C   UNL     1      -2.569  12.753  22.650  0.00  0.00    +0.000 A 
ATOM      9  C   UNL     1      -1.819  12.008  23.535  0.00  0.00    +0.000 A 
ATOM     10  N   UNL     1      -0.863  11.192  22.967  0.00  0.00    +0.000 NA
ATOM     11  C   UNL     1      -0.894  11.325  21.658  0.00  0.00    +0.000 A 
ATOM     12  N   UNL     1      -0.173  10.652  20.713  0.00  0.00    +0.000 N 
ATOM     13  C   UNL     1       0.641   9.605  21.054  0.00  0.00    +0.000 C 
ATOM     14  O   UNL     1       0.912   9.214  22.184  0.00  0.00    +0.000 OA
ATOM     15  S   UNL     1      -2.022  12.456  21.050  0.00  0.00    +0.000 S 
ATOM     16  H   UNL     1      -0.315  10.952  19.763  0.00  0.00    +0.000 HD
ENDBRANCH   1  13
BRANCH   5  17
ATOM     17  S   UNL     1       2.676   5.108  19.151  0.00  0.00    +0.000 S 
ATOM     18  O   UNL     1       3.257   4.975  20.471  0.00  0.00    +0.000 OA
ATOM     19  O   UNL     1       1.533   4.321  18.748  0.00  0.00    +0.000 OA
BRANCH  17  20
ATOM     20  N   UNL     1       3.892   4.851  18.035  0.00  0.00    +0.000 N 
ATOM     21  C   UNL     1       3.837   3.738  17.050  0.00  0.00    +0.000 C 
ATOM     22  C   UNL     1       4.918   4.151  16.049  0.00  0.00    +0.000 C 
ATOM     23  C   UNL     1       5.930   4.632  17.048  0.00  0.00    +0.000 A 
ATOM     24  C   UNL     1       7.293   4.426  17.052  0.00  0.00    +0.000 A 
ATOM     25  C   UNL     1       8.004   4.861  18.167  0.00  0.00    +0.000 A 
ATOM     26  C   UNL     1       7.362   5.575  19.198  0.00  0.00    +0.000 A 
ATOM     27  C   UNL     1       5.973   5.767  19.192  0.00  0.00    +0.000 A 
ATOM     28  C   UNL     1       5.270   5.201  18.152  0.00  0.00    +0.000 A 
ENDBRANCH  17  20
ENDBRANCH   5  17
TORSDOF 3
ENDMDL
MODEL 8
REMARK VINA RESULT:      -8.0      4.748      7.237
REMARK  Name = 
REMARK  4 active torsions:
REMARK  status: ('A' for Active; 'I' for Inactive)
REMARK    1  A    between atoms: C_1  and  C_2
REMARK    2  A    between atoms: C_7  and  C_9
REMARK    3  A    between atoms: C_13  and  S_14
REMARK    4  A    between atoms: S_14  and  N_17
REMARK                            x       y       z     vdW  Elec       q    Type
REMARK                         _______ _______ _______ _____ _____    ______ ____
ROOT
ATOM      1  C   UNL     1       1.897   6.176  20.091  0.00  0.00    +0.000 A 
ATOM      2  C   UNL     1       1.494   5.409  21.195  0.00  0.00    +0.000 A 
ATOM      3  C   UNL     1       1.737   4.036  21.233  0.00  0.00    +0.000 A 
ATOM      4  C   UNL     1       2.347   3.411  20.147  0.00  0.00    +0.000 A 
ATOM      5  C   UNL     1       2.729   4.170  19.034  0.00  0.00    +0.000 A 
ATOM      6  C   UNL     1       2.540   5.554  19.016  0.00  0.00    +0.000 A 
ENDROOT
BRANCH   1  13
ATOM      7  C   UNL     1      -1.003  12.469  23.059  0.00  0.00    +0.000 C 
ATOM      8  C   UNL     1      -0.451  11.413  22.181  0.00  0.00    +0.000 A 
ATOM      9  C   UNL     1       0.245  11.555  20.999  0.00  0.00    +0.000 A 
ATOM     10  N   UNL     1       0.695  10.384  20.427  0.00  0.00    +0.000 NA
ATOM     11  C   UNL     1       0.335   9.363  21.176  0.00  0.00    +0.000 A 
ATOM     12  N   UNL     1       0.634   8.039  21.019  0.00  0.00    +0.000 N 
ATOM     13  C   UNL     1       1.504   7.619  20.049  0.00  0.00    +0.000 C 
ATOM     14  O   UNL     1       2.020   8.301  19.170  0.00  0.00    +0.000 OA
ATOM     15  S   UNL     1      -0.590   9.745  22.562  0.00  0.00    +0.000 S 
ATOM     16  H   UNL     1       0.207   7.416  21.682  0.00  0.00    +0.000 HD
ENDBRANCH   1  13
BRANCH   5  17
ATOM     17  S   UNL     1       3.419   3.321  17.631  0.00  0.00    +0.000 S 
ATOM     18  O   UNL     1       4.130   2.181  18.174  0.00  0.00    +0.000 OA
ATOM     19  O   UNL     1       2.349   3.155  16.673  0.00  0.00    +0.000 OA
BRANCH  17  20
ATOM     20  N   UNL     1       4.550   4.350  16.960  0.00  0.00    +0.000 N 
ATOM     21  C   UNL     1       5.092   4.143  15.590  0.00  0.00    +0.000 C 
ATOM     22  C   UNL     1       5.745   5.497  15.304  0.00  0.00    +0.000 C 
ATOM     23  C   UNL     1       6.351   5.707  16.661  0.00  0.00    +0.000 A 
ATOM     24  C   UNL     1       7.604   6.191  16.973  0.00  0.00    +0.000 A 
ATOM     25  C   UNL     1       7.986   6.165  18.311  0.00  0.00    +0.000 A 
ATOM     26  C   UNL     1       7.082   5.757  19.311  0.00  0.00    +0.000 A 
ATOM     27  C   UNL     1       5.815   5.253  18.983  0.00  0.00    +0.000 A 
ATOM     28  C   UNL     1       5.513   5.150  17.644  0.00  0.00    +0.000 A 
ENDBRANCH  17  20
ENDBRANCH   5  17
TORSDOF 3
ENDMDL
MODEL 9
REMARK VINA RESULT:      -8.0      5.136      6.680
REMARK  Name = 
REMARK  4 active torsions:
REMARK  status: ('A' for Active; 'I' for Inactive)
REMARK    1  A    between atoms: C_1  and  C_2
REMARK    2  A    between atoms: C_7  and  C_9
REMARK    3  A    between atoms: C_13  and  S_14
REMARK    4  A    between atoms: S_14  and  N_17
REMARK                            x       y       z     vdW  Elec       q    Type
REMARK                         _______ _______ _______ _____ _____    ______ ____
ROOT
ATOM      1  C   UNL     1       2.251   6.827  19.426  0.00  0.00    +0.000 A 
ATOM      2  C   UNL     1       1.749   6.416  20.669  0.00  0.00    +0.000 A 
ATOM      3  C   UNL     1       1.890   5.093  21.091  0.00  0.00    +0.000 A 
ATOM      4  C   UNL     1       2.497   4.162  20.251  0.00  0.00    +0.000 A 
ATOM      5  C   UNL     1       2.977   4.564  18.999  0.00  0.00    +0.000 A 
ATOM      6  C   UNL     1       2.890   5.899  18.597  0.00  0.00    +0.000 A 
ENDROOT
BRANCH   1  13
ATOM      7  C   UNL     1       0.137  13.978  20.527  0.00  0.00    +0.000 C 
ATOM      8  C   UNL     1       0.520  12.659  19.977  0.00  0.00    +0.000 A 
ATOM      9  C   UNL     1       1.106  12.372  18.763  0.00  0.00    +0.000 A 
ATOM     10  N   UNL     1       1.408  11.044  18.545  0.00  0.00    +0.000 NA
ATOM     11  C   UNL     1       1.047  10.335  19.593  0.00  0.00    +0.000 A 
ATOM     12  N   UNL     1       1.228   9.000  19.826  0.00  0.00    +0.000 N 
ATOM     13  C   UNL     1       1.966   8.225  18.972  0.00  0.00    +0.000 C 
ATOM     14  O   UNL     1       2.444   8.558  17.894  0.00  0.00    +0.000 OA
ATOM     15  S   UNL     1       0.293  11.202  20.858  0.00  0.00    +0.000 S 
ATOM     16  H   UNL     1       0.822   8.649  20.677  0.00  0.00    +0.000 HD
ENDBRANCH   1  13
BRANCH   5  17
ATOM     17  S   UNL     1       3.661   3.325  17.920  0.00  0.00    +0.000 S 
ATOM     18  O   UNL     1       3.810   2.136  18.734  0.00  0.00    +0.000 OA
ATOM     19  O   UNL     1       2.853   3.321  16.722  0.00  0.00    +0.000 OA
BRANCH  17  20
ATOM     20  N   UNL     1       5.191   3.848  17.503  0.00  0.00    +0.000 N 
ATOM     21  C   UNL     1       5.927   4.860  18.307  0.00  0.00    +0.000 C 
ATOM     22  C   UNL     1       7.353   4.707  17.776  0.00  0.00    +0.000 C 
ATOM     23  C   UNL     1       7.001   4.561  16.323  0.00  0.00    +0.000 A 
ATOM     24  C   UNL     1       7.625   5.125  15.231  0.00  0.00    +0.000 A 
ATOM     25  C   UNL     1       7.024   4.947  13.987  0.00  0.00    +0.000 A 
ATOM     26  C   UNL     1       5.882   4.135  13.848  0.00  0.00    +0.000 A 
ATOM     27  C   UNL     1       5.247   3.577  14.967  0.00  0.00    +0.000 A 
ATOM     28  C   UNL     1       5.773   3.886  16.201  0.00  0.00    +0.000 A 
ENDBRANCH  17  20
ENDBRANCH   5  17
TORSDOF 3
ENDMDL
