MODEL 1
REMARK VINA RESULT:      -8.8      0.000      0.000
REMARK  Name = 
REMARK  4 active torsions:
REMARK  status: ('A' for Active; 'I' for Inactive)
REMARK    1  A    between atoms: C_1  and  N_2
REMARK    2  A    between atoms: C_6  and  C_7
REMARK    3  A    between atoms: C_11  and  N_12
REMARK    4  A    between atoms: C_13  and  C_15
REMARK                            x       y       z     vdW  Elec       q    Type
REMARK                         _______ _______ _______ _____ _____    ______ ____
ROOT
ATOM      1  N   UNL     1       1.754   6.678  20.816  0.00  0.00    +0.000 N 
ATOM      2  C   UNL     1       1.654   7.944  20.269  0.00  0.00    +0.000 C 
ATOM      3  O   UNL     1       2.029   8.257  19.142  0.00  0.00    +0.000 OA
ATOM      4  H   UNL     1       1.232   6.510  21.664  0.00  0.00    +0.000 HD
ENDROOT
BRANCH   2   5
ATOM      5  C   UNL     1       0.975   8.927  21.099  0.00  0.00    +0.000 A 
ATOM      6  C   UNL     1       1.021   9.174  22.489  0.00  0.00    +0.000 A 
ATOM      7  N   UNL     1       0.278  10.223  22.856  0.00  0.00    +0.000 NA
ATOM      8  N   UNL     1      -0.218  10.678  21.692  0.00  0.00    +0.000 N 
ATOM      9  C   UNL     1       0.124   9.909  20.618  0.00  0.00    +0.000 A 
ATOM     10  C   UNL     1      -0.363  10.217  19.241  0.00  0.00    +0.000 C 
ATOM     11  C   UNL     1      -1.560  11.169  19.265  0.00  0.00    +0.000 C 
ATOM     12  C   UNL     1      -1.294  12.342  20.210  0.00  0.00    +0.000 C 
ATOM     13  C   UNL     1      -1.078  11.847  21.644  0.00  0.00    +0.000 C 
ENDBRANCH   2   5
BRANCH   1  18
ATOM     14  C   UNL     1       4.194   4.553  18.985  0.00  0.00    +0.000 A 
ATOM     15  C   UNL     1       3.504   3.333  18.945  0.00  0.00    +0.000 A 
ATOM     16  C   UNL     1       2.214   3.225  19.457  0.00  0.00    +0.000 A 
ATOM     17  C   UNL     1       1.604   4.332  20.043  0.00  0.00    +0.000 A 
ATOM     18  C   UNL     1       2.285   5.547  20.150  0.00  0.00    +0.000 A 
ATOM     19  C   UNL     1       3.571   5.653  19.599  0.00  0.00    +0.000 A 
BRANCH  14  25
ATOM     20  C   UNL     1       5.119   4.409  15.938  0.00  0.00    +0.000 C 
ATOM     21  N   UNL     1       5.939   4.533  17.112  0.00  0.00    +0.000 N 
ATOM     22  C   UNL     1       7.301   4.528  17.106  0.00  0.00    +0.000 A 
ATOM     23  N   UNL     1       7.749   4.611  18.333  0.00  0.00    +0.000 NA
ATOM     24  N   UNL     1       6.657   4.645  19.164  0.00  0.00    +0.000 NA
ATOM     25  C   UNL     1       5.553   4.598  18.432  0.00  0.00    +0.000 A 
ENDBRANCH  14  25
ENDBRANCH   1  18
TORSDOF 3
ENDMDL
MODEL 2
REMARK VINA RESULT:      -8.4      1.082      1.840
REMARK  Name = 
REMARK  4 active torsions:
REMARK  status: ('A' for Active; 'I' for Inactive)
REMARK    1  A    between atoms: C_1  and  N_2
REMARK    2  A    between atoms: C_6  and  C_7
REMARK    3  A    between atoms: C_11  and  N_12
REMARK    4  A    between atoms: C_13  and  C_15
REMARK                            x       y       z     vdW  Elec       q    Type
REMARK                         _______ _______ _______ _____ _____    ______ ____
ROOT
ATOM      1  N   UNL     1       2.034   7.611  20.132  0.00  0.00    +0.000 N 
ATOM      2  C   UNL     1       1.642   8.526  19.172  0.00  0.00    +0.000 C 
ATOM      3  O   UNL     1       1.689   8.339  17.958  0.00  0.00    +0.000 OA
ATOM      4  H   UNL     1       1.760   7.810  21.083  0.00  0.00    +0.000 HD
ENDROOT
BRANCH   2   5
ATOM      5  C   UNL     1       1.063   9.757  19.687  0.00  0.00    +0.000 A 
ATOM      6  C   UNL     1       0.899  11.033  19.105  0.00  0.00    +0.000 A 
ATOM      7  N   UNL     1       0.258  11.892  19.905  0.00  0.00    +0.000 NA
ATOM      8  N   UNL     1      -0.027  11.154  20.992  0.00  0.00    +0.000 N 
ATOM      9  C   UNL     1       0.479   9.887  20.937  0.00  0.00    +0.000 A 
ATOM     10  C   UNL     1       0.313   8.923  22.064  0.00  0.00    +0.000 C 
ATOM     11  C   UNL     1      -0.077   9.633  23.362  0.00  0.00    +0.000 C 
ATOM     12  C   UNL     1      -1.202  10.637  23.107  0.00  0.00    +0.000 C 
ATOM     13  C   UNL     1      -0.753  11.716  22.116  0.00  0.00    +0.000 C 
ENDBRANCH   2   5
BRANCH   1  18
ATOM     14  C   UNL     1       4.374   4.953  18.999  0.00  0.00    +0.000 A 
ATOM     15  C   UNL     1       3.685   3.803  19.410  0.00  0.00    +0.000 A 
ATOM     16  C   UNL     1       2.426   3.895  19.997  0.00  0.00    +0.000 A 
ATOM     17  C   UNL     1       1.847   5.145  20.206  0.00  0.00    +0.000 A 
ATOM     18  C   UNL     1       2.530   6.313  19.860  0.00  0.00    +0.000 A 
ATOM     19  C   UNL     1       3.783   6.206  19.237  0.00  0.00    +0.000 A 
BRANCH  14  25
ATOM     20  C   UNL     1       5.129   4.526  15.931  0.00  0.00    +0.000 C 
ATOM     21  N   UNL     1       6.011   4.601  17.063  0.00  0.00    +0.000 N 
ATOM     22  C   UNL     1       7.359   4.412  17.004  0.00  0.00    +0.000 A 
ATOM     23  N   UNL     1       7.870   4.499  18.205  0.00  0.00    +0.000 NA
ATOM     24  N   UNL     1       6.832   4.723  19.075  0.00  0.00    +0.000 NA
ATOM     25  C   UNL     1       5.699   4.786  18.391  0.00  0.00    +0.000 A 
ENDBRANCH  14  25
ENDBRANCH   1  18
TORSDOF 3
ENDMDL
MODEL 3
REMARK VINA RESULT:      -8.2      1.442      1.713
REMARK  Name = 
REMARK  4 active torsions:
REMARK  status: ('A' for Active; 'I' for Inactive)
REMARK    1  A    between atoms: C_1  and  N_2
REMARK    2  A    between atoms: C_6  and  C_7
REMARK    3  A    between atoms: C_11  and  N_12
REMARK    4  A    between atoms: C_13  and  C_15
REMARK                            x       y       z     vdW  Elec       q    Type
REMARK                         _______ _______ _______ _____ _____    ______ ____
ROOT
ATOM      1  N   UNL     1       1.698   7.674  20.041  0.00  0.00    +0.000 N 
ATOM      2  C   UNL     1       1.670   8.633  19.046  0.00  0.00    +0.000 C 
ATOM      3  O   UNL     1       2.181   8.512  17.935  0.00  0.00    +0.000 OA
ATOM      4  H   UNL     1       1.076   7.818  20.824  0.00  0.00    +0.000 HD
ENDROOT
BRANCH   2   5
ATOM      5  C   UNL     1       0.898   9.827  19.355  0.00  0.00    +0.000 A 
ATOM      6  C   UNL     1       1.108  10.865  20.289  0.00  0.00    +0.000 A 
ATOM      7  N   UNL     1       0.179  11.824  20.221  0.00  0.00    +0.000 NA
ATOM      8  N   UNL     1      -0.612  11.421  19.211  0.00  0.00    +0.000 N 
ATOM      9  C   UNL     1      -0.260  10.208  18.694  0.00  0.00    +0.000 A 
ATOM     10  C   UNL     1      -1.038   9.562  17.597  0.00  0.00    +0.000 C 
ATOM     11  C   UNL     1      -2.429  10.182  17.450  0.00  0.00    +0.000 C 
ATOM     12  C   UNL     1      -2.339  11.709  17.462  0.00  0.00    +0.000 C 
ATOM     13  C   UNL     1      -1.756  12.209  18.787  0.00  0.00    +0.000 C 
ENDBRANCH   2   5
BRANCH   1  18
ATOM     14  C   UNL     1       4.299   5.117  19.323  0.00  0.00    +0.000 A 
ATOM     15  C   UNL     1       3.661   3.956  19.782  0.00  0.00    +0.000 A 
ATOM     16  C   UNL     1       2.355   4.000  20.263  0.00  0.00    +0.000 A 
ATOM     17  C   UNL     1       1.677   5.215  20.318  0.00  0.00    +0.000 A 
ATOM     18  C   UNL     1       2.302   6.399  19.922  0.00  0.00    +0.000 A 
ATOM     19  C   UNL     1       3.606   6.337  19.406  0.00  0.00    +0.000 A 
BRANCH  14  25
ATOM     20  C   UNL     1       5.327   4.298  16.419  0.00  0.00    +0.000 C 
ATOM     21  N   UNL     1       6.108   4.645  17.574  0.00  0.00    +0.000 N 
ATOM     22  C   UNL     1       7.468   4.597  17.629  0.00  0.00    +0.000 A 
ATOM     23  N   UNL     1       7.874   4.927  18.829  0.00  0.00    +0.000 NA
ATOM     24  N   UNL     1       6.755   5.170  19.585  0.00  0.00    +0.000 NA
ATOM     25  C   UNL     1       5.678   5.002  18.833  0.00  0.00    +0.000 A 
ENDBRANCH  14  25
ENDBRANCH   1  18
TORSDOF 3
ENDMDL
MODEL 4
REMARK VINA RESULT:      -8.1      1.478      2.184
REMARK  Name = 
REMARK  4 active torsions:
REMARK  status: ('A' for Active; 'I' for Inactive)
REMARK    1  A    between atoms: C_1  and  N_2
REMARK    2  A    between atoms: C_6  and  C_7
REMARK    3  A    between atoms: C_11  and  N_12
REMARK    4  A    between atoms: C_13  and  C_15
REMARK                            x       y       z     vdW  Elec       q    Type
REMARK                         _______ _______ _______ _____ _____    ______ ____
ROOT
ATOM      1  N   UNL     1       1.841   7.652  19.091  0.00  0.00    +0.000 N 
ATOM      2  C   UNL     1       1.773   8.864  18.429  0.00  0.00    +0.000 C 
ATOM      3  O   UNL     1       2.148   9.061  17.276  0.00  0.00    +0.000 OA
ATOM      4  H   UNL     1       1.322   7.579  19.954  0.00  0.00    +0.000 HD
ENDROOT
BRANCH   2   5
ATOM      5  C   UNL     1       1.127   9.938  19.168  0.00  0.00    +0.000 A 
ATOM      6  C   UNL     1       0.701  11.226  18.773  0.00  0.00    +0.000 A 
ATOM      7  N   UNL     1       0.092  11.897  19.755  0.00  0.00    +0.000 NA
ATOM      8  N   UNL     1       0.090  11.023  20.777  0.00  0.00    +0.000 N 
ATOM      9  C   UNL     1       0.743   9.858  20.497  0.00  0.00    +0.000 A 
ATOM     10  C   UNL     1       0.894   8.776  21.513  0.00  0.00    +0.000 C 
ATOM     11  C   UNL     1       0.631   9.290  22.930  0.00  0.00    +0.000 C 
ATOM     12  C   UNL     1      -0.644  10.134  22.966  0.00  0.00    +0.000 C 
ATOM     13  C   UNL     1      -0.511  11.359  22.055  0.00  0.00    +0.000 C 
ENDBRANCH   2   5
BRANCH   1  18
ATOM     14  C   UNL     1       4.296   5.118  17.918  0.00  0.00    +0.000 A 
ATOM     15  C   UNL     1       3.442   4.059  17.580  0.00  0.00    +0.000 A 
ATOM     16  C   UNL     1       2.059   4.199  17.673  0.00  0.00    +0.000 A 
ATOM     17  C   UNL     1       1.512   5.395  18.132  0.00  0.00    +0.000 A 
ATOM     18  C   UNL     1       2.336   6.449  18.530  0.00  0.00    +0.000 A 
ATOM     19  C   UNL     1       3.726   6.309  18.399  0.00  0.00    +0.000 A 
BRANCH  14  25
ATOM     20  C   UNL     1       6.072   4.837  15.285  0.00  0.00    +0.000 C 
ATOM     21  N   UNL     1       6.498   4.782  16.656  0.00  0.00    +0.000 N 
ATOM     22  C   UNL     1       7.771   4.510  17.058  0.00  0.00    +0.000 A 
ATOM     23  N   UNL     1       7.827   4.487  18.365  0.00  0.00    +0.000 NA
ATOM     24  N   UNL     1       6.558   4.723  18.831  0.00  0.00    +0.000 NA
ATOM     25  C   UNL     1       5.744   4.904  17.802  0.00  0.00    +0.000 A 
ENDBRANCH  14  25
ENDBRANCH   1  18
TORSDOF 3
ENDMDL
MODEL 5
REMARK VINA RESULT:      -8.1      2.730      8.577
REMARK  Name = 
REMARK  4 active torsions:
REMARK  status: ('A' for Active; 'I' for Inactive)
REMARK    1  A    between atoms: C_1  and  N_2
REMARK    2  A    between atoms: C_6  and  C_7
REMARK    3  A    between atoms: C_11  and  N_12
REMARK    4  A    between atoms: C_13  and  C_15
REMARK                            x       y       z     vdW  Elec       q    Type
REMARK                         _______ _______ _______ _____ _____    ______ ____
ROOT
ATOM      1  N   UNL     1       1.689   8.779  18.136  0.00  0.00    +0.000 N 
ATOM      2  C   UNL     1       2.001   7.947  19.196  0.00  0.00    +0.000 C 
ATOM      3  O   UNL     1       1.753   8.185  20.376  0.00  0.00    +0.000 OA
ATOM      4  H   UNL     1       1.767   8.381  17.212  0.00  0.00    +0.000 HD
ENDROOT
BRANCH   2   5
ATOM      5  C   UNL     1       2.595   6.671  18.830  0.00  0.00    +0.000 A 
ATOM      6  C   UNL     1       3.562   6.330  17.858  0.00  0.00    +0.000 A 
ATOM      7  N   UNL     1       3.883   5.033  17.876  0.00  0.00    +0.000 NA
ATOM      8  N   UNL     1       3.150   4.543  18.891  0.00  0.00    +0.000 N 
ATOM      9  C   UNL     1       2.322   5.467  19.460  0.00  0.00    +0.000 A 
ATOM     10  C   UNL     1       1.392   5.114  20.571  0.00  0.00    +0.000 C 
ATOM     11  C   UNL     1       1.184   3.602  20.676  0.00  0.00    +0.000 C 
ATOM     12  C   UNL     1       2.526   2.870  20.604  0.00  0.00    +0.000 C 
ATOM     13  C   UNL     1       3.223   3.142  19.268  0.00  0.00    +0.000 C 
ENDBRANCH   2   5
BRANCH   1  18
ATOM     14  C   UNL     1      -1.110  11.226  18.159  0.00  0.00    +0.000 A 
ATOM     15  C   UNL     1      -0.446  12.382  18.594  0.00  0.00    +0.000 A 
ATOM     16  C   UNL     1       0.929  12.376  18.814  0.00  0.00    +0.000 A 
ATOM     17  C   UNL     1       1.657  11.204  18.628  0.00  0.00    +0.000 A 
ATOM     18  C   UNL     1       1.019  10.021  18.250  0.00  0.00    +0.000 A 
ATOM     19  C   UNL     1      -0.361  10.047  17.998  0.00  0.00    +0.000 A 
BRANCH  14  25
ATOM     20  C   UNL     1      -2.773  10.714  15.487  0.00  0.00    +0.000 C 
ATOM     21  N   UNL     1      -3.266  11.075  16.788  0.00  0.00    +0.000 N 
ATOM     22  C   UNL     1      -4.572  11.344  17.071  0.00  0.00    +0.000 A 
ATOM     23  N   UNL     1      -4.691  11.686  18.328  0.00  0.00    +0.000 NA
ATOM     24  N   UNL     1      -3.432  11.667  18.876  0.00  0.00    +0.000 NA
ATOM     25  C   UNL     1      -2.561  11.297  17.950  0.00  0.00    +0.000 A 
ENDBRANCH  14  25
ENDBRANCH   1  18
TORSDOF 3
ENDMDL
MODEL 6
REMARK VINA RESULT:      -8.1      1.644      2.521
REMARK  Name = 
REMARK  4 active torsions:
REMARK  status: ('A' for Active; 'I' for Inactive)
REMARK    1  A    between atoms: C_1  and  N_2
REMARK    2  A    between atoms: C_6  and  C_7
REMARK    3  A    between atoms: C_11  and  N_12
REMARK    4  A    between atoms: C_13  and  C_15
REMARK                            x       y       z     vdW  Elec       q    Type
REMARK                         _______ _______ _______ _____ _____    ______ ____
ROOT
ATOM      1  N   UNL     1       2.237   7.909  19.306  0.00  0.00    +0.000 N 
ATOM      2  C   UNL     1       1.544   8.892  18.622  0.00  0.00    +0.000 C 
ATOM      3  O   UNL     1       1.176   8.811  17.453  0.00  0.00    +0.000 OA
ATOM      4  H   UNL     1       2.303   8.017  20.308  0.00  0.00    +0.000 HD
ENDROOT
BRANCH   2   5
ATOM      5  C   UNL     1       1.177  10.056  19.413  0.00  0.00    +0.000 A 
ATOM      6  C   UNL     1       1.251  11.439  19.138  0.00  0.00    +0.000 A 
ATOM      7  N   UNL     1       0.752  12.194  20.122  0.00  0.00    +0.000 NA
ATOM      8  N   UNL     1       0.317  11.292  21.018  0.00  0.00    +0.000 N 
ATOM      9  C   UNL     1       0.595  10.002  20.670  0.00  0.00    +0.000 A 
ATOM     10  C   UNL     1       0.237   8.852  21.552  0.00  0.00    +0.000 C 
ATOM     11  C   UNL     1      -0.054   9.307  22.983  0.00  0.00    +0.000 C 
ATOM     12  C   UNL     1      -0.979  10.525  22.981  0.00  0.00    +0.000 C 
ATOM     13  C   UNL     1      -0.326  11.704  22.253  0.00  0.00    +0.000 C 
ENDBRANCH   2   5
BRANCH   1  18
ATOM     14  C   UNL     1       4.167   5.402  17.354  0.00  0.00    +0.000 A 
ATOM     15  C   UNL     1       3.535   4.215  17.752  0.00  0.00    +0.000 A 
ATOM     16  C   UNL     1       2.436   4.242  18.606  0.00  0.00    +0.000 A 
ATOM     17  C   UNL     1       1.968   5.459  19.097  0.00  0.00    +0.000 A 
ATOM     18  C   UNL     1       2.608   6.654  18.766  0.00  0.00    +0.000 A 
ATOM     19  C   UNL     1       3.694   6.618  17.877  0.00  0.00    +0.000 A 
BRANCH  14  25
ATOM     20  C   UNL     1       7.204   4.745  18.067  0.00  0.00    +0.000 C 
ATOM     21  N   UNL     1       6.632   5.020  16.778  0.00  0.00    +0.000 N 
ATOM     22  C   UNL     1       7.347   5.125  15.623  0.00  0.00    +0.000 A 
ATOM     23  N   UNL     1       6.546   5.427  14.633  0.00  0.00    +0.000 NA
ATOM     24  N   UNL     1       5.282   5.548  15.154  0.00  0.00    +0.000 NA
ATOM     25  C   UNL     1       5.323   5.303  16.455  0.00  0.00    +0.000 A 
ENDBRANCH  14  25
ENDBRANCH   1  18
TORSDOF 3
ENDMDL
MODEL 7
REMARK VINA RESULT:      -8.1      1.294      2.176
REMARK  Name = 
REMARK  4 active torsions:
REMARK  status: ('A' for Active; 'I' for Inactive)
REMARK    1  A    between atoms: C_1  and  N_2
REMARK    2  A    between atoms: C_6  and  C_7
REMARK    3  A    between atoms: C_11  and  N_12
REMARK    4  A    between atoms: C_13  and  C_15
REMARK                            x       y       z     vdW  Elec       q    Type
REMARK                         _______ _______ _______ _____ _____    ______ ____
ROOT
ATOM      1  N   UNL     1       2.076   7.668  20.086  0.00  0.00    +0.000 N 
ATOM      2  C   UNL     1       1.593   8.573  19.159  0.00  0.00    +0.000 C 
ATOM      3  O   UNL     1       1.454   8.348  17.959  0.00  0.00    +0.000 OA
ATOM      4  H   UNL     1       1.953   7.909  21.058  0.00  0.00    +0.000 HD
ENDROOT
BRANCH   2   5
ATOM      5  C   UNL     1       1.154   9.848  19.706  0.00  0.00    +0.000 A 
ATOM      6  C   UNL     1       1.215  11.161  19.192  0.00  0.00    +0.000 A 
ATOM      7  N   UNL     1       0.641  12.063  19.995  0.00  0.00    +0.000 NA
ATOM      8  N   UNL     1       0.172  11.321  21.013  0.00  0.00    +0.000 N 
ATOM      9  C   UNL     1       0.498   9.999  20.918  0.00  0.00    +0.000 A 
ATOM     10  C   UNL     1       0.111   9.014  21.970  0.00  0.00    +0.000 C 
ATOM     11  C   UNL     1      -0.275   9.706  23.278  0.00  0.00    +0.000 C 
ATOM     12  C   UNL     1      -1.225  10.874  23.006  0.00  0.00    +0.000 C 
ATOM     13  C   UNL     1      -0.554  11.925  22.116  0.00  0.00    +0.000 C 
ENDBRANCH   2   5
BRANCH   1  18
ATOM     14  C   UNL     1       4.038   4.861  18.639  0.00  0.00    +0.000 A 
ATOM     15  C   UNL     1       3.426   3.763  19.261  0.00  0.00    +0.000 A 
ATOM     16  C   UNL     1       2.329   3.938  20.101  0.00  0.00    +0.000 A 
ATOM     17  C   UNL     1       1.844   5.219  20.352  0.00  0.00    +0.000 A 
ATOM     18  C   UNL     1       2.465   6.339  19.794  0.00  0.00    +0.000 A 
ATOM     19  C   UNL     1       3.548   6.148  18.922  0.00  0.00    +0.000 A 
BRANCH  14  25
ATOM     20  C   UNL     1       7.110   5.546  19.145  0.00  0.00    +0.000 C 
ATOM     21  N   UNL     1       6.516   4.912  18.000  0.00  0.00    +0.000 N 
ATOM     22  C   UNL     1       7.196   4.564  16.872  0.00  0.00    +0.000 A 
ATOM     23  N   UNL     1       6.368   4.052  15.998  0.00  0.00    +0.000 NA
ATOM     24  N   UNL     1       5.114   4.088  16.554  0.00  0.00    +0.000 NA
ATOM     25  C   UNL     1       5.193   4.609  17.769  0.00  0.00    +0.000 A 
ENDBRANCH  14  25
ENDBRANCH   1  18
TORSDOF 3
ENDMDL
MODEL 8
REMARK VINA RESULT:      -8.0      1.359      1.902
REMARK  Name = 
REMARK  4 active torsions:
REMARK  status: ('A' for Active; 'I' for Inactive)
REMARK    1  A    between atoms: C_1  and  N_2
REMARK    2  A    between atoms: C_6  and  C_7
REMARK    3  A    between atoms: C_11  and  N_12
REMARK    4  A    between atoms: C_13  and  C_15
REMARK                            x       y       z     vdW  Elec       q    Type
REMARK                         _______ _______ _______ _____ _____    ______ ____
ROOT
ATOM      1  N   UNL     1       1.539   7.747  19.695  0.00  0.00    +0.000 N 
ATOM      2  C   UNL     1       1.311   8.610  20.752  0.00  0.00    +0.000 C 
ATOM      3  O   UNL     1       1.634   8.397  21.918  0.00  0.00    +0.000 OA
ATOM      4  H   UNL     1       1.406   8.124  18.768  0.00  0.00    +0.000 HD
ENDROOT
BRANCH   2   5
ATOM      5  C   UNL     1       0.714   9.887  20.392  0.00  0.00    +0.000 A 
ATOM      6  C   UNL     1       0.824  10.680  19.229  0.00  0.00    +0.000 A 
ATOM      7  N   UNL     1       0.059  11.775  19.272  0.00  0.00    +0.000 NA
ATOM      8  N   UNL     1      -0.578  11.666  20.450  0.00  0.00    +0.000 N 
ATOM      9  C   UNL     1      -0.183  10.585  21.184  0.00  0.00    +0.000 A 
ATOM     10  C   UNL     1      -0.736  10.310  22.542  0.00  0.00    +0.000 C 
ATOM     11  C   UNL     1      -1.414  11.546  23.138  0.00  0.00    +0.000 C 
ATOM     12  C   UNL     1      -2.336  12.200  22.108  0.00  0.00    +0.000 C 
ATOM     13  C   UNL     1      -1.541  12.663  20.883  0.00  0.00    +0.000 C 
ENDBRANCH   2   5
BRANCH   1  18
ATOM     14  C   UNL     1       4.232   5.203  19.382  0.00  0.00    +0.000 A 
ATOM     15  C   UNL     1       3.659   4.125  20.072  0.00  0.00    +0.000 A 
ATOM     16  C   UNL     1       2.365   4.209  20.580  0.00  0.00    +0.000 A 
ATOM     17  C   UNL     1       1.635   5.386  20.428  0.00  0.00    +0.000 A 
ATOM     18  C   UNL     1       2.196   6.497  19.797  0.00  0.00    +0.000 A 
ATOM     19  C   UNL     1       3.488   6.389  19.258  0.00  0.00    +0.000 A 
BRANCH  14  25
ATOM     20  C   UNL     1       5.206   4.171  16.528  0.00  0.00    +0.000 C 
ATOM     21  N   UNL     1       6.009   4.602  17.640  0.00  0.00    +0.000 N 
ATOM     22  C   UNL     1       7.370   4.558  17.672  0.00  0.00    +0.000 A 
ATOM     23  N   UNL     1       7.798   4.975  18.836  0.00  0.00    +0.000 NA
ATOM     24  N   UNL     1       6.693   5.275  19.593  0.00  0.00    +0.000 NA
ATOM     25  C   UNL     1       5.602   5.052  18.876  0.00  0.00    +0.000 A 
ENDBRANCH  14  25
ENDBRANCH   1  18
TORSDOF 3
ENDMDL
MODEL 9
REMARK VINA RESULT:      -8.0      0.732      1.268
REMARK  Name = 
REMARK  4 active torsions:
REMARK  status: ('A' for Active; 'I' for Inactive)
REMARK    1  A    between atoms: C_1  and  N_2
REMARK    2  A    between atoms: C_6  and  C_7
REMARK    3  A    between atoms: C_11  and  N_12
REMARK    4  A    between atoms: C_13  and  C_15
REMARK                            x       y       z     vdW  Elec       q    Type
REMARK                         _______ _______ _______ _____ _____    ______ ____
ROOT
ATOM      1  N   UNL     1       1.885   6.568  20.863  0.00  0.00    +0.000 N 
ATOM      2  C   UNL     1       1.808   7.764  20.171  0.00  0.00    +0.000 C 
ATOM      3  O   UNL     1       2.199   7.939  19.020  0.00  0.00    +0.000 OA
ATOM      4  H   UNL     1       1.353   6.507  21.719  0.00  0.00    +0.000 HD
ENDROOT
BRANCH   2   5
ATOM      5  C   UNL     1       1.135   8.845  20.874  0.00  0.00    +0.000 A 
ATOM      6  C   UNL     1       1.167   9.249  22.227  0.00  0.00    +0.000 A 
ATOM      7  N   UNL     1       0.435  10.343  22.462  0.00  0.00    +0.000 NA
ATOM      8  N   UNL     1      -0.038  10.669  21.246  0.00  0.00    +0.000 N 
ATOM      9  C   UNL     1       0.304   9.777  20.272  0.00  0.00    +0.000 A 
ATOM     10  C   UNL     1      -0.160   9.932  18.862  0.00  0.00    +0.000 C 
ATOM     11  C   UNL     1      -1.343  10.898  18.760  0.00  0.00    +0.000 C 
ATOM     12  C   UNL     1      -1.070  12.167  19.569  0.00  0.00    +0.000 C 
ATOM     13  C   UNL     1      -0.880  11.836  21.052  0.00  0.00    +0.000 C 
ENDBRANCH   2   5
BRANCH   1  18
ATOM     14  C   UNL     1       4.086   4.293  18.914  0.00  0.00    +0.000 A 
ATOM     15  C   UNL     1       3.626   3.042  19.351  0.00  0.00    +0.000 A 
ATOM     16  C   UNL     1       2.551   2.944  20.231  0.00  0.00    +0.000 A 
ATOM     17  C   UNL     1       1.938   4.100  20.709  0.00  0.00    +0.000 A 
ATOM     18  C   UNL     1       2.407   5.361  20.338  0.00  0.00    +0.000 A 
ATOM     19  C   UNL     1       3.468   5.448  19.424  0.00  0.00    +0.000 A 
BRANCH  14  25
ATOM     20  C   UNL     1       7.011   5.468  19.389  0.00  0.00    +0.000 C 
ATOM     21  N   UNL     1       6.485   4.840  18.208  0.00  0.00    +0.000 N 
ATOM     22  C   UNL     1       7.163   4.718  17.033  0.00  0.00    +0.000 A 
ATOM     23  N   UNL     1       6.398   4.143  16.140  0.00  0.00    +0.000 NA
ATOM     24  N   UNL     1       5.184   3.907  16.734  0.00  0.00    +0.000 NA
ATOM     25  C   UNL     1       5.226   4.327  17.990  0.00  0.00    +0.000 A 
ENDBRANCH  14  25
ENDBRANCH   1  18
TORSDOF 3
ENDMDL
