MODEL 1
REMARK VINA RESULT:      -8.9      0.000      0.000
REMARK  Name = 
REMARK  8 active torsions:
REMARK  status: ('A' for Active; 'I' for Inactive)
REMARK    1  A    between atoms: C_1  and  O_2
REMARK    2  A    between atoms: O_2  and  C_3
REMARK    3  A    between atoms: C_5  and  C_6
REMARK    4  A    between atoms: C_9  and  C_10
REMARK    5  A    between atoms: C_10  and  S_11
REMARK    6  A    between atoms: S_11  and  C_14
REMARK    7  A    between atoms: C_16  and  C_17
REMARK    8  A    between atoms: C_20  and  C_21
REMARK                            x       y       z     vdW  Elec       q    Type
REMARK                         _______ _______ _______ _____ _____    ______ ____
ROOT
ATOM      1  C   UNL     1       3.094   4.462  18.647  0.00  0.00    +0.000 C 
ATOM      2  C   UNL     1       2.687   3.749  17.346  0.00  0.00    +0.000 C 
ATOM      3  C   UNL     1       2.293   2.321  17.712  0.00  0.00    +0.000 C 
ATOM      4  C   UNL     1       2.183   2.273  19.228  0.00  0.00    +0.000 C 
ATOM      5  C   UNL     1       2.255   3.720  19.701  0.00  0.00    +0.000 C 
ENDROOT
BRANCH   1   9
ATOM      6  C   UNL     1       2.124   7.890  18.940  0.00  0.00    +0.000 A 
ATOM      7  N   UNL     1       2.727   7.948  17.742  0.00  0.00    +0.000 NA
ATOM      8  O   UNL     1       3.162   6.641  17.520  0.00  0.00    +0.000 OA
ATOM      9  C   UNL     1       2.745   5.906  18.592  0.00  0.00    +0.000 A 
ATOM     10  N   UNL     1       2.119   6.631  19.492  0.00  0.00    +0.000 NA
BRANCH   6  13
ATOM     11  C   UNL     1       0.693  10.106  21.586  0.00  0.00    +0.000 A 
ATOM     12  C   UNL     1       1.269   8.988  21.005  0.00  0.00    +0.000 A 
ATOM     13  C   UNL     1       1.531   9.022  19.635  0.00  0.00    +0.000 A 
ATOM     14  C   UNL     1       1.200  10.175  18.914  0.00  0.00    +0.000 A 
ATOM     15  C   UNL     1       0.632  11.239  19.586  0.00  0.00    +0.000 A 
ATOM     16  N   UNL     1       0.376  11.228  20.906  0.00  0.00    +0.000 NA
BRANCH  11  18
ATOM     17  C   UNL     1      -0.946  10.339  23.229  0.00  0.00    +0.000 C 
ATOM     18  O   UNL     1       0.416  10.037  22.936  0.00  0.00    +0.000 OA
ENDBRANCH  11  18
ENDBRANCH   6  13
ENDBRANCH   1   9
BRANCH   1  19
ATOM     19  S   UNL     1       4.861   4.351  18.998  0.00  0.00    +0.000 S 
ATOM     20  O   UNL     1       5.228   5.426  19.908  0.00  0.00    +0.000 OA
ATOM     21  O   UNL     1       5.163   2.986  19.397  0.00  0.00    +0.000 OA
BRANCH  19  22
ATOM     22  C   UNL     1       5.729   4.674  17.451  0.00  0.00    +0.000 A 
ATOM     23  C   UNL     1       5.108   4.206  16.272  0.00  0.00    +0.000 A 
ATOM     24  C   UNL     1       5.753   4.296  15.034  0.00  0.00    +0.000 A 
ATOM     25  C   UNL     1       5.148   3.699  13.796  0.00  0.00    +0.000 C 
ATOM     26  C   UNL     1       6.992   4.928  14.963  0.00  0.00    +0.000 A 
ATOM     27  C   UNL     1       7.573   5.474  16.114  0.00  0.00    +0.000 A 
ATOM     28  C   UNL     1       6.951   5.369  17.373  0.00  0.00    +0.000 A 
ATOM     29  C   UNL     1       7.632   6.047  18.529  0.00  0.00    +0.000 C 
ENDBRANCH  19  22
ENDBRANCH   1  19
TORSDOF 5
ENDMDL
MODEL 2
REMARK VINA RESULT:      -8.7      0.892      1.473
REMARK  Name = 
REMARK  8 active torsions:
REMARK  status: ('A' for Active; 'I' for Inactive)
REMARK    1  A    between atoms: C_1  and  O_2
REMARK    2  A    between atoms: O_2  and  C_3
REMARK    3  A    between atoms: C_5  and  C_6
REMARK    4  A    between atoms: C_9  and  C_10
REMARK    5  A    between atoms: C_10  and  S_11
REMARK    6  A    between atoms: S_11  and  C_14
REMARK    7  A    between atoms: C_16  and  C_17
REMARK    8  A    between atoms: C_20  and  C_21
REMARK                            x       y       z     vdW  Elec       q    Type
REMARK                         _______ _______ _______ _____ _____    ______ ____
ROOT
ATOM      1  C   UNL     1       3.114   4.374  18.729  0.00  0.00    +0.000 C 
ATOM      2  C   UNL     1       2.716   3.784  17.365  0.00  0.00    +0.000 C 
ATOM      3  C   UNL     1       2.387   2.310  17.582  0.00  0.00    +0.000 C 
ATOM      4  C   UNL     1       2.303   2.099  19.086  0.00  0.00    +0.000 C 
ATOM      5  C   UNL     1       2.323   3.490  19.707  0.00  0.00    +0.000 C 
ENDROOT
BRANCH   1   9
ATOM      6  C   UNL     1       2.028   7.712  19.398  0.00  0.00    +0.000 A 
ATOM      7  N   UNL     1       2.555   7.908  18.179  0.00  0.00    +0.000 NA
ATOM      8  O   UNL     1       3.028   6.648  17.811  0.00  0.00    +0.000 OA
ATOM      9  C   UNL     1       2.706   5.800  18.830  0.00  0.00    +0.000 A 
ATOM     10  N   UNL     1       2.106   6.409  19.828  0.00  0.00    +0.000 NA
BRANCH   6  13
ATOM     11  C   UNL     1       0.495  10.913  20.566  0.00  0.00    +0.000 A 
ATOM     12  C   UNL     1       1.043   9.980  19.702  0.00  0.00    +0.000 A 
ATOM     13  C   UNL     1       1.433   8.748  20.229  0.00  0.00    +0.000 A 
ATOM     14  C   UNL     1       1.258   8.515  21.598  0.00  0.00    +0.000 A 
ATOM     15  C   UNL     1       0.697   9.509  22.375  0.00  0.00    +0.000 A 
ATOM     16  N   UNL     1       0.311  10.701  21.886  0.00  0.00    +0.000 NA
BRANCH  11  18
ATOM     17  C   UNL     1      -0.647  12.002  18.848  0.00  0.00    +0.000 C 
ATOM     18  O   UNL     1       0.144  12.135  20.026  0.00  0.00    +0.000 OA
ENDBRANCH  11  18
ENDBRANCH   6  13
ENDBRANCH   1   9
BRANCH   1  19
ATOM     19  S   UNL     1       4.889   4.301  19.046  0.00  0.00    +0.000 S 
ATOM     20  O   UNL     1       5.247   5.370  19.966  0.00  0.00    +0.000 OA
ATOM     21  O   UNL     1       5.232   2.938  19.416  0.00  0.00    +0.000 OA
BRANCH  19  22
ATOM     22  C   UNL     1       5.720   4.671  17.489  0.00  0.00    +0.000 A 
ATOM     23  C   UNL     1       5.088   4.209  16.314  0.00  0.00    +0.000 A 
ATOM     24  C   UNL     1       5.707   4.336  15.065  0.00  0.00    +0.000 A 
ATOM     25  C   UNL     1       5.092   3.747  13.828  0.00  0.00    +0.000 C 
ATOM     26  C   UNL     1       6.929   4.997  14.983  0.00  0.00    +0.000 A 
ATOM     27  C   UNL     1       7.520   5.535  16.132  0.00  0.00    +0.000 A 
ATOM     28  C   UNL     1       6.925   5.395  17.401  0.00  0.00    +0.000 A 
ATOM     29  C   UNL     1       7.613   6.067  18.556  0.00  0.00    +0.000 C 
ENDBRANCH  19  22
ENDBRANCH   1  19
TORSDOF 5
ENDMDL
MODEL 3
REMARK VINA RESULT:      -8.7      2.955      7.771
REMARK  Name = 
REMARK  8 active torsions:
REMARK  status: ('A' for Active; 'I' for Inactive)
REMARK    1  A    between atoms: C_1  and  O_2
REMARK    2  A    between atoms: O_2  and  C_3
REMARK    3  A    between atoms: C_5  and  C_6
REMARK    4  A    between atoms: C_9  and  C_10
REMARK    5  A    between atoms: C_10  and  S_11
REMARK    6  A    between atoms: S_11  and  C_14
REMARK    7  A    between atoms: C_16  and  C_17
REMARK    8  A    between atoms: C_20  and  C_21
REMARK                            x       y       z     vdW  Elec       q    Type
REMARK                         _______ _______ _______ _____ _____    ______ ____
ROOT
ATOM      1  C   UNL     1       3.323   3.988  18.389  0.00  0.00    +0.000 C 
ATOM      2  C   UNL     1       3.052   2.540  18.832  0.00  0.00    +0.000 C 
ATOM      3  C   UNL     1       1.547   2.400  19.039  0.00  0.00    +0.000 C 
ATOM      4  C   UNL     1       0.907   3.647  18.447  0.00  0.00    +0.000 C 
ATOM      5  C   UNL     1       2.011   4.362  17.680  0.00  0.00    +0.000 C 
ENDROOT
BRANCH   1   9
ATOM      6  C   UNL     1       5.808   4.144  15.825  0.00  0.00    +0.000 A 
ATOM      7  N   UNL     1       6.602   4.323  16.892  0.00  0.00    +0.000 NA
ATOM      8  O   UNL     1       5.723   4.288  17.975  0.00  0.00    +0.000 OA
ATOM      9  C   UNL     1       4.482   4.051  17.460  0.00  0.00    +0.000 A 
ATOM     10  N   UNL     1       4.483   3.970  16.148  0.00  0.00    +0.000 NA
BRANCH   6  13
ATOM     11  C   UNL     1       6.194   3.330  12.199  0.00  0.00    +0.000 A 
ATOM     12  C   UNL     1       5.702   3.276  13.493  0.00  0.00    +0.000 A 
ATOM     13  C   UNL     1       6.255   4.139  14.440  0.00  0.00    +0.000 A 
ATOM     14  C   UNL     1       7.274   5.013  14.044  0.00  0.00    +0.000 A 
ATOM     15  C   UNL     1       7.691   4.993  12.728  0.00  0.00    +0.000 A 
ATOM     16  N   UNL     1       7.169   4.172  11.799  0.00  0.00    +0.000 NA
BRANCH  11  18
ATOM     17  C   UNL     1       6.466   1.290  11.101  0.00  0.00    +0.000 C 
ATOM     18  O   UNL     1       5.653   2.446  11.287  0.00  0.00    +0.000 OA
ENDBRANCH  11  18
ENDBRANCH   6  13
ENDBRANCH   1   9
BRANCH   1  19
ATOM     19  S   UNL     1       3.679   5.100  19.765  0.00  0.00    +0.000 S 
ATOM     20  O   UNL     1       3.058   4.572  20.970  0.00  0.00    +0.000 OA
ATOM     21  O   UNL     1       5.111   5.353  19.790  0.00  0.00    +0.000 OA
BRANCH  19  22
ATOM     22  C   UNL     1       2.854   6.664  19.410  0.00  0.00    +0.000 A 
ATOM     23  C   UNL     1       1.927   7.118  20.372  0.00  0.00    +0.000 A 
ATOM     24  C   UNL     1       1.145   8.255  20.139  0.00  0.00    +0.000 A 
ATOM     25  C   UNL     1       0.077   8.678  21.107  0.00  0.00    +0.000 C 
ATOM     26  C   UNL     1       1.347   8.983  18.970  0.00  0.00    +0.000 A 
ATOM     27  C   UNL     1       2.327   8.589  18.052  0.00  0.00    +0.000 A 
ATOM     28  C   UNL     1       3.106   7.433  18.257  0.00  0.00    +0.000 A 
ATOM     29  C   UNL     1       4.172   7.138  17.240  0.00  0.00    +0.000 C 
ENDBRANCH  19  22
ENDBRANCH   1  19
TORSDOF 5
ENDMDL
MODEL 4
REMARK VINA RESULT:      -8.5      1.337      1.657
REMARK  Name = 
REMARK  8 active torsions:
REMARK  status: ('A' for Active; 'I' for Inactive)
REMARK    1  A    between atoms: C_1  and  O_2
REMARK    2  A    between atoms: O_2  and  C_3
REMARK    3  A    between atoms: C_5  and  C_6
REMARK    4  A    between atoms: C_9  and  C_10
REMARK    5  A    between atoms: C_10  and  S_11
REMARK    6  A    between atoms: S_11  and  C_14
REMARK    7  A    between atoms: C_16  and  C_17
REMARK    8  A    between atoms: C_20  and  C_21
REMARK                            x       y       z     vdW  Elec       q    Type
REMARK                         _______ _______ _______ _____ _____    ______ ____
ROOT
ATOM      1  C   UNL     1       3.000   4.204  19.089  0.00  0.00    +0.000 C 
ATOM      2  C   UNL     1       2.273   3.912  17.765  0.00  0.00    +0.000 C 
ATOM      3  C   UNL     1       2.283   2.401  17.561  0.00  0.00    +0.000 C 
ATOM      4  C   UNL     1       2.742   1.786  18.875  0.00  0.00    +0.000 C 
ATOM      5  C   UNL     1       2.739   2.919  19.892  0.00  0.00    +0.000 C 
ENDROOT
BRANCH   1   9
ATOM      6  C   UNL     1       1.646   7.275  20.315  0.00  0.00    +0.000 A 
ATOM      7  N   UNL     1       1.392   6.499  21.380  0.00  0.00    +0.000 NA
ATOM      8  O   UNL     1       1.881   5.247  21.008  0.00  0.00    +0.000 OA
ATOM      9  C   UNL     1       2.420   5.395  19.762  0.00  0.00    +0.000 A 
ATOM     10  N   UNL     1       2.287   6.615  19.293  0.00  0.00    +0.000 NA
BRANCH   6  13
ATOM     11  C   UNL     1       0.488  10.743  21.089  0.00  0.00    +0.000 A 
ATOM     12  C   UNL     1       0.819   9.413  21.290  0.00  0.00    +0.000 A 
ATOM     13  C   UNL     1       1.286   8.681  20.198  0.00  0.00    +0.000 A 
ATOM     14  C   UNL     1       1.395   9.317  18.956  0.00  0.00    +0.000 A 
ATOM     15  C   UNL     1       1.044  10.649  18.860  0.00  0.00    +0.000 A 
ATOM     16  N   UNL     1       0.596  11.374  19.901  0.00  0.00    +0.000 NA
BRANCH  11  18
ATOM     17  C   UNL     1      -0.825  10.631  23.013  0.00  0.00    +0.000 C 
ATOM     18  O   UNL     1      -0.000  11.438  22.177  0.00  0.00    +0.000 OA
ENDBRANCH  11  18
ENDBRANCH   6  13
ENDBRANCH   1   9
BRANCH   1  19
ATOM     19  S   UNL     1       4.766   4.514  18.879  0.00  0.00    +0.000 S 
ATOM     20  O   UNL     1       5.149   5.639  19.719  0.00  0.00    +0.000 OA
ATOM     21  O   UNL     1       5.475   3.257  19.054  0.00  0.00    +0.000 OA
BRANCH  19  22
ATOM     22  C   UNL     1       5.010   5.046  17.173  0.00  0.00    +0.000 A 
ATOM     23  C   UNL     1       5.362   4.042  16.245  0.00  0.00    +0.000 A 
ATOM     24  C   UNL     1       5.691   4.365  14.924  0.00  0.00    +0.000 A 
ATOM     25  C   UNL     1       6.176   3.317  13.964  0.00  0.00    +0.000 C 
ATOM     26  C   UNL     1       5.594   5.690  14.510  0.00  0.00    +0.000 A 
ATOM     27  C   UNL     1       5.160   6.679  15.401  0.00  0.00    +0.000 A 
ATOM     28  C   UNL     1       4.849   6.377  16.741  0.00  0.00    +0.000 A 
ATOM     29  C   UNL     1       4.331   7.502  17.592  0.00  0.00    +0.000 C 
ENDBRANCH  19  22
ENDBRANCH   1  19
TORSDOF 5
ENDMDL
MODEL 5
REMARK VINA RESULT:      -8.5      3.771      6.527
REMARK  Name = 
REMARK  8 active torsions:
REMARK  status: ('A' for Active; 'I' for Inactive)
REMARK    1  A    between atoms: C_1  and  O_2
REMARK    2  A    between atoms: O_2  and  C_3
REMARK    3  A    between atoms: C_5  and  C_6
REMARK    4  A    between atoms: C_9  and  C_10
REMARK    5  A    between atoms: C_10  and  S_11
REMARK    6  A    between atoms: S_11  and  C_14
REMARK    7  A    between atoms: C_16  and  C_17
REMARK    8  A    between atoms: C_20  and  C_21
REMARK                            x       y       z     vdW  Elec       q    Type
REMARK                         _______ _______ _______ _____ _____    ______ ____
ROOT
ATOM      1  C   UNL     1       6.305   5.517  16.668  0.00  0.00    +0.000 C 
ATOM      2  C   UNL     1       7.168   4.676  15.712  0.00  0.00    +0.000 C 
ATOM      3  C   UNL     1       6.315   4.354  14.489  0.00  0.00    +0.000 C 
ATOM      4  C   UNL     1       5.075   5.231  14.580  0.00  0.00    +0.000 C 
ATOM      5  C   UNL     1       5.345   6.228  15.699  0.00  0.00    +0.000 C 
ENDROOT
BRANCH   1   9
ATOM      6  C   UNL     1       8.118   8.174  18.226  0.00  0.00    +0.000 A 
ATOM      7  N   UNL     1       8.483   7.172  19.040  0.00  0.00    +0.000 NA
ATOM      8  O   UNL     1       7.816   6.060  18.524  0.00  0.00    +0.000 OA
ATOM      9  C   UNL     1       7.140   6.491  17.420  0.00  0.00    +0.000 A 
ATOM     10  N   UNL     1       7.283   7.780  17.208  0.00  0.00    +0.000 NA
BRANCH   6  13
ATOM     11  C   UNL     1       9.745  11.309  19.444  0.00  0.00    +0.000 A 
ATOM     12  C   UNL     1       9.418   9.965  19.368  0.00  0.00    +0.000 A 
ATOM     13  C   UNL     1       8.527   9.563  18.373  0.00  0.00    +0.000 A 
ATOM     14  C   UNL     1       8.006  10.529  17.504  0.00  0.00    +0.000 A 
ATOM     15  C   UNL     1       8.398  11.843  17.660  0.00  0.00    +0.000 A 
ATOM     16  N   UNL     1       9.259  12.251  18.609  0.00  0.00    +0.000 NA
BRANCH  11  18
ATOM     17  C   UNL     1      11.887  12.073  19.966  0.00  0.00    +0.000 C 
ATOM     18  O   UNL     1      10.605  11.687  20.456  0.00  0.00    +0.000 OA
ENDBRANCH  11  18
ENDBRANCH   6  13
ENDBRANCH   1   9
BRANCH   1  19
ATOM     19  S   UNL     1       5.415   4.525  17.885  0.00  0.00    +0.000 S 
ATOM     20  O   UNL     1       4.810   3.385  17.211  0.00  0.00    +0.000 OA
ATOM     21  O   UNL     1       6.307   4.263  19.002  0.00  0.00    +0.000 OA
BRANCH  19  22
ATOM     22  C   UNL     1       4.053   5.536  18.498  0.00  0.00    +0.000 A 
ATOM     23  C   UNL     1       3.791   6.731  17.794  0.00  0.00    +0.000 A 
ATOM     24  C   UNL     1       2.838   7.645  18.256  0.00  0.00    +0.000 A 
ATOM     25  C   UNL     1       2.635   8.970  17.577  0.00  0.00    +0.000 C 
ATOM     26  C   UNL     1       2.089   7.325  19.385  0.00  0.00    +0.000 A 
ATOM     27  C   UNL     1       2.281   6.101  20.037  0.00  0.00    +0.000 A 
ATOM     28  C   UNL     1       3.254   5.180  19.602  0.00  0.00    +0.000 A 
ATOM     29  C   UNL     1       3.331   3.871  20.335  0.00  0.00    +0.000 C 
ENDBRANCH  19  22
ENDBRANCH   1  19
TORSDOF 5
ENDMDL
MODEL 6
REMARK VINA RESULT:      -8.4      3.762      8.287
REMARK  Name = 
REMARK  8 active torsions:
REMARK  status: ('A' for Active; 'I' for Inactive)
REMARK    1  A    between atoms: C_1  and  O_2
REMARK    2  A    between atoms: O_2  and  C_3
REMARK    3  A    between atoms: C_5  and  C_6
REMARK    4  A    between atoms: C_9  and  C_10
REMARK    5  A    between atoms: C_10  and  S_11
REMARK    6  A    between atoms: S_11  and  C_14
REMARK    7  A    between atoms: C_16  and  C_17
REMARK    8  A    between atoms: C_20  and  C_21
REMARK                            x       y       z     vdW  Elec       q    Type
REMARK                         _______ _______ _______ _____ _____    ______ ____
ROOT
ATOM      1  C   UNL     1       6.574   5.829  16.923  0.00  0.00    +0.000 C 
ATOM      2  C   UNL     1       7.788   6.671  17.352  0.00  0.00    +0.000 C 
ATOM      3  C   UNL     1       7.939   6.518  18.862  0.00  0.00    +0.000 C 
ATOM      4  C   UNL     1       7.022   5.378  19.280  0.00  0.00    +0.000 C 
ATOM      5  C   UNL     1       6.555   4.720  17.988  0.00  0.00    +0.000 C 
ENDROOT
BRANCH   1   9
ATOM      6  C   UNL     1       6.639   4.310  13.688  0.00  0.00    +0.000 A 
ATOM      7  N   UNL     1       7.757   5.047  13.592  0.00  0.00    +0.000 NA
ATOM      8  O   UNL     1       7.833   5.704  14.820  0.00  0.00    +0.000 OA
ATOM      9  C   UNL     1       6.770   5.271  15.559  0.00  0.00    +0.000 A 
ATOM     10  N   UNL     1       6.005   4.428  14.902  0.00  0.00    +0.000 NA
BRANCH   6  13
ATOM     11  C   UNL     1       4.380   2.800  11.123  0.00  0.00    +0.000 A 
ATOM     12  C   UNL     1       4.818   3.659  12.118  0.00  0.00    +0.000 A 
ATOM     13  C   UNL     1       6.100   3.464  12.634  0.00  0.00    +0.000 A 
ATOM     14  C   UNL     1       6.879   2.416  12.128  0.00  0.00    +0.000 A 
ATOM     15  C   UNL     1       6.352   1.618  11.132  0.00  0.00    +0.000 A 
ATOM     16  N   UNL     1       5.121   1.792  10.619  0.00  0.00    +0.000 NA
BRANCH  11  18
ATOM     17  C   UNL     1       3.004   4.114   9.773  0.00  0.00    +0.000 C 
ATOM     18  O   UNL     1       3.098   2.994  10.651  0.00  0.00    +0.000 OA
ENDBRANCH  11  18
ENDBRANCH   6  13
ENDBRANCH   1   9
BRANCH   1  19
ATOM     19  S   UNL     1       5.030   6.762  16.902  0.00  0.00    +0.000 S 
ATOM     20  O   UNL     1       5.143   7.881  17.826  0.00  0.00    +0.000 OA
ATOM     21  O   UNL     1       4.689   7.052  15.518  0.00  0.00    +0.000 OA
BRANCH  19  22
ATOM     22  C   UNL     1       3.748   5.681  17.566  0.00  0.00    +0.000 A 
ATOM     23  C   UNL     1       4.003   4.293  17.505  0.00  0.00    +0.000 A 
ATOM     24  C   UNL     1       3.027   3.365  17.880  0.00  0.00    +0.000 A 
ATOM     25  C   UNL     1       3.249   1.889  17.711  0.00  0.00    +0.000 C 
ATOM     26  C   UNL     1       1.817   3.827  18.392  0.00  0.00    +0.000 A 
ATOM     27  C   UNL     1       1.592   5.201  18.539  0.00  0.00    +0.000 A 
ATOM     28  C   UNL     1       2.553   6.151  18.142  0.00  0.00    +0.000 A 
ATOM     29  C   UNL     1       2.233   7.596  18.404  0.00  0.00    +0.000 C 
ENDBRANCH  19  22
ENDBRANCH   1  19
TORSDOF 5
ENDMDL
MODEL 7
REMARK VINA RESULT:      -8.4      1.924      4.134
REMARK  Name = 
REMARK  8 active torsions:
REMARK  status: ('A' for Active; 'I' for Inactive)
REMARK    1  A    between atoms: C_1  and  O_2
REMARK    2  A    between atoms: O_2  and  C_3
REMARK    3  A    between atoms: C_5  and  C_6
REMARK    4  A    between atoms: C_9  and  C_10
REMARK    5  A    between atoms: C_10  and  S_11
REMARK    6  A    between atoms: S_11  and  C_14
REMARK    7  A    between atoms: C_16  and  C_17
REMARK    8  A    between atoms: C_20  and  C_21
REMARK                            x       y       z     vdW  Elec       q    Type
REMARK                         _______ _______ _______ _____ _____    ______ ____
ROOT
ATOM      1  C   UNL     1       3.935   6.154  18.074  0.00  0.00    +0.000 C 
ATOM      2  C   UNL     1       4.782   6.104  19.356  0.00  0.00    +0.000 C 
ATOM      3  C   UNL     1       6.141   5.520  18.984  0.00  0.00    +0.000 C 
ATOM      4  C   UNL     1       6.206   5.500  17.464  0.00  0.00    +0.000 C 
ATOM      5  C   UNL     1       5.007   6.307  16.982  0.00  0.00    +0.000 C 
ENDROOT
BRANCH   1   9
ATOM      6  C   UNL     1       1.669   8.876  18.561  0.00  0.00    +0.000 A 
ATOM      7  N   UNL     1       2.020   9.126  17.290  0.00  0.00    +0.000 NA
ATOM      8  O   UNL     1       2.928   8.110  16.986  0.00  0.00    +0.000 OA
ATOM      9  C   UNL     1       3.009   7.318  18.094  0.00  0.00    +0.000 A 
ATOM     10  N   UNL     1       2.268   7.756  19.087  0.00  0.00    +0.000 NA
BRANCH   6  13
ATOM     11  C   UNL     1      -0.030  10.581  21.418  0.00  0.00    +0.000 A 
ATOM     12  C   UNL     1       0.886   9.795  20.739  0.00  0.00    +0.000 A 
ATOM     13  C   UNL     1       0.759   9.688  19.354  0.00  0.00    +0.000 A 
ATOM     14  C   UNL     1      -0.283  10.374  18.717  0.00  0.00    +0.000 A 
ATOM     15  C   UNL     1      -1.142  11.136  19.483  0.00  0.00    +0.000 A 
ATOM     16  N   UNL     1      -1.034  11.255  20.819  0.00  0.00    +0.000 NA
BRANCH  11  18
ATOM     17  C   UNL     1       0.218   9.359  23.389  0.00  0.00    +0.000 C 
ATOM     18  O   UNL     1       0.098  10.647  22.791  0.00  0.00    +0.000 OA
ENDBRANCH  11  18
ENDBRANCH   6  13
ENDBRANCH   1   9
BRANCH   1  19
ATOM     19  S   UNL     1       2.930   4.676  17.824  0.00  0.00    +0.000 S 
ATOM     20  O   UNL     1       1.549   5.077  17.602  0.00  0.00    +0.000 OA
ATOM     21  O   UNL     1       3.574   3.851  16.814  0.00  0.00    +0.000 OA
BRANCH  19  22
ATOM     22  C   UNL     1       2.950   3.755  19.375  0.00  0.00    +0.000 A 
ATOM     23  C   UNL     1       4.042   2.884  19.575  0.00  0.00    +0.000 A 
ATOM     24  C   UNL     1       4.093   2.035  20.686  0.00  0.00    +0.000 A 
ATOM     25  C   UNL     1       5.193   1.026  20.846  0.00  0.00    +0.000 C 
ATOM     26  C   UNL     1       3.083   2.115  21.641  0.00  0.00    +0.000 A 
ATOM     27  C   UNL     1       2.042   3.040  21.494  0.00  0.00    +0.000 A 
ATOM     28  C   UNL     1       1.961   3.884  20.370  0.00  0.00    +0.000 A 
ATOM     29  C   UNL     1       0.839   4.883  20.345  0.00  0.00    +0.000 C 
ENDBRANCH  19  22
ENDBRANCH   1  19
TORSDOF 5
ENDMDL
MODEL 8
REMARK VINA RESULT:      -8.3      2.913      8.296
REMARK  Name = 
REMARK  8 active torsions:
REMARK  status: ('A' for Active; 'I' for Inactive)
REMARK    1  A    between atoms: C_1  and  O_2
REMARK    2  A    between atoms: O_2  and  C_3
REMARK    3  A    between atoms: C_5  and  C_6
REMARK    4  A    between atoms: C_9  and  C_10
REMARK    5  A    between atoms: C_10  and  S_11
REMARK    6  A    between atoms: S_11  and  C_14
REMARK    7  A    between atoms: C_16  and  C_17
REMARK    8  A    between atoms: C_20  and  C_21
REMARK                            x       y       z     vdW  Elec       q    Type
REMARK                         _______ _______ _______ _____ _____    ______ ____
ROOT
ATOM      1  C   UNL     1       0.916   9.510  20.727  0.00  0.00    +0.000 C 
ATOM      2  C   UNL     1       1.717   9.364  22.032  0.00  0.00    +0.000 C 
ATOM      3  C   UNL     1       0.719   9.376  23.185  0.00  0.00    +0.000 C 
ATOM      4  C   UNL     1      -0.664   9.232  22.566  0.00  0.00    +0.000 C 
ATOM      5  C   UNL     1      -0.434   8.879  21.103  0.00  0.00    +0.000 C 
ENDROOT
BRANCH   1   9
ATOM      6  C   UNL     1       2.472   7.375  18.319  0.00  0.00    +0.000 A 
ATOM      7  N   UNL     1       2.306   8.463  17.552  0.00  0.00    +0.000 NA
ATOM      8  O   UNL     1       1.686   9.382  18.400  0.00  0.00    +0.000 OA
ATOM      9  C   UNL     1       1.573   8.771  19.616  0.00  0.00    +0.000 A 
ATOM     10  N   UNL     1       2.026   7.538  19.610  0.00  0.00    +0.000 NA
BRANCH   6  13
ATOM     11  C   UNL     1       2.942   3.775  17.437  0.00  0.00    +0.000 A 
ATOM     12  C   UNL     1       2.312   4.931  17.867  0.00  0.00    +0.000 A 
ATOM     13  C   UNL     1       3.049   6.116  17.873  0.00  0.00    +0.000 A 
ATOM     14  C   UNL     1       4.383   6.082  17.450  0.00  0.00    +0.000 A 
ATOM     15  C   UNL     1       4.918   4.879  17.035  0.00  0.00    +0.000 A 
ATOM     16  N   UNL     1       4.224   3.727  17.018  0.00  0.00    +0.000 NA
BRANCH  11  18
ATOM     17  C   UNL     1       1.253   2.597  18.532  0.00  0.00    +0.000 C 
ATOM     18  O   UNL     1       2.202   2.610  17.469  0.00  0.00    +0.000 OA
ENDBRANCH  11  18
ENDBRANCH   6  13
ENDBRANCH   1   9
BRANCH   1  19
ATOM     19  S   UNL     1       0.729  11.224  20.193  0.00  0.00    +0.000 S 
ATOM     20  O   UNL     1       0.790  12.090  21.361  0.00  0.00    +0.000 OA
ATOM     21  O   UNL     1       1.666  11.470  19.109  0.00  0.00    +0.000 OA
BRANCH  19  22
ATOM     22  C   UNL     1      -0.937  11.389  19.522  0.00  0.00    +0.000 A 
ATOM     23  C   UNL     1      -1.163  10.819  18.251  0.00  0.00    +0.000 A 
ATOM     24  C   UNL     1      -2.383  10.994  17.589  0.00  0.00    +0.000 A 
ATOM     25  C   UNL     1      -2.590  10.488  16.190  0.00  0.00    +0.000 C 
ATOM     26  C   UNL     1      -3.408  11.679  18.235  0.00  0.00    +0.000 A 
ATOM     27  C   UNL     1      -3.221  12.171  19.532  0.00  0.00    +0.000 A 
ATOM     28  C   UNL     1      -1.992  12.027  20.204  0.00  0.00    +0.000 A 
ATOM     29  C   UNL     1      -1.922  12.535  21.617  0.00  0.00    +0.000 C 
ENDBRANCH  19  22
ENDBRANCH   1  19
TORSDOF 5
ENDMDL
MODEL 9
REMARK VINA RESULT:      -8.3      1.948      4.297
REMARK  Name = 
REMARK  8 active torsions:
REMARK  status: ('A' for Active; 'I' for Inactive)
REMARK    1  A    between atoms: C_1  and  O_2
REMARK    2  A    between atoms: O_2  and  C_3
REMARK    3  A    between atoms: C_5  and  C_6
REMARK    4  A    between atoms: C_9  and  C_10
REMARK    5  A    between atoms: C_10  and  S_11
REMARK    6  A    between atoms: S_11  and  C_14
REMARK    7  A    between atoms: C_16  and  C_17
REMARK    8  A    between atoms: C_20  and  C_21
REMARK                            x       y       z     vdW  Elec       q    Type
REMARK                         _______ _______ _______ _____ _____    ______ ____
ROOT
ATOM      1  C   UNL     1       3.946   6.016  17.921  0.00  0.00    +0.000 C 
ATOM      2  C   UNL     1       5.033   5.892  19.002  0.00  0.00    +0.000 C 
ATOM      3  C   UNL     1       6.304   5.397  18.319  0.00  0.00    +0.000 C 
ATOM      4  C   UNL     1       6.065   5.508  16.820  0.00  0.00    +0.000 C 
ATOM      5  C   UNL     1       4.776   6.303  16.658  0.00  0.00    +0.000 C 
ENDROOT
BRANCH   1   9
ATOM      6  C   UNL     1       1.744   8.579  19.085  0.00  0.00    +0.000 A 
ATOM      7  N   UNL     1       1.883   8.989  17.815  0.00  0.00    +0.000 NA
ATOM      8  O   UNL     1       2.746   8.049  17.251  0.00  0.00    +0.000 OA
ATOM      9  C   UNL     1       3.017   7.136  18.228  0.00  0.00    +0.000 A 
ATOM     10  N   UNL     1       2.437   7.427  19.370  0.00  0.00    +0.000 NA
BRANCH   6  13
ATOM     11  C   UNL     1      -0.325  11.100  20.908  0.00  0.00    +0.000 A 
ATOM     12  C   UNL     1       0.398  10.518  19.880  0.00  0.00    +0.000 A 
ATOM     13  C   UNL     1       0.958   9.260  20.104  0.00  0.00    +0.000 A 
ATOM     14  C   UNL     1       0.767   8.648  21.348  0.00  0.00    +0.000 A 
ATOM     15  C   UNL     1       0.024   9.309  22.306  0.00  0.00    +0.000 A 
ATOM     16  N   UNL     1      -0.527  10.520  22.109  0.00  0.00    +0.000 NA
BRANCH  11  18
ATOM     17  C   UNL     1      -2.205  12.316  20.253  0.00  0.00    +0.000 C 
ATOM     18  O   UNL     1      -0.844  12.358  20.674  0.00  0.00    +0.000 OA
ENDBRANCH  11  18
ENDBRANCH   6  13
ENDBRANCH   1   9
BRANCH   1  19
ATOM     19  S   UNL     1       2.946   4.525  17.741  0.00  0.00    +0.000 S 
ATOM     20  O   UNL     1       1.561   4.911  17.520  0.00  0.00    +0.000 OA
ATOM     21  O   UNL     1       3.582   3.665  16.756  0.00  0.00    +0.000 OA
BRANCH  19  22
ATOM     22  C   UNL     1       2.989   3.665  19.326  0.00  0.00    +0.000 A 
ATOM     23  C   UNL     1       4.099   2.823  19.555  0.00  0.00    +0.000 A 
ATOM     24  C   UNL     1       4.170   2.019  20.697  0.00  0.00    +0.000 A 
ATOM     25  C   UNL     1       5.291   1.039  20.892  0.00  0.00    +0.000 C 
ATOM     26  C   UNL     1       3.162   2.115  21.653  0.00  0.00    +0.000 A 
ATOM     27  C   UNL     1       2.103   3.013  21.474  0.00  0.00    +0.000 A 
ATOM     28  C   UNL     1       2.001   3.811  20.319  0.00  0.00    +0.000 A 
ATOM     29  C   UNL     1       0.859   4.786  20.260  0.00  0.00    +0.000 C 
ENDBRANCH  19  22
ENDBRANCH   1  19
TORSDOF 5
ENDMDL
