MODEL 1
REMARK VINA RESULT:      -8.4      0.000      0.000
REMARK  Name = 
REMARK  8 active torsions:
REMARK  status: ('A' for Active; 'I' for Inactive)
REMARK    1  A    between atoms: C_1  and  C_2
REMARK    2  A    between atoms: C_5  and  C_6
REMARK    3  A    between atoms: N_8  and  C_9
REMARK    4  A    between atoms: C_9  and  C_10
REMARK    5  A    between atoms: C_20  and  S_21
REMARK    6  A    between atoms: S_21  and  N_24
REMARK    7  A    between atoms: N_24  and  C_25
REMARK    8  A    between atoms: C_25  and  C_26
REMARK                            x       y       z     vdW  Elec       q    Type
REMARK                         _______ _______ _______ _____ _____    ______ ____
ROOT
ATOM      1  C   UNL     1       5.112   6.707  15.763  0.00  0.00    +0.000 C 
ATOM      2  C   UNL     1       4.260   6.743  17.000  0.00  0.00    +0.000 A 
ATOM      3  C   UNL     1       3.331   7.801  17.146  0.00  0.00    +0.000 A 
ATOM      4  C   UNL     1       2.546   7.927  18.297  0.00  0.00    +0.000 A 
ATOM      5  C   UNL     1       2.675   6.996  19.334  0.00  0.00    +0.000 A 
ATOM      6  C   UNL     1       3.560   5.924  19.186  0.00  0.00    +0.000 A 
ATOM      7  C   UNL     1       4.365   5.796  18.038  0.00  0.00    +0.000 A 
ENDROOT
BRANCH   5   8
ATOM      8  C   UNL     1       1.865   7.163  20.575  0.00  0.00    +0.000 C 
ATOM      9  O   UNL     1       1.334   6.190  21.100  0.00  0.00    +0.000 OA
ATOM     10  N   UNL     1       1.754   8.450  21.048  0.00  0.00    +0.000 N 
ATOM     11  H   UNL     1       2.107   9.236  20.522  0.00  0.00    +0.000 HD
BRANCH  10  12
ATOM     12  C   UNL     1       1.091   8.782  22.290  0.00  0.00    +0.000 C 
BRANCH  12  13
ATOM     13  C   UNL     1       0.163   9.923  22.031  0.00  0.00    +0.000 A 
ATOM     14  C   UNL     1      -0.331  10.371  20.821  0.00  0.00    +0.000 A 
ATOM     15  N   UNL     1      -1.129  11.446  21.114  0.00  0.00    +0.000 N 
ATOM     16  C   UNL     1      -1.853  12.273  20.258  0.00  0.00    +0.000 A 
ATOM     17  C   UNL     1      -2.572  13.285  20.775  0.00  0.00    +0.000 A 
ATOM     18  C   UNL     1      -2.564  13.484  22.218  0.00  0.00    +0.000 A 
ATOM     19  C   UNL     1      -1.862  12.678  23.039  0.00  0.00    +0.000 A 
ATOM     20  C   UNL     1      -1.102  11.602  22.496  0.00  0.00    +0.000 A 
ATOM     21  N   UNL     1      -0.342  10.687  23.067  0.00  0.00    +0.000 NA
ENDBRANCH  12  13
ENDBRANCH  10  12
ENDBRANCH   5   8
BRANCH   7  22
ATOM     22  S   UNL     1       5.651   4.545  18.108  0.00  0.00    +0.000 S 
ATOM     23  O   UNL     1       5.451   3.659  16.985  0.00  0.00    +0.000 OA
ATOM     24  O   UNL     1       6.917   5.224  18.284  0.00  0.00    +0.000 OA
BRANCH  22  25
ATOM     25  N   UNL     1       5.363   3.626  19.497  0.00  0.00    +0.000 NA
ATOM     26  H   UNL     1       4.979   4.244  20.214  0.00  0.00    +0.000 HD
BRANCH  25  27
ATOM     27  C   UNL     1       4.614   2.371  19.308  0.00  0.00    +0.000 C 
BRANCH  27  28
ATOM     28  C   UNL     1       3.114   2.463  19.534  0.00  0.00    +0.000 A 
ATOM     29  C   UNL     1       2.641   2.682  20.843  0.00  0.00    +0.000 A 
ATOM     30  C   UNL     1       1.280   2.872  21.102  0.00  0.00    +0.000 A 
ATOM     31  C   UNL     1       0.365   2.846  20.054  0.00  0.00    +0.000 A 
ATOM     32  C   UNL     1       0.813   2.624  18.753  0.00  0.00    +0.000 A 
ATOM     33  C   UNL     1       2.178   2.437  18.492  0.00  0.00    +0.000 A 
ENDBRANCH  27  28
ENDBRANCH  25  27
ENDBRANCH  22  25
ENDBRANCH   7  22
TORSDOF 7
ENDMDL
MODEL 2
REMARK VINA RESULT:      -8.3      2.430      4.334
REMARK  Name = 
REMARK  8 active torsions:
REMARK  status: ('A' for Active; 'I' for Inactive)
REMARK    1  A    between atoms: C_1  and  C_2
REMARK    2  A    between atoms: C_5  and  C_6
REMARK    3  A    between atoms: N_8  and  C_9
REMARK    4  A    between atoms: C_9  and  C_10
REMARK    5  A    between atoms: C_20  and  S_21
REMARK    6  A    between atoms: S_21  and  N_24
REMARK    7  A    between atoms: N_24  and  C_25
REMARK    8  A    between atoms: C_25  and  C_26
REMARK                            x       y       z     vdW  Elec       q    Type
REMARK                         _______ _______ _______ _____ _____    ______ ____
ROOT
ATOM      1  C   UNL     1       1.881   2.916  20.795  0.00  0.00    +0.000 C 
ATOM      2  C   UNL     1       2.069   4.280  20.192  0.00  0.00    +0.000 A 
ATOM      3  C   UNL     1       1.565   5.400  20.896  0.00  0.00    +0.000 A 
ATOM      4  C   UNL     1       1.656   6.692  20.368  0.00  0.00    +0.000 A 
ATOM      5  C   UNL     1       2.251   6.895  19.118  0.00  0.00    +0.000 A 
ATOM      6  C   UNL     1       2.789   5.802  18.431  0.00  0.00    +0.000 A 
ATOM      7  C   UNL     1       2.691   4.496  18.947  0.00  0.00    +0.000 A 
ENDROOT
BRANCH   5   8
ATOM      8  C   UNL     1       2.305   8.271  18.544  0.00  0.00    +0.000 C 
ATOM      9  O   UNL     1       3.156   8.557  17.709  0.00  0.00    +0.000 OA
ATOM     10  N   UNL     1       1.371   9.156  19.027  0.00  0.00    +0.000 N 
ATOM     11  H   UNL     1       0.766   8.914  19.799  0.00  0.00    +0.000 HD
BRANCH  10  12
ATOM     12  C   UNL     1       1.214  10.499  18.514  0.00  0.00    +0.000 C 
BRANCH  12  13
ATOM     13  C   UNL     1      -0.208  10.909  18.710  0.00  0.00    +0.000 A 
ATOM     14  C   UNL     1      -1.308  10.589  17.939  0.00  0.00    +0.000 A 
ATOM     15  N   UNL     1      -2.377  11.214  18.527  0.00  0.00    +0.000 N 
ATOM     16  C   UNL     1      -3.715  11.233  18.143  0.00  0.00    +0.000 A 
ATOM     17  C   UNL     1      -4.600  11.929  18.879  0.00  0.00    +0.000 A 
ATOM     18  C   UNL     1      -4.124  12.646  20.054  0.00  0.00    +0.000 A 
ATOM     19  C   UNL     1      -2.826  12.621  20.418  0.00  0.00    +0.000 A 
ATOM     20  C   UNL     1      -1.886  11.882  19.645  0.00  0.00    +0.000 A 
ATOM     21  N   UNL     1      -0.586  11.699  19.779  0.00  0.00    +0.000 NA
ENDBRANCH  12  13
ENDBRANCH  10  12
ENDBRANCH   5   8
BRANCH   7  22
ATOM     22  S   UNL     1       3.162   3.167  17.834  0.00  0.00    +0.000 S 
ATOM     23  O   UNL     1       4.194   2.401  18.493  0.00  0.00    +0.000 OA
ATOM     24  O   UNL     1       1.949   2.520  17.382  0.00  0.00    +0.000 OA
BRANCH  22  25
ATOM     25  N   UNL     1       3.891   3.891  16.492  0.00  0.00    +0.000 NA
ATOM     26  H   UNL     1       3.513   4.835  16.395  0.00  0.00    +0.000 HD
BRANCH  25  27
ATOM     27  C   UNL     1       5.360   3.810  16.422  0.00  0.00    +0.000 C 
BRANCH  27  28
ATOM     28  C   UNL     1       6.111   4.944  17.098  0.00  0.00    +0.000 A 
ATOM     29  C   UNL     1       7.023   4.632  18.126  0.00  0.00    +0.000 A 
ATOM     30  C   UNL     1       7.815   5.620  18.722  0.00  0.00    +0.000 A 
ATOM     31  C   UNL     1       7.708   6.941  18.298  0.00  0.00    +0.000 A 
ATOM     32  C   UNL     1       6.807   7.271  17.287  0.00  0.00    +0.000 A 
ATOM     33  C   UNL     1       6.016   6.281  16.687  0.00  0.00    +0.000 A 
ENDBRANCH  27  28
ENDBRANCH  25  27
ENDBRANCH  22  25
ENDBRANCH   7  22
TORSDOF 7
ENDMDL
MODEL 3
REMARK VINA RESULT:      -8.3      2.166      4.152
REMARK  Name = 
REMARK  8 active torsions:
REMARK  status: ('A' for Active; 'I' for Inactive)
REMARK    1  A    between atoms: C_1  and  C_2
REMARK    2  A    between atoms: C_5  and  C_6
REMARK    3  A    between atoms: N_8  and  C_9
REMARK    4  A    between atoms: C_9  and  C_10
REMARK    5  A    between atoms: C_20  and  S_21
REMARK    6  A    between atoms: S_21  and  N_24
REMARK    7  A    between atoms: N_24  and  C_25
REMARK    8  A    between atoms: C_25  and  C_26
REMARK                            x       y       z     vdW  Elec       q    Type
REMARK                         _______ _______ _______ _____ _____    ______ ____
ROOT
ATOM      1  C   UNL     1       1.933   2.657  20.444  0.00  0.00    +0.000 C 
ATOM      2  C   UNL     1       2.078   4.080  19.983  0.00  0.00    +0.000 A 
ATOM      3  C   UNL     1       1.536   5.107  20.792  0.00  0.00    +0.000 A 
ATOM      4  C   UNL     1       1.586   6.448  20.397  0.00  0.00    +0.000 A 
ATOM      5  C   UNL     1       2.178   6.794  19.178  0.00  0.00    +0.000 A 
ATOM      6  C   UNL     1       2.752   5.794  18.388  0.00  0.00    +0.000 A 
ATOM      7  C   UNL     1       2.695   4.440  18.769  0.00  0.00    +0.000 A 
ENDROOT
BRANCH   5   8
ATOM      8  C   UNL     1       2.189   8.222  18.745  0.00  0.00    +0.000 C 
ATOM      9  O   UNL     1       2.934   8.586  17.843  0.00  0.00    +0.000 OA
ATOM     10  N   UNL     1       1.342   9.060  19.431  0.00  0.00    +0.000 N 
ATOM     11  H   UNL     1       0.833   8.744  20.245  0.00  0.00    +0.000 HD
BRANCH  10  12
ATOM     12  C   UNL     1       1.150  10.450  19.082  0.00  0.00    +0.000 C 
BRANCH  12  13
ATOM     13  C   UNL     1       0.055  10.998  19.936  0.00  0.00    +0.000 A 
ATOM     14  C   UNL     1      -1.036  11.753  19.555  0.00  0.00    +0.000 A 
ATOM     15  N   UNL     1      -1.736  12.013  20.704  0.00  0.00    +0.000 N 
ATOM     16  C   UNL     1      -2.906  12.748  20.884  0.00  0.00    +0.000 A 
ATOM     17  C   UNL     1      -3.417  12.878  22.120  0.00  0.00    +0.000 A 
ATOM     18  C   UNL     1      -2.723  12.246  23.235  0.00  0.00    +0.000 A 
ATOM     19  C   UNL     1      -1.592  11.536  23.051  0.00  0.00    +0.000 A 
ATOM     20  C   UNL     1      -1.049  11.392  21.742  0.00  0.00    +0.000 A 
ATOM     21  N   UNL     1       0.023  10.765  21.299  0.00  0.00    +0.000 NA
ENDBRANCH  12  13
ENDBRANCH  10  12
ENDBRANCH   5   8
BRANCH   7  22
ATOM     22  S   UNL     1       3.212   3.246  17.531  0.00  0.00    +0.000 S 
ATOM     23  O   UNL     1       4.167   2.362  18.159  0.00  0.00    +0.000 OA
ATOM     24  O   UNL     1       2.020   2.709  16.911  0.00  0.00    +0.000 OA
BRANCH  22  25
ATOM     25  N   UNL     1       4.064   4.105  16.351  0.00  0.00    +0.000 NA
ATOM     26  H   UNL     1       3.796   5.088  16.417  0.00  0.00    +0.000 HD
BRANCH  25  27
ATOM     27  C   UNL     1       5.518   3.871  16.292  0.00  0.00    +0.000 C 
BRANCH  27  28
ATOM     28  C   UNL     1       6.376   4.900  17.006  0.00  0.00    +0.000 A 
ATOM     29  C   UNL     1       6.259   6.254  16.633  0.00  0.00    +0.000 A 
ATOM     30  C   UNL     1       6.949   7.260  17.317  0.00  0.00    +0.000 A 
ATOM     31  C   UNL     1       7.772   6.929  18.389  0.00  0.00    +0.000 A 
ATOM     32  C   UNL     1       7.906   5.595  18.770  0.00  0.00    +0.000 A 
ATOM     33  C   UNL     1       7.212   4.586  18.087  0.00  0.00    +0.000 A 
ENDBRANCH  27  28
ENDBRANCH  25  27
ENDBRANCH  22  25
ENDBRANCH   7  22
TORSDOF 7
ENDMDL
MODEL 4
REMARK VINA RESULT:      -8.1      2.382      4.319
REMARK  Name = 
REMARK  8 active torsions:
REMARK  status: ('A' for Active; 'I' for Inactive)
REMARK    1  A    between atoms: C_1  and  C_2
REMARK    2  A    between atoms: C_5  and  C_6
REMARK    3  A    between atoms: N_8  and  C_9
REMARK    4  A    between atoms: C_9  and  C_10
REMARK    5  A    between atoms: C_20  and  S_21
REMARK    6  A    between atoms: S_21  and  N_24
REMARK    7  A    between atoms: N_24  and  C_25
REMARK    8  A    between atoms: C_25  and  C_26
REMARK                            x       y       z     vdW  Elec       q    Type
REMARK                         _______ _______ _______ _____ _____    ______ ____
ROOT
ATOM      1  C   UNL     1       2.356   3.178  20.720  0.00  0.00    +0.000 C 
ATOM      2  C   UNL     1       2.369   4.541  20.088  0.00  0.00    +0.000 A 
ATOM      3  C   UNL     1       1.822   5.625  20.816  0.00  0.00    +0.000 A 
ATOM      4  C   UNL     1       1.752   6.909  20.266  0.00  0.00    +0.000 A 
ATOM      5  C   UNL     1       2.224   7.140  18.970  0.00  0.00    +0.000 A 
ATOM      6  C   UNL     1       2.803   6.087  18.255  0.00  0.00    +0.000 A 
ATOM      7  C   UNL     1       2.866   4.788  18.793  0.00  0.00    +0.000 A 
ENDROOT
BRANCH   5   8
ATOM      8  C   UNL     1       2.106   8.504  18.377  0.00  0.00    +0.000 C 
ATOM      9  O   UNL     1       2.574   8.735  17.268  0.00  0.00    +0.000 OA
ATOM     10  N   UNL     1       1.471   9.442  19.157  0.00  0.00    +0.000 N 
ATOM     11  H   UNL     1       1.206   9.241  20.111  0.00  0.00    +0.000 HD
BRANCH  10  12
ATOM     12  C   UNL     1       1.181  10.784  18.703  0.00  0.00    +0.000 C 
BRANCH  12  13
ATOM     13  C   UNL     1       0.617  11.552  19.852  0.00  0.00    +0.000 A 
ATOM     14  C   UNL     1      -0.280  11.128  20.811  0.00  0.00    +0.000 A 
ATOM     15  N   UNL     1      -0.489  12.203  21.636  0.00  0.00    +0.000 N 
ATOM     16  C   UNL     1      -1.315  12.319  22.751  0.00  0.00    +0.000 A 
ATOM     17  C   UNL     1      -1.366  13.489  23.412  0.00  0.00    +0.000 A 
ATOM     18  C   UNL     1      -0.555  14.600  22.933  0.00  0.00    +0.000 A 
ATOM     19  C   UNL     1       0.243  14.478  21.853  0.00  0.00    +0.000 A 
ATOM     20  C   UNL     1       0.303  13.239  21.152  0.00  0.00    +0.000 A 
ATOM     21  N   UNL     1       0.987  12.863  20.088  0.00  0.00    +0.000 NA
ENDBRANCH  12  13
ENDBRANCH  10  12
ENDBRANCH   5   8
BRANCH   7  22
ATOM     22  S   UNL     1       3.367   3.486  17.662  0.00  0.00    +0.000 S 
ATOM     23  O   UNL     1       4.317   2.651  18.361  0.00  0.00    +0.000 OA
ATOM     24  O   UNL     1       2.167   2.908  17.096  0.00  0.00    +0.000 OA
BRANCH  22  25
ATOM     25  N   UNL     1       4.221   4.230  16.408  0.00  0.00    +0.000 NA
ATOM     26  H   UNL     1       3.959   5.218  16.386  0.00  0.00    +0.000 HD
BRANCH  25  27
ATOM     27  C   UNL     1       5.673   3.983  16.367  0.00  0.00    +0.000 C 
BRANCH  27  28
ATOM     28  C   UNL     1       6.531   5.003  17.095  0.00  0.00    +0.000 A 
ATOM     29  C   UNL     1       6.512   6.341  16.653  0.00  0.00    +0.000 A 
ATOM     30  C   UNL     1       7.204   7.344  17.339  0.00  0.00    +0.000 A 
ATOM     31  C   UNL     1       7.930   7.027  18.483  0.00  0.00    +0.000 A 
ATOM     32  C   UNL     1       7.966   5.708  18.933  0.00  0.00    +0.000 A 
ATOM     33  C   UNL     1       7.270   4.702  18.247  0.00  0.00    +0.000 A 
ENDBRANCH  27  28
ENDBRANCH  25  27
ENDBRANCH  22  25
ENDBRANCH   7  22
TORSDOF 7
ENDMDL
MODEL 5
REMARK VINA RESULT:      -8.0      2.562      4.359
REMARK  Name = 
REMARK  8 active torsions:
REMARK  status: ('A' for Active; 'I' for Inactive)
REMARK    1  A    between atoms: C_1  and  C_2
REMARK    2  A    between atoms: C_5  and  C_6
REMARK    3  A    between atoms: N_8  and  C_9
REMARK    4  A    between atoms: C_9  and  C_10
REMARK    5  A    between atoms: C_20  and  S_21
REMARK    6  A    between atoms: S_21  and  N_24
REMARK    7  A    between atoms: N_24  and  C_25
REMARK    8  A    between atoms: C_25  and  C_26
REMARK                            x       y       z     vdW  Elec       q    Type
REMARK                         _______ _______ _______ _____ _____    ______ ____
ROOT
ATOM      1  C   UNL     1       2.096   3.260  21.244  0.00  0.00    +0.000 C 
ATOM      2  C   UNL     1       2.133   4.550  20.476  0.00  0.00    +0.000 A 
ATOM      3  C   UNL     1       1.817   5.748  21.160  0.00  0.00    +0.000 A 
ATOM      4  C   UNL     1       1.777   6.978  20.494  0.00  0.00    +0.000 A 
ATOM      5  C   UNL     1       2.050   7.038  19.123  0.00  0.00    +0.000 A 
ATOM      6  C   UNL     1       2.402   5.868  18.444  0.00  0.00    +0.000 A 
ATOM      7  C   UNL     1       2.431   4.623  19.101  0.00  0.00    +0.000 A 
ENDROOT
BRANCH   5   8
ATOM      8  C   UNL     1       1.963   8.347  18.413  0.00  0.00    +0.000 C 
ATOM      9  O   UNL     1       2.486   8.486  17.313  0.00  0.00    +0.000 OA
ATOM     10  N   UNL     1       1.293   9.345  19.080  0.00  0.00    +0.000 N 
ATOM     11  H   UNL     1       0.982   9.224  20.034  0.00  0.00    +0.000 HD
BRANCH  10  12
ATOM     12  C   UNL     1       1.029  10.644  18.502  0.00  0.00    +0.000 C 
BRANCH  12  13
ATOM     13  C   UNL     1      -0.447  10.867  18.515  0.00  0.00    +0.000 A 
ATOM     14  C   UNL     1      -1.414  10.266  17.734  0.00  0.00    +0.000 A 
ATOM     15  N   UNL     1      -2.608  10.817  18.120  0.00  0.00    +0.000 N 
ATOM     16  C   UNL     1      -3.894  10.575  17.641  0.00  0.00    +0.000 A 
ATOM     17  C   UNL     1      -4.931  11.245  18.173  0.00  0.00    +0.000 A 
ATOM     18  C   UNL     1      -4.671  12.209  19.234  0.00  0.00    +0.000 A 
ATOM     19  C   UNL     1      -3.424  12.436  19.693  0.00  0.00    +0.000 A 
ATOM     20  C   UNL     1      -2.323  11.725  19.135  0.00  0.00    +0.000 A 
ATOM     21  N   UNL     1      -1.030  11.759  19.396  0.00  0.00    +0.000 NA
ENDBRANCH  12  13
ENDBRANCH  10  12
ENDBRANCH   5   8
BRANCH   7  22
ATOM     22  S   UNL     1       2.616   3.177  18.052  0.00  0.00    +0.000 S 
ATOM     23  O   UNL     1       1.913   2.089  18.692  0.00  0.00    +0.000 OA
ATOM     24  O   UNL     1       2.277   3.568  16.700  0.00  0.00    +0.000 OA
BRANCH  22  25
ATOM     25  N   UNL     1       4.254   2.764  18.074  0.00  0.00    +0.000 NA
ATOM     26  H   UNL     1       4.588   2.735  17.109  0.00  0.00    +0.000 HD
BRANCH  25  27
ATOM     27  C   UNL     1       5.111   3.533  18.993  0.00  0.00    +0.000 C 
BRANCH  27  28
ATOM     28  C   UNL     1       5.864   4.695  18.369  0.00  0.00    +0.000 A 
ATOM     29  C   UNL     1       6.833   5.365  19.143  0.00  0.00    +0.000 A 
ATOM     30  C   UNL     1       7.627   6.379  18.596  0.00  0.00    +0.000 A 
ATOM     31  C   UNL     1       7.465   6.741  17.262  0.00  0.00    +0.000 A 
ATOM     32  C   UNL     1       6.508   6.094  16.483  0.00  0.00    +0.000 A 
ATOM     33  C   UNL     1       5.714   5.075  17.029  0.00  0.00    +0.000 A 
ENDBRANCH  27  28
ENDBRANCH  25  27
ENDBRANCH  22  25
ENDBRANCH   7  22
TORSDOF 7
ENDMDL
MODEL 6
REMARK VINA RESULT:      -7.9      2.387      4.621
REMARK  Name = 
REMARK  8 active torsions:
REMARK  status: ('A' for Active; 'I' for Inactive)
REMARK    1  A    between atoms: C_1  and  C_2
REMARK    2  A    between atoms: C_5  and  C_6
REMARK    3  A    between atoms: N_8  and  C_9
REMARK    4  A    between atoms: C_9  and  C_10
REMARK    5  A    between atoms: C_20  and  S_21
REMARK    6  A    between atoms: S_21  and  N_24
REMARK    7  A    between atoms: N_24  and  C_25
REMARK    8  A    between atoms: C_25  and  C_26
REMARK                            x       y       z     vdW  Elec       q    Type
REMARK                         _______ _______ _______ _____ _____    ______ ____
ROOT
ATOM      1  C   UNL     1       2.708   3.425  20.557  0.00  0.00    +0.000 C 
ATOM      2  C   UNL     1       2.585   4.826  20.027  0.00  0.00    +0.000 A 
ATOM      3  C   UNL     1       1.740   5.731  20.713  0.00  0.00    +0.000 A 
ATOM      4  C   UNL     1       1.537   7.033  20.244  0.00  0.00    +0.000 A 
ATOM      5  C   UNL     1       2.173   7.461  19.074  0.00  0.00    +0.000 A 
ATOM      6  C   UNL     1       3.041   6.590  18.409  0.00  0.00    +0.000 A 
ATOM      7  C   UNL     1       3.243   5.273  18.864  0.00  0.00    +0.000 A 
ENDROOT
BRANCH   5   8
ATOM      8  C   UNL     1       1.916   8.837  18.558  0.00  0.00    +0.000 C 
ATOM      9  O   UNL     1       2.285   9.152  17.432  0.00  0.00    +0.000 OA
ATOM     10  N   UNL     1       1.276   9.690  19.426  0.00  0.00    +0.000 N 
ATOM     11  H   UNL     1       1.096   9.428  20.385  0.00  0.00    +0.000 HD
BRANCH  10  12
ATOM     12  C   UNL     1       0.860  11.026  19.060  0.00  0.00    +0.000 C 
BRANCH  12  13
ATOM     13  C   UNL     1      -0.267  11.424  19.955  0.00  0.00    +0.000 A 
ATOM     14  C   UNL     1      -1.475  11.998  19.612  0.00  0.00    +0.000 A 
ATOM     15  N   UNL     1      -2.156  12.178  20.787  0.00  0.00    +0.000 N 
ATOM     16  C   UNL     1      -3.414  12.733  21.008  0.00  0.00    +0.000 A 
ATOM     17  C   UNL     1      -3.885  12.815  22.265  0.00  0.00    +0.000 A 
ATOM     18  C   UNL     1      -3.056  12.321  23.357  0.00  0.00    +0.000 A 
ATOM     19  C   UNL     1      -1.840  11.784  23.133  0.00  0.00    +0.000 A 
ATOM     20  C   UNL     1      -1.339  11.692  21.803  0.00  0.00    +0.000 A 
ATOM     21  N   UNL     1      -0.204  11.222  21.321  0.00  0.00    +0.000 NA
ENDBRANCH  12  13
ENDBRANCH  10  12
ENDBRANCH   5   8
BRANCH   7  22
ATOM     22  S   UNL     1       4.150   4.184  17.762  0.00  0.00    +0.000 S 
ATOM     23  O   UNL     1       5.293   3.687  18.493  0.00  0.00    +0.000 OA
ATOM     24  O   UNL     1       3.202   3.260  17.176  0.00  0.00    +0.000 OA
BRANCH  22  25
ATOM     25  N   UNL     1       4.764   5.149  16.518  0.00  0.00    +0.000 NA
ATOM     26  H   UNL     1       4.564   6.126  16.745  0.00  0.00    +0.000 HD
BRANCH  25  27
ATOM     27  C   UNL     1       6.157   4.889  16.113  0.00  0.00    +0.000 C 
BRANCH  27  28
ATOM     28  C   UNL     1       6.369   4.624  14.633  0.00  0.00    +0.000 A 
ATOM     29  C   UNL     1       7.453   5.249  13.984  0.00  0.00    +0.000 A 
ATOM     30  C   UNL     1       7.759   4.971  12.647  0.00  0.00    +0.000 A 
ATOM     31  C   UNL     1       6.985   4.060  11.935  0.00  0.00    +0.000 A 
ATOM     32  C   UNL     1       5.906   3.436  12.558  0.00  0.00    +0.000 A 
ATOM     33  C   UNL     1       5.600   3.712  13.898  0.00  0.00    +0.000 A 
ENDBRANCH  27  28
ENDBRANCH  25  27
ENDBRANCH  22  25
ENDBRANCH   7  22
TORSDOF 7
ENDMDL
MODEL 7
REMARK VINA RESULT:      -7.9      2.736      4.726
REMARK  Name = 
REMARK  8 active torsions:
REMARK  status: ('A' for Active; 'I' for Inactive)
REMARK    1  A    between atoms: C_1  and  C_2
REMARK    2  A    between atoms: C_5  and  C_6
REMARK    3  A    between atoms: N_8  and  C_9
REMARK    4  A    between atoms: C_9  and  C_10
REMARK    5  A    between atoms: C_20  and  S_21
REMARK    6  A    between atoms: S_21  and  N_24
REMARK    7  A    between atoms: N_24  and  C_25
REMARK    8  A    between atoms: C_25  and  C_26
REMARK                            x       y       z     vdW  Elec       q    Type
REMARK                         _______ _______ _______ _____ _____    ______ ____
ROOT
ATOM      1  C   UNL     1       1.943   2.352  20.424  0.00  0.00    +0.000 C 
ATOM      2  C   UNL     1       2.061   3.803  20.053  0.00  0.00    +0.000 A 
ATOM      3  C   UNL     1       1.469   4.765  20.907  0.00  0.00    +0.000 A 
ATOM      4  C   UNL     1       1.493   6.128  20.594  0.00  0.00    +0.000 A 
ATOM      5  C   UNL     1       2.109   6.563  19.416  0.00  0.00    +0.000 A 
ATOM      6  C   UNL     1       2.732   5.628  18.585  0.00  0.00    +0.000 A 
ATOM      7  C   UNL     1       2.702   4.252  18.882  0.00  0.00    +0.000 A 
ENDROOT
BRANCH   5   8
ATOM      8  C   UNL     1       2.092   8.014  19.071  0.00  0.00    +0.000 C 
ATOM      9  O   UNL     1       2.773   8.433  18.141  0.00  0.00    +0.000 OA
ATOM     10  N   UNL     1       1.298   8.808  19.864  0.00  0.00    +0.000 N 
ATOM     11  H   UNL     1       0.847   8.442  20.691  0.00  0.00    +0.000 HD
BRANCH  10  12
ATOM     12  C   UNL     1       1.085  10.216  19.613  0.00  0.00    +0.000 C 
BRANCH  12  13
ATOM     13  C   UNL     1      -0.190  10.366  18.851  0.00  0.00    +0.000 A 
ATOM     14  C   UNL     1      -0.485   9.928  17.575  0.00  0.00    +0.000 A 
ATOM     15  N   UNL     1      -1.775  10.318  17.330  0.00  0.00    +0.000 N 
ATOM     16  C   UNL     1      -2.554  10.143  16.189  0.00  0.00    +0.000 A 
ATOM     17  C   UNL     1      -3.811  10.622  16.171  0.00  0.00    +0.000 A 
ATOM     18  C   UNL     1      -4.314  11.314  17.350  0.00  0.00    +0.000 A 
ATOM     19  C   UNL     1      -3.553  11.478  18.451  0.00  0.00    +0.000 A 
ATOM     20  C   UNL     1      -2.223  10.969  18.476  0.00  0.00    +0.000 A 
ATOM     21  N   UNL     1      -1.288  10.995  19.407  0.00  0.00    +0.000 NA
ENDBRANCH  12  13
ENDBRANCH  10  12
ENDBRANCH   5   8
BRANCH   7  22
ATOM     22  S   UNL     1       3.286   3.149  17.590  0.00  0.00    +0.000 S 
ATOM     23  O   UNL     1       3.707   1.924  18.229  0.00  0.00    +0.000 OA
ATOM     24  O   UNL     1       2.282   3.120  16.548  0.00  0.00    +0.000 OA
BRANCH  22  25
ATOM     25  N   UNL     1       4.680   3.851  16.943  0.00  0.00    +0.000 NA
ATOM     26  H   UNL     1       4.408   4.705  16.452  0.00  0.00    +0.000 HD
BRANCH  25  27
ATOM     27  C   UNL     1       5.820   4.013  17.863  0.00  0.00    +0.000 C 
BRANCH  27  28
ATOM     28  C   UNL     1       6.436   5.401  17.905  0.00  0.00    +0.000 A 
ATOM     29  C   UNL     1       7.573   5.611  18.710  0.00  0.00    +0.000 A 
ATOM     30  C   UNL     1       8.243   6.839  18.717  0.00  0.00    +0.000 A 
ATOM     31  C   UNL     1       7.786   7.881  17.916  0.00  0.00    +0.000 A 
ATOM     32  C   UNL     1       6.659   7.695  17.117  0.00  0.00    +0.000 A 
ATOM     33  C   UNL     1       5.989   6.463  17.107  0.00  0.00    +0.000 A 
ENDBRANCH  27  28
ENDBRANCH  25  27
ENDBRANCH  22  25
ENDBRANCH   7  22
TORSDOF 7
ENDMDL
MODEL 8
REMARK VINA RESULT:      -7.8      2.096      2.946
REMARK  Name = 
REMARK  8 active torsions:
REMARK  status: ('A' for Active; 'I' for Inactive)
REMARK    1  A    between atoms: C_1  and  C_2
REMARK    2  A    between atoms: C_5  and  C_6
REMARK    3  A    between atoms: N_8  and  C_9
REMARK    4  A    between atoms: C_9  and  C_10
REMARK    5  A    between atoms: C_20  and  S_21
REMARK    6  A    between atoms: S_21  and  N_24
REMARK    7  A    between atoms: N_24  and  C_25
REMARK    8  A    between atoms: C_25  and  C_26
REMARK                            x       y       z     vdW  Elec       q    Type
REMARK                         _______ _______ _______ _____ _____    ______ ____
ROOT
ATOM      1  C   UNL     1       6.066   5.787  15.658  0.00  0.00    +0.000 C 
ATOM      2  C   UNL     1       5.023   6.234  16.643  0.00  0.00    +0.000 A 
ATOM      3  C   UNL     1       4.117   7.247  16.248  0.00  0.00    +0.000 A 
ATOM      4  C   UNL     1       3.157   7.750  17.133  0.00  0.00    +0.000 A 
ATOM      5  C   UNL     1       3.082   7.251  18.438  0.00  0.00    +0.000 A 
ATOM      6  C   UNL     1       3.944   6.222  18.828  0.00  0.00    +0.000 A 
ATOM      7  C   UNL     1       4.923   5.719  17.950  0.00  0.00    +0.000 A 
ENDROOT
BRANCH   5   8
ATOM      8  C   UNL     1       2.083   7.823  19.387  0.00  0.00    +0.000 C 
ATOM      9  O   UNL     1       1.765   7.201  20.395  0.00  0.00    +0.000 OA
ATOM     10  N   UNL     1       1.558   9.045  19.037  0.00  0.00    +0.000 N 
ATOM     11  H   UNL     1       1.757   9.466  18.141  0.00  0.00    +0.000 HD
BRANCH  10  12
ATOM     12  C   UNL     1       0.654   9.789  19.885  0.00  0.00    +0.000 C 
BRANCH  12  13
ATOM     13  C   UNL     1      -0.539  10.170  19.073  0.00  0.00    +0.000 A 
ATOM     14  C   UNL     1      -1.597  10.984  19.427  0.00  0.00    +0.000 A 
ATOM     15  N   UNL     1      -2.434  11.010  18.343  0.00  0.00    +0.000 N 
ATOM     16  C   UNL     1      -3.651  11.667  18.177  0.00  0.00    +0.000 A 
ATOM     17  C   UNL     1      -4.312  11.543  17.012  0.00  0.00    +0.000 A 
ATOM     18  C   UNL     1      -3.730  10.719  15.961  0.00  0.00    +0.000 A 
ATOM     19  C   UNL     1      -2.550  10.088  16.131  0.00  0.00    +0.000 A 
ATOM     20  C   UNL     1      -1.845  10.219  17.361  0.00  0.00    +0.000 A 
ATOM     21  N   UNL     1      -0.698   9.716  17.776  0.00  0.00    +0.000 NA
ENDBRANCH  12  13
ENDBRANCH  10  12
ENDBRANCH   5   8
BRANCH   7  22
ATOM     22  S   UNL     1       6.140   4.611  18.671  0.00  0.00    +0.000 S 
ATOM     23  O   UNL     1       7.248   4.531  17.748  0.00  0.00    +0.000 OA
ATOM     24  O   UNL     1       6.360   5.029  20.040  0.00  0.00    +0.000 OA
BRANCH  22  25
ATOM     25  N   UNL     1       5.439   3.074  18.708  0.00  0.00    +0.000 NA
ATOM     26  H   UNL     1       6.144   2.395  18.418  0.00  0.00    +0.000 HD
BRANCH  25  27
ATOM     27  C   UNL     1       4.716   2.714  19.941  0.00  0.00    +0.000 C 
BRANCH  27  28
ATOM     28  C   UNL     1       3.214   2.938  19.909  0.00  0.00    +0.000 A 
ATOM     29  C   UNL     1       2.537   2.804  18.680  0.00  0.00    +0.000 A 
ATOM     30  C   UNL     1       1.144   2.904  18.602  0.00  0.00    +0.000 A 
ATOM     31  C   UNL     1       0.401   3.140  19.755  0.00  0.00    +0.000 A 
ATOM     32  C   UNL     1       1.053   3.281  20.978  0.00  0.00    +0.000 A 
ATOM     33  C   UNL     1       2.449   3.178  21.058  0.00  0.00    +0.000 A 
ENDBRANCH  27  28
ENDBRANCH  25  27
ENDBRANCH  22  25
ENDBRANCH   7  22
TORSDOF 7
ENDMDL
MODEL 9
REMARK VINA RESULT:      -7.8      2.607      4.609
REMARK  Name = 
REMARK  8 active torsions:
REMARK  status: ('A' for Active; 'I' for Inactive)
REMARK    1  A    between atoms: C_1  and  C_2
REMARK    2  A    between atoms: C_5  and  C_6
REMARK    3  A    between atoms: N_8  and  C_9
REMARK    4  A    between atoms: C_9  and  C_10
REMARK    5  A    between atoms: C_20  and  S_21
REMARK    6  A    between atoms: S_21  and  N_24
REMARK    7  A    between atoms: N_24  and  C_25
REMARK    8  A    between atoms: C_25  and  C_26
REMARK                            x       y       z     vdW  Elec       q    Type
REMARK                         _______ _______ _______ _____ _____    ______ ____
ROOT
ATOM      1  C   UNL     1       2.536   3.549  21.137  0.00  0.00    +0.000 C 
ATOM      2  C   UNL     1       2.482   4.872  20.425  0.00  0.00    +0.000 A 
ATOM      3  C   UNL     1       1.736   5.921  21.014  0.00  0.00    +0.000 A 
ATOM      4  C   UNL     1       1.598   7.160  20.379  0.00  0.00    +0.000 A 
ATOM      5  C   UNL     1       2.202   7.378  19.136  0.00  0.00    +0.000 A 
ATOM      6  C   UNL     1       2.974   6.364  18.563  0.00  0.00    +0.000 A 
ATOM      7  C   UNL     1       3.108   5.109  19.186  0.00  0.00    +0.000 A 
ENDROOT
BRANCH   5   8
ATOM      8  C   UNL     1       2.014   8.689  18.448  0.00  0.00    +0.000 C 
ATOM      9  O   UNL     1       2.468   8.864  17.323  0.00  0.00    +0.000 OA
ATOM     10  N   UNL     1       1.334   9.647  19.163  0.00  0.00    +0.000 N 
ATOM     11  H   UNL     1       1.081   9.501  20.130  0.00  0.00    +0.000 HD
BRANCH  10  12
ATOM     12  C   UNL     1       0.976  10.937  18.615  0.00  0.00    +0.000 C 
BRANCH  12  13
ATOM     13  C   UNL     1      -0.514  11.022  18.561  0.00  0.00    +0.000 A 
ATOM     14  C   UNL     1      -1.388  10.300  17.772  0.00  0.00    +0.000 A 
ATOM     15  N   UNL     1      -2.642  10.753  18.086  0.00  0.00    +0.000 N 
ATOM     16  C   UNL     1      -3.878  10.372  17.568  0.00  0.00    +0.000 A 
ATOM     17  C   UNL     1      -4.994  10.965  18.028  0.00  0.00    +0.000 A 
ATOM     18  C   UNL     1      -4.869  11.993  19.053  0.00  0.00    +0.000 A 
ATOM     19  C   UNL     1      -3.669  12.355  19.548  0.00  0.00    +0.000 A 
ATOM     20  C   UNL     1      -2.485  11.726  19.067  0.00  0.00    +0.000 A 
ATOM     21  N   UNL     1      -1.213  11.892  19.377  0.00  0.00    +0.000 NA
ENDBRANCH  12  13
ENDBRANCH  10  12
ENDBRANCH   5   8
BRANCH   7  22
ATOM     22  S   UNL     1       3.883   3.817  18.207  0.00  0.00    +0.000 S 
ATOM     23  O   UNL     1       3.267   2.565  18.583  0.00  0.00    +0.000 OA
ATOM     24  O   UNL     1       3.875   4.247  16.825  0.00  0.00    +0.000 OA
BRANCH  22  25
ATOM     25  N   UNL     1       5.493   3.724  18.709  0.00  0.00    +0.000 NA
ATOM     26  H   UNL     1       5.654   2.791  19.092  0.00  0.00    +0.000 HD
BRANCH  25  27
ATOM     27  C   UNL     1       6.509   4.169  17.738  0.00  0.00    +0.000 C 
BRANCH  27  28
ATOM     28  C   UNL     1       6.939   5.620  17.859  0.00  0.00    +0.000 A 
ATOM     29  C   UNL     1       7.911   5.959  18.823  0.00  0.00    +0.000 A 
ATOM     30  C   UNL     1       8.418   7.258  18.919  0.00  0.00    +0.000 A 
ATOM     31  C   UNL     1       7.963   8.246  18.050  0.00  0.00    +0.000 A 
ATOM     32  C   UNL     1       6.998   7.932  17.094  0.00  0.00    +0.000 A 
ATOM     33  C   UNL     1       6.491   6.628  16.995  0.00  0.00    +0.000 A 
ENDBRANCH  27  28
ENDBRANCH  25  27
ENDBRANCH  22  25
ENDBRANCH   7  22
TORSDOF 7
ENDMDL
