MODEL 1
REMARK VINA RESULT:      -8.1      0.000      0.000
REMARK  Name = 
REMARK  9 active torsions:
REMARK  status: ('A' for Active; 'I' for Inactive)
REMARK    1  A    between atoms: C_1  and  N_2
REMARK    2  A    between atoms: C_6  and  C_7
REMARK    3  A    between atoms: C_7  and  C_8
REMARK    4  A    between atoms: C_7  and  C_9
REMARK    5  A    between atoms: C_7  and  C_10
REMARK    6  A    between atoms: C_14  and  N_15
REMARK    7  A    between atoms: C_17  and  C_18
REMARK    8  A    between atoms: C_18  and  C_19
REMARK    9  A    between atoms: C_23  and  C_24
REMARK                            x       y       z     vdW  Elec       q    Type
REMARK                         _______ _______ _______ _____ _____    ______ ____
ROOT
ATOM      1  C   UNL     1       4.449   5.360  17.201  0.00  0.00    +0.000 A 
ATOM      2  C   UNL     1       3.693   4.176  17.219  0.00  0.00    +0.000 A 
ATOM      3  C   UNL     1       2.416   4.152  17.776  0.00  0.00    +0.000 A 
ATOM      4  C   UNL     1       1.876   5.299  18.361  0.00  0.00    +0.000 A 
ATOM      5  C   UNL     1       2.604   6.489  18.409  0.00  0.00    +0.000 A 
ATOM      6  C   UNL     1       3.878   6.501  17.802  0.00  0.00    +0.000 A 
ENDROOT
BRANCH   5   7
ATOM      7  N   UNL     1       2.114   7.650  19.072  0.00  0.00    +0.000 N 
ATOM      8  C   UNL     1       2.001   7.717  20.503  0.00  0.00    +0.000 C 
ATOM      9  C   UNL     1       1.371   9.051  20.730  0.00  0.00    +0.000 C 
ATOM     10  C   UNL     1       1.122   9.695  19.581  0.00  0.00    +0.000 C 
ATOM     11  C   UNL     1       1.624   8.817  18.479  0.00  0.00    +0.000 C 
ATOM     12  O   UNL     1       1.577   9.130  17.301  0.00  0.00    +0.000 OA
BRANCH  10  13
ATOM     13  C   UNL     1       0.497  10.915  19.371  0.00  0.00    +0.000 C 
ATOM     14  C   UNL     1      -0.543  11.693  19.349  0.00  0.00    +0.000 C 
ATOM     15  C   UNL     1       0.739  12.290  19.066  0.00  0.00    +0.000 C 
ENDBRANCH  10  13
BRANCH   9  16
ATOM     16  C   UNL     1       1.059   9.483  22.138  0.00  0.00    +0.000 C 
BRANCH  16  17
ATOM     17  C   UNL     1      -0.395   9.312  22.579  0.00  0.00    +0.000 C 
ATOM     18  F   UNL     1      -1.161  10.384  22.287  0.00  0.00    +0.000 F 
ATOM     19  F   UNL     1      -0.960   8.238  21.989  0.00  0.00    +0.000 F 
ATOM     20  F   UNL     1      -0.461   9.129  23.918  0.00  0.00    +0.000 F 
ENDBRANCH  16  17
ENDBRANCH   9  16
ENDBRANCH   5   7
BRANCH   1  21
ATOM     21  C   UNL     1       5.864   5.364  16.583  0.00  0.00    +0.000 C 
ATOM     22  C   UNL     1       5.692   5.686  15.070  0.00  0.00    +0.000 C 
ATOM     23  C   UNL     1       6.586   3.994  16.650  0.00  0.00    +0.000 C 
BRANCH  21  29
ATOM     24  C   UNL     1       7.373   5.402  19.475  0.00  0.00    +0.000 C 
ATOM     25  N   UNL     1       7.423   6.385  18.426  0.00  0.00    +0.000 N 
ATOM     26  C   UNL     1       8.158   7.532  18.497  0.00  0.00    +0.000 A 
ATOM     27  N   UNL     1       8.045   8.201  17.377  0.00  0.00    +0.000 NA
ATOM     28  N   UNL     1       7.208   7.492  16.560  0.00  0.00    +0.000 NA
ATOM     29  C   UNL     1       6.804   6.401  17.195  0.00  0.00    +0.000 A 
ENDBRANCH  21  29
ENDBRANCH   1  21
TORSDOF 6
ENDMDL
MODEL 2
REMARK VINA RESULT:      -8.1      1.617      2.590
REMARK  Name = 
REMARK  9 active torsions:
REMARK  status: ('A' for Active; 'I' for Inactive)
REMARK    1  A    between atoms: C_1  and  N_2
REMARK    2  A    between atoms: C_6  and  C_7
REMARK    3  A    between atoms: C_7  and  C_8
REMARK    4  A    between atoms: C_7  and  C_9
REMARK    5  A    between atoms: C_7  and  C_10
REMARK    6  A    between atoms: C_14  and  N_15
REMARK    7  A    between atoms: C_17  and  C_18
REMARK    8  A    between atoms: C_18  and  C_19
REMARK    9  A    between atoms: C_23  and  C_24
REMARK                            x       y       z     vdW  Elec       q    Type
REMARK                         _______ _______ _______ _____ _____    ______ ____
ROOT
ATOM      1  C   UNL     1       4.843   5.178  17.019  0.00  0.00    +0.000 A 
ATOM      2  C   UNL     1       4.223   3.920  16.945  0.00  0.00    +0.000 A 
ATOM      3  C   UNL     1       2.928   3.732  17.424  0.00  0.00    +0.000 A 
ATOM      4  C   UNL     1       2.233   4.785  18.021  0.00  0.00    +0.000 A 
ATOM      5  C   UNL     1       2.821   6.044  18.160  0.00  0.00    +0.000 A 
ATOM      6  C   UNL     1       4.117   6.222  17.631  0.00  0.00    +0.000 A 
ENDROOT
BRANCH   5   7
ATOM      7  N   UNL     1       2.170   7.112  18.839  0.00  0.00    +0.000 N 
ATOM      8  C   UNL     1       1.976   8.396  18.224  0.00  0.00    +0.000 C 
ATOM      9  C   UNL     1       1.351   9.202  19.314  0.00  0.00    +0.000 C 
ATOM     10  C   UNL     1       1.203   8.496  20.444  0.00  0.00    +0.000 C 
ATOM     11  C   UNL     1       1.703   7.116  20.156  0.00  0.00    +0.000 C 
ATOM     12  O   UNL     1       1.677   6.212  20.974  0.00  0.00    +0.000 OA
BRANCH  10  13
ATOM     13  C   UNL     1       0.727   8.901  21.682  0.00  0.00    +0.000 C 
ATOM     14  C   UNL     1       0.864   9.449  22.852  0.00  0.00    +0.000 C 
ATOM     15  C   UNL     1      -0.459   9.017  22.472  0.00  0.00    +0.000 C 
ENDBRANCH  10  13
BRANCH   9  16
ATOM     16  C   UNL     1       1.015  10.647  19.056  0.00  0.00    +0.000 C 
BRANCH  16  17
ATOM     17  C   UNL     1      -0.455  10.945  18.760  0.00  0.00    +0.000 C 
ATOM     18  F   UNL     1      -1.213  11.004  19.876  0.00  0.00    +0.000 F 
ATOM     19  F   UNL     1      -0.594  12.121  18.114  0.00  0.00    +0.000 F 
ATOM     20  F   UNL     1      -0.981   9.978  17.973  0.00  0.00    +0.000 F 
ENDBRANCH  16  17
ENDBRANCH   9  16
ENDBRANCH   5   7
BRANCH   1  21
ATOM     21  C   UNL     1       6.281   5.364  16.488  0.00  0.00    +0.000 C 
ATOM     22  C   UNL     1       6.159   5.709  14.975  0.00  0.00    +0.000 C 
ATOM     23  C   UNL     1       7.153   4.085  16.567  0.00  0.00    +0.000 C 
BRANCH  21  29
ATOM     24  C   UNL     1       7.692   5.454  19.427  0.00  0.00    +0.000 C 
ATOM     25  N   UNL     1       7.639   6.487  18.427  0.00  0.00    +0.000 N 
ATOM     26  C   UNL     1       8.212   7.716  18.576  0.00  0.00    +0.000 A 
ATOM     27  N   UNL     1       8.041   8.420  17.486  0.00  0.00    +0.000 NA
ATOM     28  N   UNL     1       7.329   7.649  16.609  0.00  0.00    +0.000 NA
ATOM     29  C   UNL     1       7.057   6.484  17.179  0.00  0.00    +0.000 A 
ENDBRANCH  21  29
ENDBRANCH   1  21
TORSDOF 6
ENDMDL
MODEL 3
REMARK VINA RESULT:      -7.8      2.974      4.718
REMARK  Name = 
REMARK  9 active torsions:
REMARK  status: ('A' for Active; 'I' for Inactive)
REMARK    1  A    between atoms: C_1  and  N_2
REMARK    2  A    between atoms: C_6  and  C_7
REMARK    3  A    between atoms: C_7  and  C_8
REMARK    4  A    between atoms: C_7  and  C_9
REMARK    5  A    between atoms: C_7  and  C_10
REMARK    6  A    between atoms: C_14  and  N_15
REMARK    7  A    between atoms: C_17  and  C_18
REMARK    8  A    between atoms: C_18  and  C_19
REMARK    9  A    between atoms: C_23  and  C_24
REMARK                            x       y       z     vdW  Elec       q    Type
REMARK                         _______ _______ _______ _____ _____    ______ ____
ROOT
ATOM      1  C   UNL     1       3.577   5.044  18.249  0.00  0.00    +0.000 A 
ATOM      2  C   UNL     1       4.420   5.466  17.208  0.00  0.00    +0.000 A 
ATOM      3  C   UNL     1       4.452   6.802  16.811  0.00  0.00    +0.000 A 
ATOM      4  C   UNL     1       3.617   7.742  17.418  0.00  0.00    +0.000 A 
ATOM      5  C   UNL     1       2.728   7.364  18.427  0.00  0.00    +0.000 A 
ATOM      6  C   UNL     1       2.744   6.016  18.841  0.00  0.00    +0.000 A 
ENDROOT
BRANCH   5   7
ATOM      7  N   UNL     1       1.807   8.283  19.006  0.00  0.00    +0.000 N 
ATOM      8  C   UNL     1       1.235   9.363  18.251  0.00  0.00    +0.000 C 
ATOM      9  C   UNL     1       0.424  10.094  19.268  0.00  0.00    +0.000 C 
ATOM     10  C   UNL     1       0.511   9.534  20.482  0.00  0.00    +0.000 C 
ATOM     11  C   UNL     1       1.385   8.329  20.338  0.00  0.00    +0.000 C 
ATOM     12  O   UNL     1       1.641   7.574  21.260  0.00  0.00    +0.000 OA
BRANCH  10  13
ATOM     13  C   UNL     1      -0.038   9.948  21.687  0.00  0.00    +0.000 C 
ATOM     14  C   UNL     1      -0.742  10.758  22.420  0.00  0.00    +0.000 C 
ATOM     15  C   UNL     1      -0.215   9.575  23.055  0.00  0.00    +0.000 C 
ENDBRANCH  10  13
BRANCH   9  16
ATOM     16  C   UNL     1      -0.323  11.335  18.855  0.00  0.00    +0.000 C 
BRANCH  16  17
ATOM     17  C   UNL     1      -1.788  11.129  18.467  0.00  0.00    +0.000 C 
ATOM     18  F   UNL     1      -2.117   9.826  18.331  0.00  0.00    +0.000 F 
ATOM     19  F   UNL     1      -2.616  11.661  19.391  0.00  0.00    +0.000 F 
ATOM     20  F   UNL     1      -2.050  11.731  17.284  0.00  0.00    +0.000 F 
ENDBRANCH  16  17
ENDBRANCH   9  16
ENDBRANCH   5   7
BRANCH   1  21
ATOM     21  C   UNL     1       3.554   3.558  18.670  0.00  0.00    +0.000 C 
ATOM     22  C   UNL     1       5.025   3.155  18.976  0.00  0.00    +0.000 C 
ATOM     23  C   UNL     1       3.068   2.595  17.557  0.00  0.00    +0.000 C 
BRANCH  21  29
ATOM     24  C   UNL     1       0.393   2.800  18.944  0.00  0.00    +0.000 C 
ATOM     25  N   UNL     1       1.369   2.963  19.988  0.00  0.00    +0.000 N 
ATOM     26  C   UNL     1       1.092   2.807  21.315  0.00  0.00    +0.000 A 
ATOM     27  N   UNL     1       2.184   2.970  22.018  0.00  0.00    +0.000 NA
ATOM     28  N   UNL     1       3.195   3.255  21.142  0.00  0.00    +0.000 NA
ATOM     29  C   UNL     1       2.707   3.279  19.910  0.00  0.00    +0.000 A 
ENDBRANCH  21  29
ENDBRANCH   1  21
TORSDOF 6
ENDMDL
MODEL 4
REMARK VINA RESULT:      -7.7      0.828      1.023
REMARK  Name = 
REMARK  9 active torsions:
REMARK  status: ('A' for Active; 'I' for Inactive)
REMARK    1  A    between atoms: C_1  and  N_2
REMARK    2  A    between atoms: C_6  and  C_7
REMARK    3  A    between atoms: C_7  and  C_8
REMARK    4  A    between atoms: C_7  and  C_9
REMARK    5  A    between atoms: C_7  and  C_10
REMARK    6  A    between atoms: C_14  and  N_15
REMARK    7  A    between atoms: C_17  and  C_18
REMARK    8  A    between atoms: C_18  and  C_19
REMARK    9  A    between atoms: C_23  and  C_24
REMARK                            x       y       z     vdW  Elec       q    Type
REMARK                         _______ _______ _______ _____ _____    ______ ____
ROOT
ATOM      1  C   UNL     1       4.655   5.228  17.483  0.00  0.00    +0.000 A 
ATOM      2  C   UNL     1       4.214   3.920  17.742  0.00  0.00    +0.000 A 
ATOM      3  C   UNL     1       3.041   3.691  18.458  0.00  0.00    +0.000 A 
ATOM      4  C   UNL     1       2.298   4.760  18.964  0.00  0.00    +0.000 A 
ATOM      5  C   UNL     1       2.718   6.078  18.773  0.00  0.00    +0.000 A 
ATOM      6  C   UNL     1       3.886   6.287  18.010  0.00  0.00    +0.000 A 
ENDROOT
BRANCH   5   7
ATOM      7  N   UNL     1       2.028   7.182  19.348  0.00  0.00    +0.000 N 
ATOM      8  C   UNL     1       1.297   7.064  20.579  0.00  0.00    +0.000 C 
ATOM      9  C   UNL     1       0.680   8.414  20.737  0.00  0.00    +0.000 C 
ATOM     10  C   UNL     1       0.989   9.233  19.722  0.00  0.00    +0.000 C 
ATOM     11  C   UNL     1       1.894   8.466  18.811  0.00  0.00    +0.000 C 
ATOM     12  O   UNL     1       2.384   8.941  17.801  0.00  0.00    +0.000 OA
BRANCH  10  13
ATOM     13  C   UNL     1       0.566  10.530  19.475  0.00  0.00    +0.000 C 
ATOM     14  C   UNL     1      -0.187  11.410  18.885  0.00  0.00    +0.000 C 
ATOM     15  C   UNL     1       0.729  11.888  19.892  0.00  0.00    +0.000 C 
ENDBRANCH  10  13
BRANCH   9  16
ATOM     16  C   UNL     1      -0.206   8.680  21.925  0.00  0.00    +0.000 C 
BRANCH  16  17
ATOM     17  C   UNL     1       0.392   9.573  23.013  0.00  0.00    +0.000 C 
ATOM     18  F   UNL     1       1.743   9.592  22.992  0.00  0.00    +0.000 F 
ATOM     19  F   UNL     1      -0.032  10.847  22.885  0.00  0.00    +0.000 F 
ATOM     20  F   UNL     1       0.020   9.135  24.238  0.00  0.00    +0.000 F 
ENDBRANCH  16  17
ENDBRANCH   9  16
ENDBRANCH   5   7
BRANCH   1  21
ATOM     21  C   UNL     1       5.961   5.461  16.691  0.00  0.00    +0.000 C 
ATOM     22  C   UNL     1       5.544   5.890  15.255  0.00  0.00    +0.000 C 
ATOM     23  C   UNL     1       6.831   4.190  16.524  0.00  0.00    +0.000 C 
BRANCH  21  29
ATOM     24  C   UNL     1       7.774   5.465  19.403  0.00  0.00    +0.000 C 
ATOM     25  N   UNL     1       7.609   6.516  18.434  0.00  0.00    +0.000 N 
ATOM     26  C   UNL     1       8.231   7.728  18.517  0.00  0.00    +0.000 A 
ATOM     27  N   UNL     1       7.927   8.455  17.471  0.00  0.00    +0.000 NA
ATOM     28  N   UNL     1       7.077   7.717  16.694  0.00  0.00    +0.000 NA
ATOM     29  C   UNL     1       6.857   6.549  17.280  0.00  0.00    +0.000 A 
ENDBRANCH  21  29
ENDBRANCH   1  21
TORSDOF 6
ENDMDL
MODEL 5
REMARK VINA RESULT:      -7.6      2.024      2.836
REMARK  Name = 
REMARK  9 active torsions:
REMARK  status: ('A' for Active; 'I' for Inactive)
REMARK    1  A    between atoms: C_1  and  N_2
REMARK    2  A    between atoms: C_6  and  C_7
REMARK    3  A    between atoms: C_7  and  C_8
REMARK    4  A    between atoms: C_7  and  C_9
REMARK    5  A    between atoms: C_7  and  C_10
REMARK    6  A    between atoms: C_14  and  N_15
REMARK    7  A    between atoms: C_17  and  C_18
REMARK    8  A    between atoms: C_18  and  C_19
REMARK    9  A    between atoms: C_23  and  C_24
REMARK                            x       y       z     vdW  Elec       q    Type
REMARK                         _______ _______ _______ _____ _____    ______ ____
ROOT
ATOM      1  C   UNL     1       4.614   5.448  17.389  0.00  0.00    +0.000 A 
ATOM      2  C   UNL     1       4.106   4.173  17.688  0.00  0.00    +0.000 A 
ATOM      3  C   UNL     1       2.878   4.026  18.329  0.00  0.00    +0.000 A 
ATOM      4  C   UNL     1       2.144   5.147  18.721  0.00  0.00    +0.000 A 
ATOM      5  C   UNL     1       2.626   6.437  18.488  0.00  0.00    +0.000 A 
ATOM      6  C   UNL     1       3.851   6.561  17.800  0.00  0.00    +0.000 A 
ENDROOT
BRANCH   5   7
ATOM      7  N   UNL     1       1.941   7.596  18.950  0.00  0.00    +0.000 N 
ATOM      8  C   UNL     1       1.706   8.729  18.099  0.00  0.00    +0.000 C 
ATOM      9  C   UNL     1       1.055   9.711  19.016  0.00  0.00    +0.000 C 
ATOM     10  C   UNL     1       0.930   9.234  20.262  0.00  0.00    +0.000 C 
ATOM     11  C   UNL     1       1.474   7.841  20.245  0.00  0.00    +0.000 C 
ATOM     12  O   UNL     1       1.477   7.112  21.223  0.00  0.00    +0.000 OA
BRANCH  10  13
ATOM     13  C   UNL     1       0.441   9.857  21.400  0.00  0.00    +0.000 C 
ATOM     14  C   UNL     1       0.168  10.904  22.119  0.00  0.00    +0.000 C 
ATOM     15  C   UNL     1      -0.240   9.620  22.634  0.00  0.00    +0.000 C 
ENDBRANCH  10  13
BRANCH   9  16
ATOM     16  C   UNL     1       0.673  11.067  18.484  0.00  0.00    +0.000 C 
BRANCH  16  17
ATOM     17  C   UNL     1       1.744  12.152  18.604  0.00  0.00    +0.000 C 
ATOM     18  F   UNL     1       1.356  13.333  18.074  0.00  0.00    +0.000 F 
ATOM     19  F   UNL     1       2.069  12.376  19.894  0.00  0.00    +0.000 F 
ATOM     20  F   UNL     1       2.869  11.776  17.953  0.00  0.00    +0.000 F 
ENDBRANCH  16  17
ENDBRANCH   9  16
ENDBRANCH   5   7
BRANCH   1  21
ATOM     21  C   UNL     1       5.979   5.590  16.681  0.00  0.00    +0.000 C 
ATOM     22  C   UNL     1       5.682   6.007  15.212  0.00  0.00    +0.000 C 
ATOM     23  C   UNL     1       6.785   4.269  16.597  0.00  0.00    +0.000 C 
BRANCH  21  29
ATOM     24  C   UNL     1       7.686   5.518  19.460  0.00  0.00    +0.000 C 
ATOM     25  N   UNL     1       7.601   6.575  18.489  0.00  0.00    +0.000 N 
ATOM     26  C   UNL     1       8.268   7.761  18.598  0.00  0.00    +0.000 A 
ATOM     27  N   UNL     1       8.034   8.500  17.543  0.00  0.00    +0.000 NA
ATOM     28  N   UNL     1       7.186   7.798  16.732  0.00  0.00    +0.000 NA
ATOM     29  C   UNL     1       6.896   6.639  17.307  0.00  0.00    +0.000 A 
ENDBRANCH  21  29
ENDBRANCH   1  21
TORSDOF 6
ENDMDL
MODEL 6
REMARK VINA RESULT:      -7.6      2.041      2.762
REMARK  Name = 
REMARK  9 active torsions:
REMARK  status: ('A' for Active; 'I' for Inactive)
REMARK    1  A    between atoms: C_1  and  N_2
REMARK    2  A    between atoms: C_6  and  C_7
REMARK    3  A    between atoms: C_7  and  C_8
REMARK    4  A    between atoms: C_7  and  C_9
REMARK    5  A    between atoms: C_7  and  C_10
REMARK    6  A    between atoms: C_14  and  N_15
REMARK    7  A    between atoms: C_17  and  C_18
REMARK    8  A    between atoms: C_18  and  C_19
REMARK    9  A    between atoms: C_23  and  C_24
REMARK                            x       y       z     vdW  Elec       q    Type
REMARK                         _______ _______ _______ _____ _____    ______ ____
ROOT
ATOM      1  C   UNL     1       4.378   5.918  18.138  0.00  0.00    +0.000 A 
ATOM      2  C   UNL     1       4.190   4.764  18.916  0.00  0.00    +0.000 A 
ATOM      3  C   UNL     1       3.144   4.682  19.832  0.00  0.00    +0.000 A 
ATOM      4  C   UNL     1       2.281   5.763  20.022  0.00  0.00    +0.000 A 
ATOM      5  C   UNL     1       2.452   6.951  19.307  0.00  0.00    +0.000 A 
ATOM      6  C   UNL     1       3.493   6.995  18.355  0.00  0.00    +0.000 A 
ENDROOT
BRANCH   5   7
ATOM      7  N   UNL     1       1.641   8.097  19.539  0.00  0.00    +0.000 N 
ATOM      8  C   UNL     1       1.230   8.966  18.471  0.00  0.00    +0.000 C 
ATOM      9  C   UNL     1       0.493  10.051  19.183  0.00  0.00    +0.000 C 
ATOM     10  C   UNL     1       0.478   9.866  20.510  0.00  0.00    +0.000 C 
ATOM     11  C   UNL     1       1.195   8.581  20.773  0.00  0.00    +0.000 C 
ATOM     12  O   UNL     1       1.329   8.105  21.887  0.00  0.00    +0.000 OA
BRANCH  10  13
ATOM     13  C   UNL     1      -0.044  10.676  21.507  0.00  0.00    +0.000 C 
ATOM     14  C   UNL     1      -0.308  11.831  22.041  0.00  0.00    +0.000 C 
ATOM     15  C   UNL     1      -0.804  10.657  22.718  0.00  0.00    +0.000 C 
ENDBRANCH  10  13
BRANCH   9  16
ATOM     16  C   UNL     1      -0.079  11.192  18.384  0.00  0.00    +0.000 C 
BRANCH  16  17
ATOM     17  C   UNL     1      -1.592  11.155  18.164  0.00  0.00    +0.000 C 
ATOM     18  F   UNL     1      -2.285  11.699  19.187  0.00  0.00    +0.000 F 
ATOM     19  F   UNL     1      -1.938  11.820  17.042  0.00  0.00    +0.000 F 
ATOM     20  F   UNL     1      -2.016   9.877  18.032  0.00  0.00    +0.000 F 
ENDBRANCH  16  17
ENDBRANCH   9  16
ENDBRANCH   5   7
BRANCH   1  21
ATOM     21  C   UNL     1       5.547   5.991  17.132  0.00  0.00    +0.000 C 
ATOM     22  C   UNL     1       4.964   6.566  15.808  0.00  0.00    +0.000 C 
ATOM     23  C   UNL     1       6.153   4.612  16.770  0.00  0.00    +0.000 C 
BRANCH  21  29
ATOM     24  C   UNL     1       7.773   5.550  19.475  0.00  0.00    +0.000 C 
ATOM     25  N   UNL     1       7.622   6.668  18.582  0.00  0.00    +0.000 N 
ATOM     26  C   UNL     1       8.441   7.760  18.589  0.00  0.00    +0.000 A 
ATOM     27  N   UNL     1       8.088   8.585  17.636  0.00  0.00    +0.000 NA
ATOM     28  N   UNL     1       7.006   8.037  17.001  0.00  0.00    +0.000 NA
ATOM     29  C   UNL     1       6.699   6.887  17.583  0.00  0.00    +0.000 A 
ENDBRANCH  21  29
ENDBRANCH   1  21
TORSDOF 6
ENDMDL
MODEL 7
REMARK VINA RESULT:      -7.6      3.033      4.660
REMARK  Name = 
REMARK  9 active torsions:
REMARK  status: ('A' for Active; 'I' for Inactive)
REMARK    1  A    between atoms: C_1  and  N_2
REMARK    2  A    between atoms: C_6  and  C_7
REMARK    3  A    between atoms: C_7  and  C_8
REMARK    4  A    between atoms: C_7  and  C_9
REMARK    5  A    between atoms: C_7  and  C_10
REMARK    6  A    between atoms: C_14  and  N_15
REMARK    7  A    between atoms: C_17  and  C_18
REMARK    8  A    between atoms: C_18  and  C_19
REMARK    9  A    between atoms: C_23  and  C_24
REMARK                            x       y       z     vdW  Elec       q    Type
REMARK                         _______ _______ _______ _____ _____    ______ ____
ROOT
ATOM      1  C   UNL     1       3.645   5.375  17.991  0.00  0.00    +0.000 A 
ATOM      2  C   UNL     1       4.533   5.898  17.037  0.00  0.00    +0.000 A 
ATOM      3  C   UNL     1       4.548   7.261  16.746  0.00  0.00    +0.000 A 
ATOM      4  C   UNL     1       3.653   8.129  17.373  0.00  0.00    +0.000 A 
ATOM      5  C   UNL     1       2.719   7.653  18.296  0.00  0.00    +0.000 A 
ATOM      6  C   UNL     1       2.751   6.277  18.606  0.00  0.00    +0.000 A 
ENDROOT
BRANCH   5   7
ATOM      7  N   UNL     1       1.740   8.500  18.888  0.00  0.00    +0.000 N 
ATOM      8  C   UNL     1       1.068   9.524  18.137  0.00  0.00    +0.000 C 
ATOM      9  C   UNL     1       0.223  10.198  19.166  0.00  0.00    +0.000 C 
ATOM     10  C   UNL     1       0.380   9.657  20.383  0.00  0.00    +0.000 C 
ATOM     11  C   UNL     1       1.344   8.525  20.228  0.00  0.00    +0.000 C 
ATOM     12  O   UNL     1       1.678   7.801  21.150  0.00  0.00    +0.000 OA
BRANCH  10  13
ATOM     13  C   UNL     1      -0.176  10.038  21.595  0.00  0.00    +0.000 C 
ATOM     14  C   UNL     1      -0.811  10.867  22.368  0.00  0.00    +0.000 C 
ATOM     15  C   UNL     1      -0.466   9.578  22.917  0.00  0.00    +0.000 C 
ENDBRANCH  10  13
BRANCH   9  16
ATOM     16  C   UNL     1      -0.629  11.371  18.760  0.00  0.00    +0.000 C 
BRANCH  16  17
ATOM     17  C   UNL     1      -1.990  11.025  18.154  0.00  0.00    +0.000 C 
ATOM     18  F   UNL     1      -2.077  11.341  16.844  0.00  0.00    +0.000 F 
ATOM     19  F   UNL     1      -2.254   9.707  18.271  0.00  0.00    +0.000 F 
ATOM     20  F   UNL     1      -2.974  11.701  18.792  0.00  0.00    +0.000 F 
ENDBRANCH  16  17
ENDBRANCH   9  16
ENDBRANCH   5   7
BRANCH   1  21
ATOM     21  C   UNL     1       3.641   3.861  18.296  0.00  0.00    +0.000 C 
ATOM     22  C   UNL     1       4.679   3.630  19.433  0.00  0.00    +0.000 C 
ATOM     23  C   UNL     1       4.102   2.978  17.109  0.00  0.00    +0.000 C 
BRANCH  21  29
ATOM     24  C   UNL     1       2.212   3.982  21.226  0.00  0.00    +0.000 C 
ATOM     25  N   UNL     1       1.716   3.393  20.011  0.00  0.00    +0.000 N 
ATOM     26  C   UNL     1       0.504   2.774  19.909  0.00  0.00    +0.000 A 
ATOM     27  N   UNL     1       0.308   2.383  18.674  0.00  0.00    +0.000 NA
ATOM     28  N   UNL     1       1.417   2.735  17.954  0.00  0.00    +0.000 NA
ATOM     29  C   UNL     1       2.288   3.326  18.759  0.00  0.00    +0.000 A 
ENDBRANCH  21  29
ENDBRANCH   1  21
TORSDOF 6
ENDMDL
MODEL 8
REMARK VINA RESULT:      -7.5      1.594      2.361
REMARK  Name = 
REMARK  9 active torsions:
REMARK  status: ('A' for Active; 'I' for Inactive)
REMARK    1  A    between atoms: C_1  and  N_2
REMARK    2  A    between atoms: C_6  and  C_7
REMARK    3  A    between atoms: C_7  and  C_8
REMARK    4  A    between atoms: C_7  and  C_9
REMARK    5  A    between atoms: C_7  and  C_10
REMARK    6  A    between atoms: C_14  and  N_15
REMARK    7  A    between atoms: C_17  and  C_18
REMARK    8  A    between atoms: C_18  and  C_19
REMARK    9  A    between atoms: C_23  and  C_24
REMARK                            x       y       z     vdW  Elec       q    Type
REMARK                         _______ _______ _______ _____ _____    ______ ____
ROOT
ATOM      1  C   UNL     1       3.342   5.830  18.827  0.00  0.00    +0.000 A 
ATOM      2  C   UNL     1       2.946   4.863  19.765  0.00  0.00    +0.000 A 
ATOM      3  C   UNL     1       1.981   5.153  20.727  0.00  0.00    +0.000 A 
ATOM      4  C   UNL     1       1.414   6.427  20.800  0.00  0.00    +0.000 A 
ATOM      5  C   UNL     1       1.806   7.438  19.920  0.00  0.00    +0.000 A 
ATOM      6  C   UNL     1       2.754   7.109  18.928  0.00  0.00    +0.000 A 
ENDROOT
BRANCH   5   7
ATOM      7  N   UNL     1       1.307   8.767  20.024  0.00  0.00    +0.000 N 
ATOM      8  C   UNL     1       1.140   9.419  21.293  0.00  0.00    +0.000 C 
ATOM      9  C   UNL     1       0.522  10.726  20.923  0.00  0.00    +0.000 C 
ATOM     10  C   UNL     1       0.327  10.837  19.602  0.00  0.00    +0.000 C 
ATOM     11  C   UNL     1       0.858   9.584  18.982  0.00  0.00    +0.000 C 
ATOM     12  O   UNL     1       0.862   9.382  17.780  0.00  0.00    +0.000 OA
BRANCH  10  13
ATOM     13  C   UNL     1      -0.272  11.860  18.882  0.00  0.00    +0.000 C 
ATOM     14  C   UNL     1      -0.318  13.069  18.407  0.00  0.00    +0.000 C 
ATOM     15  C   UNL     1      -1.377  12.166  18.028  0.00  0.00    +0.000 C 
ENDBRANCH  10  13
BRANCH   9  16
ATOM     16  C   UNL     1       0.162  11.701  22.014  0.00  0.00    +0.000 C 
BRANCH  16  17
ATOM     17  C   UNL     1      -1.253  11.573  22.578  0.00  0.00    +0.000 C 
ATOM     18  F   UNL     1      -1.549  12.539  23.475  0.00  0.00    +0.000 F 
ATOM     19  F   UNL     1      -2.177  11.635  21.597  0.00  0.00    +0.000 F 
ATOM     20  F   UNL     1      -1.401  10.386  23.209  0.00  0.00    +0.000 F 
ENDBRANCH  16  17
ENDBRANCH   9  16
ENDBRANCH   5   7
BRANCH   1  21
ATOM     21  C   UNL     1       4.417   5.490  17.772  0.00  0.00    +0.000 C 
ATOM     22  C   UNL     1       4.436   6.667  16.754  0.00  0.00    +0.000 C 
ATOM     23  C   UNL     1       4.108   4.215  16.947  0.00  0.00    +0.000 C 
BRANCH  21  29
ATOM     24  C   UNL     1       7.211   4.640  16.319  0.00  0.00    +0.000 C 
ATOM     25  N   UNL     1       6.983   4.961  17.702  0.00  0.00    +0.000 N 
ATOM     26  C   UNL     1       7.963   4.962  18.652  0.00  0.00    +0.000 A 
ATOM     27  N   UNL     1       7.465   5.341  19.802  0.00  0.00    +0.000 NA
ATOM     28  N   UNL     1       6.131   5.577  19.612  0.00  0.00    +0.000 NA
ATOM     29  C   UNL     1       5.822   5.326  18.348  0.00  0.00    +0.000 A 
ENDBRANCH  21  29
ENDBRANCH   1  21
TORSDOF 6
ENDMDL
MODEL 9
REMARK VINA RESULT:      -7.5      2.432      4.114
REMARK  Name = 
REMARK  9 active torsions:
REMARK  status: ('A' for Active; 'I' for Inactive)
REMARK    1  A    between atoms: C_1  and  N_2
REMARK    2  A    between atoms: C_6  and  C_7
REMARK    3  A    between atoms: C_7  and  C_8
REMARK    4  A    between atoms: C_7  and  C_9
REMARK    5  A    between atoms: C_7  and  C_10
REMARK    6  A    between atoms: C_14  and  N_15
REMARK    7  A    between atoms: C_17  and  C_18
REMARK    8  A    between atoms: C_18  and  C_19
REMARK    9  A    between atoms: C_23  and  C_24
REMARK                            x       y       z     vdW  Elec       q    Type
REMARK                         _______ _______ _______ _____ _____    ______ ____
ROOT
ATOM      1  C   UNL     1       3.779   4.676  18.457  0.00  0.00    +0.000 A 
ATOM      2  C   UNL     1       4.552   5.024  17.338  0.00  0.00    +0.000 A 
ATOM      3  C   UNL     1       4.552   6.328  16.846  0.00  0.00    +0.000 A 
ATOM      4  C   UNL     1       3.751   7.308  17.437  0.00  0.00    +0.000 A 
ATOM      5  C   UNL     1       2.929   7.003  18.524  0.00  0.00    +0.000 A 
ATOM      6  C   UNL     1       2.978   5.687  19.030  0.00  0.00    +0.000 A 
ENDROOT
BRANCH   5   7
ATOM      7  N   UNL     1       2.042   7.959  19.093  0.00  0.00    +0.000 N 
ATOM      8  C   UNL     1       1.383   7.730  20.349  0.00  0.00    +0.000 C 
ATOM      9  C   UNL     1       0.506   8.929  20.494  0.00  0.00    +0.000 C 
ATOM     10  C   UNL     1       0.613   9.763  19.451  0.00  0.00    +0.000 C 
ATOM     11  C   UNL     1       1.632   9.171  18.530  0.00  0.00    +0.000 C 
ATOM     12  O   UNL     1       1.987   9.705  17.493  0.00  0.00    +0.000 OA
BRANCH  10  13
ATOM     13  C   UNL     1      -0.076  10.938  19.186  0.00  0.00    +0.000 C 
ATOM     14  C   UNL     1      -0.137  12.203  18.899  0.00  0.00    +0.000 C 
ATOM     15  C   UNL     1      -1.382  11.478  18.973  0.00  0.00    +0.000 C 
ENDBRANCH  10  13
BRANCH   9  16
ATOM     16  C   UNL     1      -0.384   9.043  21.704  0.00  0.00    +0.000 C 
BRANCH  16  17
ATOM     17  C   UNL     1       0.188   9.839  22.877  0.00  0.00    +0.000 C 
ATOM     18  F   UNL     1       0.066   9.195  24.057  0.00  0.00    +0.000 F 
ATOM     19  F   UNL     1       1.499  10.103  22.694  0.00  0.00    +0.000 F 
ATOM     20  F   UNL     1      -0.457  11.022  23.001  0.00  0.00    +0.000 F 
ENDBRANCH  16  17
ENDBRANCH   9  16
ENDBRANCH   5   7
BRANCH   1  21
ATOM     21  C   UNL     1       3.790   3.224  18.983  0.00  0.00    +0.000 C 
ATOM     22  C   UNL     1       5.228   2.949  19.510  0.00  0.00    +0.000 C 
ATOM     23  C   UNL     1       3.522   2.157  17.892  0.00  0.00    +0.000 C 
BRANCH  21  29
ATOM     24  C   UNL     1       0.567   2.726  18.906  0.00  0.00    +0.000 C 
ATOM     25  N   UNL     1       1.440   2.764  20.048  0.00  0.00    +0.000 N 
ATOM     26  C   UNL     1       1.017   2.580  21.332  0.00  0.00    +0.000 A 
ATOM     27  N   UNL     1       2.040   2.621  22.147  0.00  0.00    +0.000 NA
ATOM     28  N   UNL     1       3.156   2.855  21.391  0.00  0.00    +0.000 NA
ATOM     29  C   UNL     1       2.801   2.969  20.119  0.00  0.00    +0.000 A 
ENDBRANCH  21  29
ENDBRANCH   1  21
TORSDOF 6
ENDMDL
