MODEL 1
REMARK VINA RESULT:      -8.9      0.000      0.000
REMARK  Name = 
REMARK  5 active torsions:
REMARK  status: ('A' for Active; 'I' for Inactive)
REMARK    1  A    between atoms: N_1  and  S_2
REMARK    2  A    between atoms: S_2  and  C_5
REMARK    3  A    between atoms: C_9  and  C_10
REMARK    4  A    between atoms: C_10  and  N_11
REMARK    5  A    between atoms: C_18  and  C_19
REMARK                            x       y       z     vdW  Elec       q    Type
REMARK                         _______ _______ _______ _____ _____    ______ ____
ROOT
ATOM      1  N   UNL     1       1.394   6.719  21.026  0.00  0.00    +0.000 N 
ATOM      2  C   UNL     1       1.874   5.586  20.408  0.00  0.00    +0.000 A 
ATOM      3  C   UNL     1       1.091   4.314  20.538  0.00  0.00    +0.000 A 
ATOM      4  C   UNL     1       1.519   3.222  19.891  0.00  0.00    +0.000 A 
ATOM      5  C   UNL     1       2.705   3.297  19.134  0.00  0.00    +0.000 A 
ATOM      6  N   UNL     1       3.343   2.426  18.386  0.00  0.00    +0.000 NA
ATOM      7  N   UNL     1       4.461   3.054  17.883  0.00  0.00    +0.000 NA
ATOM      8  C   UNL     1       4.503   4.292  18.353  0.00  0.00    +0.000 A 
ATOM      9  N   UNL     1       3.377   4.498  19.131  0.00  0.00    +0.000 N 
ATOM     10  N   UNL     1       2.989   5.661  19.733  0.00  0.00    +0.000 NA
ATOM     11  H   UNL     1       0.441   6.690  21.369  0.00  0.00    +0.000 HD
ENDROOT
BRANCH   8  12
ATOM     12  C   UNL     1       5.532   5.291  18.069  0.00  0.00    +0.000 A 
ATOM     13  C   UNL     1       6.668   5.387  18.878  0.00  0.00    +0.000 A 
ATOM     14  C   UNL     1       7.655   6.328  18.588  0.00  0.00    +0.000 A 
ATOM     15  C   UNL     1       7.471   7.160  17.497  0.00  0.00    +0.000 A 
ATOM     16  N   UNL     1       6.383   7.119  16.702  0.00  0.00    +0.000 NA
ATOM     17  C   UNL     1       5.442   6.191  17.010  0.00  0.00    +0.000 A 
ENDBRANCH   8  12
BRANCH   1  18
ATOM     18  C   UNL     1       1.810   8.040  20.580  0.00  0.00    +0.000 C 
BRANCH  18  23
ATOM     19  C   UNL     1      -0.568  11.017  20.727  0.00  0.00    +0.000 A 
ATOM     20  C   UNL     1      -0.910  11.054  22.081  0.00  0.00    +0.000 A 
ATOM     21  C   UNL     1      -0.354  10.116  22.951  0.00  0.00    +0.000 A 
ATOM     22  C   UNL     1       0.527   9.144  22.466  0.00  0.00    +0.000 A 
ATOM     23  C   UNL     1       0.860   9.091  21.104  0.00  0.00    +0.000 A 
ATOM     24  C   UNL     1       0.304  10.040  20.234  0.00  0.00    +0.000 A 
BRANCH  19  25
ATOM     25  S   UNL     1      -1.233  12.227  19.621  0.00  0.00    +0.000 S 
ATOM     26  O   UNL     1      -0.867  13.538  20.098  0.00  0.00    +0.000 OA
ATOM     27  O   UNL     1      -2.593  11.868  19.288  0.00  0.00    +0.000 OA
BRANCH  25  28
ATOM     28  N   UNL     1      -0.348  11.961  18.219  0.00  0.00    +0.000 NA
ATOM     29  H   UNL     1      -0.974  11.660  17.472  0.00  0.00    +0.000 HD
ATOM     30  H   UNL     1       0.412  11.306  18.405  0.00  0.00    +0.000 HD
ENDBRANCH  25  28
ENDBRANCH  19  25
ENDBRANCH  18  23
ENDBRANCH   1  18
TORSDOF 5
ENDMDL
MODEL 2
REMARK VINA RESULT:      -8.9      0.942      1.121
REMARK  Name = 
REMARK  5 active torsions:
REMARK  status: ('A' for Active; 'I' for Inactive)
REMARK    1  A    between atoms: N_1  and  S_2
REMARK    2  A    between atoms: S_2  and  C_5
REMARK    3  A    between atoms: C_9  and  C_10
REMARK    4  A    between atoms: C_10  and  N_11
REMARK    5  A    between atoms: C_18  and  C_19
REMARK                            x       y       z     vdW  Elec       q    Type
REMARK                         _______ _______ _______ _____ _____    ______ ____
ROOT
ATOM      1  N   UNL     1       1.433   7.110  20.897  0.00  0.00    +0.000 N 
ATOM      2  C   UNL     1       1.903   5.926  20.377  0.00  0.00    +0.000 A 
ATOM      3  C   UNL     1       1.089   4.682  20.578  0.00  0.00    +0.000 A 
ATOM      4  C   UNL     1       1.509   3.537  20.023  0.00  0.00    +0.000 A 
ATOM      5  C   UNL     1       2.716   3.533  19.296  0.00  0.00    +0.000 A 
ATOM      6  N   UNL     1       3.353   2.597  18.630  0.00  0.00    +0.000 NA
ATOM      7  N   UNL     1       4.497   3.164  18.113  0.00  0.00    +0.000 NA
ATOM      8  C   UNL     1       4.554   4.432  18.492  0.00  0.00    +0.000 A 
ATOM      9  N   UNL     1       3.414   4.717  19.223  0.00  0.00    +0.000 N 
ATOM     10  N   UNL     1       3.036   5.929  19.728  0.00  0.00    +0.000 NA
ATOM     11  H   UNL     1       0.471   7.126  21.216  0.00  0.00    +0.000 HD
ENDROOT
BRANCH   8  12
ATOM     12  C   UNL     1       5.612   5.387  18.165  0.00  0.00    +0.000 A 
ATOM     13  C   UNL     1       6.754   5.481  18.965  0.00  0.00    +0.000 A 
ATOM     14  C   UNL     1       7.767   6.380  18.633  0.00  0.00    +0.000 A 
ATOM     15  C   UNL     1       7.604   7.171  17.509  0.00  0.00    +0.000 A 
ATOM     16  N   UNL     1       6.511   7.131  16.720  0.00  0.00    +0.000 NA
ATOM     17  C   UNL     1       5.544   6.245  17.069  0.00  0.00    +0.000 A 
ENDBRANCH   8  12
BRANCH   1  18
ATOM     18  C   UNL     1       1.888   8.386  20.368  0.00  0.00    +0.000 C 
BRANCH  18  23
ATOM     19  C   UNL     1      -0.972  10.771  19.550  0.00  0.00    +0.000 A 
ATOM     20  C   UNL     1      -1.213  11.376  20.785  0.00  0.00    +0.000 A 
ATOM     21  C   UNL     1      -0.434  11.017  21.884  0.00  0.00    +0.000 A 
ATOM     22  C   UNL     1       0.570  10.054  21.749  0.00  0.00    +0.000 A 
ATOM     23  C   UNL     1       0.805   9.429  20.514  0.00  0.00    +0.000 A 
ATOM     24  C   UNL     1       0.023   9.798  19.410  0.00  0.00    +0.000 A 
BRANCH  19  25
ATOM     25  S   UNL     1      -1.925  11.249  18.137  0.00  0.00    +0.000 S 
ATOM     26  O   UNL     1      -3.232  11.665  18.582  0.00  0.00    +0.000 OA
ATOM     27  O   UNL     1      -1.730  10.279  17.084  0.00  0.00    +0.000 OA
BRANCH  25  28
ATOM     28  N   UNL     1      -1.131  12.634  17.616  0.00  0.00    +0.000 NA
ATOM     29  H   UNL     1      -1.357  13.412  18.236  0.00  0.00    +0.000 HD
ATOM     30  H   UNL     1      -1.353  12.815  16.636  0.00  0.00    +0.000 HD
ENDBRANCH  25  28
ENDBRANCH  19  25
ENDBRANCH  18  23
ENDBRANCH   1  18
TORSDOF 5
ENDMDL
MODEL 3
REMARK VINA RESULT:      -8.8      1.147      1.438
REMARK  Name = 
REMARK  5 active torsions:
REMARK  status: ('A' for Active; 'I' for Inactive)
REMARK    1  A    between atoms: N_1  and  S_2
REMARK    2  A    between atoms: S_2  and  C_5
REMARK    3  A    between atoms: C_9  and  C_10
REMARK    4  A    between atoms: C_10  and  N_11
REMARK    5  A    between atoms: C_18  and  C_19
REMARK                            x       y       z     vdW  Elec       q    Type
REMARK                         _______ _______ _______ _____ _____    ______ ____
ROOT
ATOM      1  N   UNL     1       1.648   6.327  20.913  0.00  0.00    +0.000 N 
ATOM      2  C   UNL     1       1.945   5.088  20.392  0.00  0.00    +0.000 A 
ATOM      3  C   UNL     1       1.143   3.907  20.851  0.00  0.00    +0.000 A 
ATOM      4  C   UNL     1       1.387   2.708  20.304  0.00  0.00    +0.000 A 
ATOM      5  C   UNL     1       2.407   2.591  19.340  0.00  0.00    +0.000 A 
ATOM      6  N   UNL     1       2.847   1.581  18.625  0.00  0.00    +0.000 NA
ATOM      7  N   UNL     1       3.876   2.050  17.837  0.00  0.00    +0.000 NA
ATOM      8  C   UNL     1       4.066   3.334  18.103  0.00  0.00    +0.000 A 
ATOM      9  N   UNL     1       3.121   3.728  19.035  0.00  0.00    +0.000 N 
ATOM     10  N   UNL     1       2.911   4.988  19.520  0.00  0.00    +0.000 NA
ATOM     11  H   UNL     1       0.778   6.416  21.426  0.00  0.00    +0.000 HD
ENDROOT
BRANCH   8  12
ATOM     12  C   UNL     1       5.067   4.206  17.490  0.00  0.00    +0.000 A 
ATOM     13  C   UNL     1       4.881   4.697  16.195  0.00  0.00    +0.000 A 
ATOM     14  C   UNL     1       5.831   5.545  15.626  0.00  0.00    +0.000 A 
ATOM     15  C   UNL     1       6.952   5.871  16.370  0.00  0.00    +0.000 A 
ATOM     16  N   UNL     1       7.184   5.405  17.613  0.00  0.00    +0.000 NA
ATOM     17  C   UNL     1       6.241   4.584  18.139  0.00  0.00    +0.000 A 
ENDBRANCH   8  12
BRANCH   1  18
ATOM     18  C   UNL     1       2.031   7.540  20.208  0.00  0.00    +0.000 C 
BRANCH  18  23
ATOM     19  C   UNL     1      -0.209  10.623  20.082  0.00  0.00    +0.000 A 
ATOM     20  C   UNL     1      -0.481  10.845  21.435  0.00  0.00    +0.000 A 
ATOM     21  C   UNL     1       0.078   9.997  22.390  0.00  0.00    +0.000 A 
ATOM     22  C   UNL     1       0.892   8.931  21.994  0.00  0.00    +0.000 A 
ATOM     23  C   UNL     1       1.153   8.693  20.636  0.00  0.00    +0.000 A 
ATOM     24  C   UNL     1       0.595   9.552  19.679  0.00  0.00    +0.000 A 
BRANCH  19  25
ATOM     25  S   UNL     1      -0.876  11.717  18.862  0.00  0.00    +0.000 S 
ATOM     26  O   UNL     1       0.139  12.674  18.497  0.00  0.00    +0.000 OA
ATOM     27  O   UNL     1      -2.211  12.107  19.255  0.00  0.00    +0.000 OA
BRANCH  25  28
ATOM     28  N   UNL     1      -1.081  10.704  17.539  0.00  0.00    +0.000 NA
ATOM     29  H   UNL     1      -1.819  10.028  17.738  0.00  0.00    +0.000 HD
ATOM     30  H   UNL     1      -0.189  10.275  17.288  0.00  0.00    +0.000 HD
ENDBRANCH  25  28
ENDBRANCH  19  25
ENDBRANCH  18  23
ENDBRANCH   1  18
TORSDOF 5
ENDMDL
MODEL 4
REMARK VINA RESULT:      -8.8      1.850      2.414
REMARK  Name = 
REMARK  5 active torsions:
REMARK  status: ('A' for Active; 'I' for Inactive)
REMARK    1  A    between atoms: N_1  and  S_2
REMARK    2  A    between atoms: S_2  and  C_5
REMARK    3  A    between atoms: C_9  and  C_10
REMARK    4  A    between atoms: C_10  and  N_11
REMARK    5  A    between atoms: C_18  and  C_19
REMARK                            x       y       z     vdW  Elec       q    Type
REMARK                         _______ _______ _______ _____ _____    ______ ____
ROOT
ATOM      1  N   UNL     1       1.878   6.849  20.353  0.00  0.00    +0.000 N 
ATOM      2  C   UNL     1       2.095   5.530  20.026  0.00  0.00    +0.000 A 
ATOM      3  C   UNL     1       1.254   4.480  20.688  0.00  0.00    +0.000 A 
ATOM      4  C   UNL     1       1.418   3.199  20.330  0.00  0.00    +0.000 A 
ATOM      5  C   UNL     1       2.395   2.878  19.367  0.00  0.00    +0.000 A 
ATOM      6  N   UNL     1       2.758   1.747  18.807  0.00  0.00    +0.000 NA
ATOM      7  N   UNL     1       3.779   2.032  17.926  0.00  0.00    +0.000 NA
ATOM      8  C   UNL     1       4.041   3.329  17.980  0.00  0.00    +0.000 A 
ATOM      9  N   UNL     1       3.152   3.913  18.866  0.00  0.00    +0.000 N 
ATOM     10  N   UNL     1       3.022   5.243  19.152  0.00  0.00    +0.000 NA
ATOM     11  H   UNL     1       1.034   7.064  20.871  0.00  0.00    +0.000 HD
ENDROOT
BRANCH   8  12
ATOM     12  C   UNL     1       5.060   4.039  17.209  0.00  0.00    +0.000 A 
ATOM     13  C   UNL     1       4.826   4.383  15.875  0.00  0.00    +0.000 A 
ATOM     14  C   UNL     1       5.795   5.080  15.153  0.00  0.00    +0.000 A 
ATOM     15  C   UNL     1       6.982   5.404  15.787  0.00  0.00    +0.000 A 
ATOM     16  N   UNL     1       7.261   5.075  17.064  0.00  0.00    +0.000 NA
ATOM     17  C   UNL     1       6.297   4.399  17.740  0.00  0.00    +0.000 A 
ENDBRANCH   8  12
BRANCH   1  18
ATOM     18  C   UNL     1       2.294   7.915  19.455  0.00  0.00    +0.000 C 
BRANCH  18  23
ATOM     19  C   UNL     1      -0.134  10.645  20.548  0.00  0.00    +0.000 A 
ATOM     20  C   UNL     1      -0.713  11.027  19.335  0.00  0.00    +0.000 A 
ATOM     21  C   UNL     1      -0.323  10.384  18.161  0.00  0.00    +0.000 A 
ATOM     22  C   UNL     1       0.646   9.377  18.200  0.00  0.00    +0.000 A 
ATOM     23  C   UNL     1       1.245   9.002  19.413  0.00  0.00    +0.000 A 
ATOM     24  C   UNL     1       0.844   9.646  20.592  0.00  0.00    +0.000 A 
BRANCH  19  25
ATOM     25  S   UNL     1      -0.651  11.422  22.051  0.00  0.00    +0.000 S 
ATOM     26  O   UNL     1      -0.163  10.646  23.163  0.00  0.00    +0.000 OA
ATOM     27  O   UNL     1      -2.034  11.822  21.925  0.00  0.00    +0.000 OA
BRANCH  25  28
ATOM     28  N   UNL     1       0.227  12.853  22.040  0.00  0.00    +0.000 NA
ATOM     29  H   UNL     1       0.147  13.310  22.948  0.00  0.00    +0.000 HD
ATOM     30  H   UNL     1      -0.072  13.440  21.259  0.00  0.00    +0.000 HD
ENDBRANCH  25  28
ENDBRANCH  19  25
ENDBRANCH  18  23
ENDBRANCH   1  18
TORSDOF 5
ENDMDL
MODEL 5
REMARK VINA RESULT:      -8.6      1.128      1.258
REMARK  Name = 
REMARK  5 active torsions:
REMARK  status: ('A' for Active; 'I' for Inactive)
REMARK    1  A    between atoms: N_1  and  S_2
REMARK    2  A    between atoms: S_2  and  C_5
REMARK    3  A    between atoms: C_9  and  C_10
REMARK    4  A    between atoms: C_10  and  N_11
REMARK    5  A    between atoms: C_18  and  C_19
REMARK                            x       y       z     vdW  Elec       q    Type
REMARK                         _______ _______ _______ _____ _____    ______ ____
ROOT
ATOM      1  N   UNL     1       1.384   6.747  20.985  0.00  0.00    +0.000 N 
ATOM      2  C   UNL     1       1.865   5.609  20.377  0.00  0.00    +0.000 A 
ATOM      3  C   UNL     1       1.083   4.337  20.517  0.00  0.00    +0.000 A 
ATOM      4  C   UNL     1       1.512   3.241  19.879  0.00  0.00    +0.000 A 
ATOM      5  C   UNL     1       2.698   3.310  19.121  0.00  0.00    +0.000 A 
ATOM      6  N   UNL     1       3.336   2.434  18.380  0.00  0.00    +0.000 NA
ATOM      7  N   UNL     1       4.454   3.059  17.872  0.00  0.00    +0.000 NA
ATOM      8  C   UNL     1       4.495   4.301  18.331  0.00  0.00    +0.000 A 
ATOM      9  N   UNL     1       3.368   4.513  19.107  0.00  0.00    +0.000 N 
ATOM     10  N   UNL     1       2.979   5.680  19.700  0.00  0.00    +0.000 NA
ATOM     11  H   UNL     1       0.431   6.720  21.329  0.00  0.00    +0.000 HD
ENDROOT
BRANCH   8  12
ATOM     12  C   UNL     1       5.522   5.299  18.039  0.00  0.00    +0.000 A 
ATOM     13  C   UNL     1       6.670   5.386  18.832  0.00  0.00    +0.000 A 
ATOM     14  C   UNL     1       7.656   6.327  18.533  0.00  0.00    +0.000 A 
ATOM     15  C   UNL     1       7.458   7.166  17.450  0.00  0.00    +0.000 A 
ATOM     16  N   UNL     1       6.359   7.134  16.671  0.00  0.00    +0.000 NA
ATOM     17  C   UNL     1       5.419   6.206  16.986  0.00  0.00    +0.000 A 
ENDBRANCH   8  12
BRANCH   1  18
ATOM     18  C   UNL     1       1.798   8.064  20.528  0.00  0.00    +0.000 C 
BRANCH  18  23
ATOM     19  C   UNL     1       0.206  11.436  21.324  0.00  0.00    +0.000 A 
ATOM     20  C   UNL     1      -0.603  11.128  22.421  0.00  0.00    +0.000 A 
ATOM     21  C   UNL     1      -0.619   9.823  22.912  0.00  0.00    +0.000 A 
ATOM     22  C   UNL     1       0.159   8.834  22.302  0.00  0.00    +0.000 A 
ATOM     23  C   UNL     1       0.959   9.133  21.188  0.00  0.00    +0.000 A 
ATOM     24  C   UNL     1       0.977  10.449  20.702  0.00  0.00    +0.000 A 
BRANCH  19  25
ATOM     25  S   UNL     1       0.268  13.097  20.718  0.00  0.00    +0.000 S 
ATOM     26  O   UNL     1      -1.072  13.629  20.692  0.00  0.00    +0.000 OA
ATOM     27  O   UNL     1       1.153  13.153  19.577  0.00  0.00    +0.000 OA
BRANCH  25  28
ATOM     28  N   UNL     1       1.081  13.901  21.949  0.00  0.00    +0.000 NA
ATOM     29  H   UNL     1       0.988  14.909  21.818  0.00  0.00    +0.000 HD
ATOM     30  H   UNL     1       2.050  13.582  21.993  0.00  0.00    +0.000 HD
ENDBRANCH  25  28
ENDBRANCH  19  25
ENDBRANCH  18  23
ENDBRANCH   1  18
TORSDOF 5
ENDMDL
MODEL 6
REMARK VINA RESULT:      -8.6      2.288      2.628
REMARK  Name = 
REMARK  5 active torsions:
REMARK  status: ('A' for Active; 'I' for Inactive)
REMARK    1  A    between atoms: N_1  and  S_2
REMARK    2  A    between atoms: S_2  and  C_5
REMARK    3  A    between atoms: C_9  and  C_10
REMARK    4  A    between atoms: C_10  and  N_11
REMARK    5  A    between atoms: C_18  and  C_19
REMARK                            x       y       z     vdW  Elec       q    Type
REMARK                         _______ _______ _______ _____ _____    ______ ____
ROOT
ATOM      1  N   UNL     1       1.985   7.691  19.634  0.00  0.00    +0.000 N 
ATOM      2  C   UNL     1       2.345   6.370  19.774  0.00  0.00    +0.000 A 
ATOM      3  C   UNL     1       1.692   5.560  20.854  0.00  0.00    +0.000 A 
ATOM      4  C   UNL     1       1.992   4.259  20.958  0.00  0.00    +0.000 A 
ATOM      5  C   UNL     1       2.932   3.701  20.070  0.00  0.00    +0.000 A 
ATOM      6  N   UNL     1       3.396   2.482  19.911  0.00  0.00    +0.000 NA
ATOM      7  N   UNL     1       4.308   2.519  18.878  0.00  0.00    +0.000 NA
ATOM      8  C   UNL     1       4.406   3.765  18.439  0.00  0.00    +0.000 A 
ATOM      9  N   UNL     1       3.515   4.547  19.153  0.00  0.00    +0.000 N 
ATOM     10  N   UNL     1       3.237   5.871  18.962  0.00  0.00    +0.000 NA
ATOM     11  H   UNL     1       1.159   8.000  20.132  0.00  0.00    +0.000 HD
ENDROOT
BRANCH   8  12
ATOM     12  C   UNL     1       5.270   4.236  17.358  0.00  0.00    +0.000 A 
ATOM     13  C   UNL     1       4.794   4.294  16.045  0.00  0.00    +0.000 A 
ATOM     14  C   UNL     1       5.618   4.765  15.023  0.00  0.00    +0.000 A 
ATOM     15  C   UNL     1       6.907   5.156  15.344  0.00  0.00    +0.000 A 
ATOM     16  N   UNL     1       7.416   5.098  16.591  0.00  0.00    +0.000 NA
ATOM     17  C   UNL     1       6.589   4.637  17.563  0.00  0.00    +0.000 A 
ENDBRANCH   8  12
BRANCH   1  18
ATOM     18  C   UNL     1       2.198   8.389  18.376  0.00  0.00    +0.000 C 
BRANCH  18  23
ATOM     19  C   UNL     1      -0.637  10.925  18.111  0.00  0.00    +0.000 A 
ATOM     20  C   UNL     1       0.025  12.132  18.350  0.00  0.00    +0.000 A 
ATOM     21  C   UNL     1       1.399  12.122  18.584  0.00  0.00    +0.000 A 
ATOM     22  C   UNL     1       2.102  10.913  18.590  0.00  0.00    +0.000 A 
ATOM     23  C   UNL     1       1.439   9.695  18.368  0.00  0.00    +0.000 A 
ATOM     24  C   UNL     1       0.058   9.711  18.126  0.00  0.00    +0.000 A 
BRANCH  19  25
ATOM     25  S   UNL     1      -2.373  10.929  17.769  0.00  0.00    +0.000 S 
ATOM     26  O   UNL     1      -3.009  11.900  18.625  0.00  0.00    +0.000 OA
ATOM     27  O   UNL     1      -2.836   9.564  17.657  0.00  0.00    +0.000 OA
BRANCH  25  28
ATOM     28  N   UNL     1      -2.434  11.548  16.210  0.00  0.00    +0.000 NA
ATOM     29  H   UNL     1      -1.509  11.881  15.937  0.00  0.00    +0.000 HD
ATOM     30  H   UNL     1      -3.161  12.262  16.147  0.00  0.00    +0.000 HD
ENDBRANCH  25  28
ENDBRANCH  19  25
ENDBRANCH  18  23
ENDBRANCH   1  18
TORSDOF 5
ENDMDL
MODEL 7
REMARK VINA RESULT:      -8.5      1.741      2.198
REMARK  Name = 
REMARK  5 active torsions:
REMARK  status: ('A' for Active; 'I' for Inactive)
REMARK    1  A    between atoms: N_1  and  S_2
REMARK    2  A    between atoms: S_2  and  C_5
REMARK    3  A    between atoms: C_9  and  C_10
REMARK    4  A    between atoms: C_10  and  N_11
REMARK    5  A    between atoms: C_18  and  C_19
REMARK                            x       y       z     vdW  Elec       q    Type
REMARK                         _______ _______ _______ _____ _____    ______ ____
ROOT
ATOM      1  N   UNL     1       1.366   7.365  20.316  0.00  0.00    +0.000 N 
ATOM      2  C   UNL     1       2.025   6.160  20.222  0.00  0.00    +0.000 A 
ATOM      3  C   UNL     1       1.349   4.930  20.752  0.00  0.00    +0.000 A 
ATOM      4  C   UNL     1       1.958   3.745  20.610  0.00  0.00    +0.000 A 
ATOM      5  C   UNL     1       3.225   3.697  19.996  0.00  0.00    +0.000 A 
ATOM      6  N   UNL     1       4.034   2.707  19.698  0.00  0.00    +0.000 NA
ATOM      7  N   UNL     1       5.150   3.252  19.100  0.00  0.00    +0.000 NA
ATOM      8  C   UNL     1       5.016   4.569  19.066  0.00  0.00    +0.000 A 
ATOM      9  N   UNL     1       3.780   4.892  19.599  0.00  0.00    +0.000 N 
ATOM     10  N   UNL     1       3.210   6.132  19.676  0.00  0.00    +0.000 NA
ATOM     11  H   UNL     1       0.381   7.335  20.554  0.00  0.00    +0.000 HD
ENDROOT
BRANCH   8  12
ATOM     12  C   UNL     1       5.980   5.524  18.522  0.00  0.00    +0.000 A 
ATOM     13  C   UNL     1       7.180   5.779  19.193  0.00  0.00    +0.000 A 
ATOM     14  C   UNL     1       8.104   6.675  18.656  0.00  0.00    +0.000 A 
ATOM     15  C   UNL     1       7.794   7.303  17.461  0.00  0.00    +0.000 A 
ATOM     16  N   UNL     1       6.642   7.105  16.790  0.00  0.00    +0.000 NA
ATOM     17  C   UNL     1       5.765   6.226  17.338  0.00  0.00    +0.000 A 
ENDBRANCH   8  12
BRANCH   1  18
ATOM     18  C   UNL     1       1.718   8.473  19.443  0.00  0.00    +0.000 C 
BRANCH  18  23
ATOM     19  C   UNL     1      -0.583  11.128  20.924  0.00  0.00    +0.000 A 
ATOM     20  C   UNL     1      -1.216  11.637  19.787  0.00  0.00    +0.000 A 
ATOM     21  C   UNL     1      -0.903  11.105  18.537  0.00  0.00    +0.000 A 
ATOM     22  C   UNL     1       0.042  10.080  18.426  0.00  0.00    +0.000 A 
ATOM     23  C   UNL     1       0.695   9.578  19.563  0.00  0.00    +0.000 A 
ATOM     24  C   UNL     1       0.372  10.112  20.819  0.00  0.00    +0.000 A 
BRANCH  19  25
ATOM     25  S   UNL     1      -1.002  11.765  22.521  0.00  0.00    +0.000 S 
ATOM     26  O   UNL     1      -2.437  11.864  22.615  0.00  0.00    +0.000 OA
ATOM     27  O   UNL     1      -0.121  12.866  22.838  0.00  0.00    +0.000 OA
BRANCH  25  28
ATOM     28  N   UNL     1      -0.537  10.517  23.543  0.00  0.00    +0.000 NA
ATOM     29  H   UNL     1       0.465  10.351  23.447  0.00  0.00    +0.000 HD
ATOM     30  H   UNL     1      -1.107   9.689  23.363  0.00  0.00    +0.000 HD
ENDBRANCH  25  28
ENDBRANCH  19  25
ENDBRANCH  18  23
ENDBRANCH   1  18
TORSDOF 5
ENDMDL
MODEL 8
REMARK VINA RESULT:      -8.3      1.307      1.655
REMARK  Name = 
REMARK  5 active torsions:
REMARK  status: ('A' for Active; 'I' for Inactive)
REMARK    1  A    between atoms: N_1  and  S_2
REMARK    2  A    between atoms: S_2  and  C_5
REMARK    3  A    between atoms: C_9  and  C_10
REMARK    4  A    between atoms: C_10  and  N_11
REMARK    5  A    between atoms: C_18  and  C_19
REMARK                            x       y       z     vdW  Elec       q    Type
REMARK                         _______ _______ _______ _____ _____    ______ ____
ROOT
ATOM      1  N   UNL     1       1.498   6.354  20.979  0.00  0.00    +0.000 N 
ATOM      2  C   UNL     1       1.860   5.162  20.392  0.00  0.00    +0.000 A 
ATOM      3  C   UNL     1       1.081   3.928  20.738  0.00  0.00    +0.000 A 
ATOM      4  C   UNL     1       1.388   2.777  20.125  0.00  0.00    +0.000 A 
ATOM      5  C   UNL     1       2.450   2.757  19.200  0.00  0.00    +0.000 A 
ATOM      6  N   UNL     1       2.954   1.812  18.439  0.00  0.00    +0.000 NA
ATOM      7  N   UNL     1       3.996   2.365  17.729  0.00  0.00    +0.000 NA
ATOM      8  C   UNL     1       4.130   3.634  18.085  0.00  0.00    +0.000 A 
ATOM      9  N   UNL     1       3.136   3.934  19.000  0.00  0.00    +0.000 N 
ATOM     10  N   UNL     1       2.863   5.151  19.556  0.00  0.00    +0.000 NA
ATOM     11  H   UNL     1       0.606   6.381  21.459  0.00  0.00    +0.000 HD
ENDROOT
BRANCH   8  12
ATOM     12  C   UNL     1       5.124   4.576  17.574  0.00  0.00    +0.000 A 
ATOM     13  C   UNL     1       4.754   5.572  16.664  0.00  0.00    +0.000 A 
ATOM     14  C   UNL     1       5.704   6.480  16.198  0.00  0.00    +0.000 A 
ATOM     15  C   UNL     1       7.008   6.359  16.648  0.00  0.00    +0.000 A 
ATOM     16  N   UNL     1       7.415   5.402  17.507  0.00  0.00    +0.000 NA
ATOM     17  C   UNL     1       6.467   4.535  17.943  0.00  0.00    +0.000 A 
ENDBRANCH   8  12
BRANCH   1  18
ATOM     18  C   UNL     1       1.867   7.623  20.371  0.00  0.00    +0.000 C 
BRANCH  18  23
ATOM     19  C   UNL     1       0.384  11.075  21.018  0.00  0.00    +0.000 A 
ATOM     20  C   UNL     1      -0.402  10.851  22.151  0.00  0.00    +0.000 A 
ATOM     21  C   UNL     1      -0.437   9.576  22.714  0.00  0.00    +0.000 A 
ATOM     22  C   UNL     1       0.298   8.534  22.141  0.00  0.00    +0.000 A 
ATOM     23  C   UNL     1       1.074   8.749  20.992  0.00  0.00    +0.000 A 
ATOM     24  C   UNL     1       1.112  10.035  20.433  0.00  0.00    +0.000 A 
BRANCH  19  25
ATOM     25  S   UNL     1       0.472  12.698  20.319  0.00  0.00    +0.000 S 
ATOM     26  O   UNL     1      -0.869  13.197  20.141  0.00  0.00    +0.000 OA
ATOM     27  O   UNL     1       1.455  12.705  19.259  0.00  0.00    +0.000 OA
BRANCH  25  28
ATOM     28  N   UNL     1       1.157  13.593  21.565  0.00  0.00    +0.000 NA
ATOM     29  H   UNL     1       2.172  13.497  21.536  0.00  0.00    +0.000 HD
ATOM     30  H   UNL     1       0.744  13.319  22.458  0.00  0.00    +0.000 HD
ENDBRANCH  25  28
ENDBRANCH  19  25
ENDBRANCH  18  23
ENDBRANCH   1  18
TORSDOF 5
ENDMDL
MODEL 9
REMARK VINA RESULT:      -8.3      1.007      1.304
REMARK  Name = 
REMARK  5 active torsions:
REMARK  status: ('A' for Active; 'I' for Inactive)
REMARK    1  A    between atoms: N_1  and  S_2
REMARK    2  A    between atoms: S_2  and  C_5
REMARK    3  A    between atoms: C_9  and  C_10
REMARK    4  A    between atoms: C_10  and  N_11
REMARK    5  A    between atoms: C_18  and  C_19
REMARK                            x       y       z     vdW  Elec       q    Type
REMARK                         _______ _______ _______ _____ _____    ______ ____
ROOT
ATOM      1  N   UNL     1       1.424   6.898  20.824  0.00  0.00    +0.000 N 
ATOM      2  C   UNL     1       2.069   5.718  20.528  0.00  0.00    +0.000 A 
ATOM      3  C   UNL     1       1.402   4.426  20.896  0.00  0.00    +0.000 A 
ATOM      4  C   UNL     1       1.995   3.273  20.558  0.00  0.00    +0.000 A 
ATOM      5  C   UNL     1       3.237   3.312  19.895  0.00  0.00    +0.000 A 
ATOM      6  N   UNL     1       4.027   2.375  19.423  0.00  0.00    +0.000 NA
ATOM      7  N   UNL     1       5.124   2.998  18.870  0.00  0.00    +0.000 NA
ATOM      8  C   UNL     1       5.000   4.307  19.036  0.00  0.00    +0.000 A 
ATOM      9  N   UNL     1       3.788   4.551  19.658  0.00  0.00    +0.000 N 
ATOM     10  N   UNL     1       3.232   5.768  19.938  0.00  0.00    +0.000 NA
ATOM     11  H   UNL     1       0.449   6.837  21.093  0.00  0.00    +0.000 HD
ENDROOT
BRANCH   8  12
ATOM     12  C   UNL     1       5.951   5.328  18.601  0.00  0.00    +0.000 A 
ATOM     13  C   UNL     1       5.691   6.103  17.467  0.00  0.00    +0.000 A 
ATOM     14  C   UNL     1       6.594   7.090  17.073  0.00  0.00    +0.000 A 
ATOM     15  C   UNL     1       7.745   7.267  17.821  0.00  0.00    +0.000 A 
ATOM     16  N   UNL     1       8.049   6.529  18.908  0.00  0.00    +0.000 NA
ATOM     17  C   UNL     1       7.150   5.579  19.268  0.00  0.00    +0.000 A 
ENDBRANCH   8  12
BRANCH   1  18
ATOM     18  C   UNL     1       1.753   8.122  20.111  0.00  0.00    +0.000 C 
BRANCH  18  23
ATOM     19  C   UNL     1      -0.130  11.435  20.244  0.00  0.00    +0.000 A 
ATOM     20  C   UNL     1      -0.735  11.380  21.502  0.00  0.00    +0.000 A 
ATOM     21  C   UNL     1      -0.517  10.268  22.315  0.00  0.00    +0.000 A 
ATOM     22  C   UNL     1       0.289   9.217  21.867  0.00  0.00    +0.000 A 
ATOM     23  C   UNL     1       0.884   9.259  20.596  0.00  0.00    +0.000 A 
ATOM     24  C   UNL     1       0.668  10.382  19.785  0.00  0.00    +0.000 A 
BRANCH  19  25
ATOM     25  S   UNL     1      -0.363  12.859  19.220  0.00  0.00    +0.000 S 
ATOM     26  O   UNL     1       0.928  13.334  18.790  0.00  0.00    +0.000 OA
ATOM     27  O   UNL     1      -1.350  13.723  19.828  0.00  0.00    +0.000 OA
BRANCH  25  28
ATOM     28  N   UNL     1      -1.114  12.213  17.864  0.00  0.00    +0.000 NA
ATOM     29  H   UNL     1      -1.504  11.299  18.093  0.00  0.00    +0.000 HD
ATOM     30  H   UNL     1      -0.461  12.194  17.080  0.00  0.00    +0.000 HD
ENDBRANCH  25  28
ENDBRANCH  19  25
ENDBRANCH  18  23
ENDBRANCH   1  18
TORSDOF 5
ENDMDL
