MODEL 1
REMARK VINA RESULT:      -8.3      0.000      0.000
REMARK  Name = 
REMARK  7 active torsions:
REMARK  status: ('A' for Active; 'I' for Inactive)
REMARK    1  A    between atoms: C_1  and  C_2
REMARK    2  A    between atoms: C_7  and  C_8
REMARK    3  A    between atoms: N_10  and  C_11
REMARK    4  A    between atoms: N_10  and  C_12
REMARK    5  A    between atoms: N_16  and  C_17
REMARK    6  A    between atoms: C_17  and  C_18
REMARK    7  A    between atoms: C_29  and  C_30
REMARK                            x       y       z     vdW  Elec       q    Type
REMARK                         _______ _______ _______ _____ _____    ______ ____
ROOT
ATOM      1  C   UNL     1       0.816   9.814  20.925  0.00  0.00    +0.000 C 
ATOM      2  O   UNL     1       1.460  10.123  21.931  0.00  0.00    +0.000 OA
ATOM      3  N   UNL     1      -0.381  10.500  20.611  0.00  0.00    +0.000 N 
ATOM      4  C   UNL     1      -1.240  10.258  19.456  0.00  0.00    +0.000 C 
ENDROOT
BRANCH   1  11
ATOM      5  C   UNL     1       4.244   3.533  17.622  0.00  0.00    +0.000 C 
ATOM      6  C   UNL     1       3.509   4.531  18.464  0.00  0.00    +0.000 A 
ATOM      7  N   UNL     1       3.409   5.776  17.945  0.00  0.00    +0.000 NA
ATOM      8  C   UNL     1       2.725   6.684  18.652  0.00  0.00    +0.000 A 
ATOM      9  C   UNL     1       2.493   7.919  18.074  0.00  0.00    +0.000 A 
ATOM     10  C   UNL     1       1.777   8.919  18.737  0.00  0.00    +0.000 A 
ATOM     11  C   UNL     1       1.411   8.738  20.066  0.00  0.00    +0.000 A 
ATOM     12  C   UNL     1       1.578   7.452  20.626  0.00  0.00    +0.000 A 
ATOM     13  C   UNL     1       2.198   6.406  19.930  0.00  0.00    +0.000 A 
ATOM     14  N   UNL     1       2.293   5.154  20.443  0.00  0.00    +0.000 NA
ATOM     15  C   UNL     1       2.919   4.208  19.684  0.00  0.00    +0.000 A 
ATOM     16  C   UNL     1       2.878   2.792  20.178  0.00  0.00    +0.000 C 
ENDBRANCH   1  11
BRANCH   3  17
ATOM     17  C   UNL     1      -0.738  11.642  21.501  0.00  0.00    +0.000 C 
ATOM     18  C   UNL     1      -1.273  11.201  22.862  0.00  0.00    +0.000 C 
ATOM     19  C   UNL     1      -2.584  11.905  23.010  0.00  0.00    +0.000 C 
ATOM     20  O   UNL     1      -3.348  11.731  23.953  0.00  0.00    +0.000 OA
ATOM     21  N   UNL     1      -2.758  12.781  21.984  0.00  0.00    +0.000 N 
ATOM     22  C   UNL     1      -1.750  12.710  21.068  0.00  0.00    +0.000 C 
ATOM     23  O   UNL     1      -1.658  13.407  20.057  0.00  0.00    +0.000 OA
BRANCH  21  24
ATOM     24  C   UNL     1      -3.864  13.718  21.915  0.00  0.00    +0.000 C 
BRANCH  24  25
ATOM     25  C   UNL     1      -5.153  13.068  21.472  0.00  0.00    +0.000 A 
ATOM     26  C   UNL     1      -6.239  12.962  22.353  0.00  0.00    +0.000 A 
ATOM     27  C   UNL     1      -7.407  12.306  21.963  0.00  0.00    +0.000 A 
ATOM     28  C   UNL     1      -7.507  11.758  20.686  0.00  0.00    +0.000 A 
ATOM     29  C   UNL     1      -6.445  11.878  19.792  0.00  0.00    +0.000 A 
ATOM     30  C   UNL     1      -5.271  12.526  20.182  0.00  0.00    +0.000 A 
ENDBRANCH  24  25
ENDBRANCH  21  24
ENDBRANCH   3  17
TORSDOF 4
ENDMDL
MODEL 2
REMARK VINA RESULT:      -8.3      0.974      1.152
REMARK  Name = 
REMARK  7 active torsions:
REMARK  status: ('A' for Active; 'I' for Inactive)
REMARK    1  A    between atoms: C_1  and  C_2
REMARK    2  A    between atoms: C_7  and  C_8
REMARK    3  A    between atoms: N_10  and  C_11
REMARK    4  A    between atoms: N_10  and  C_12
REMARK    5  A    between atoms: N_16  and  C_17
REMARK    6  A    between atoms: C_17  and  C_18
REMARK    7  A    between atoms: C_29  and  C_30
REMARK                            x       y       z     vdW  Elec       q    Type
REMARK                         _______ _______ _______ _____ _____    ______ ____
ROOT
ATOM      1  C   UNL     1       0.911  10.222  20.188  0.00  0.00    +0.000 C 
ATOM      2  O   UNL     1       1.340  11.296  19.759  0.00  0.00    +0.000 OA
ATOM      3  N   UNL     1      -0.095  10.205  21.182  0.00  0.00    +0.000 N 
ATOM      4  C   UNL     1      -0.707   9.021  21.776  0.00  0.00    +0.000 C 
ENDROOT
BRANCH   1  11
ATOM      5  C   UNL     1       4.149   3.325  18.168  0.00  0.00    +0.000 C 
ATOM      6  C   UNL     1       3.440   4.486  18.797  0.00  0.00    +0.000 A 
ATOM      7  N   UNL     1       3.394   5.616  18.056  0.00  0.00    +0.000 NA
ATOM      8  C   UNL     1       2.734   6.662  18.569  0.00  0.00    +0.000 A 
ATOM      9  C   UNL     1       2.556   7.777  17.770  0.00  0.00    +0.000 A 
ATOM     10  C   UNL     1       1.869   8.905  18.223  0.00  0.00    +0.000 A 
ATOM     11  C   UNL     1       1.477   8.986  19.554  0.00  0.00    +0.000 A 
ATOM     12  C   UNL     1       1.589   7.820  20.345  0.00  0.00    +0.000 A 
ATOM     13  C   UNL     1       2.179   6.643  19.866  0.00  0.00    +0.000 A 
ATOM     14  N   UNL     1       2.220   5.505  20.602  0.00  0.00    +0.000 NA
ATOM     15  C   UNL     1       2.821   4.414  20.043  0.00  0.00    +0.000 A 
ATOM     16  C   UNL     1       2.720   3.116  20.789  0.00  0.00    +0.000 C 
ENDBRANCH   1  11
BRANCH   3  17
ATOM     17  C   UNL     1      -0.644  11.532  21.585  0.00  0.00    +0.000 C 
ATOM     18  C   UNL     1      -1.377  11.500  22.925  0.00  0.00    +0.000 C 
ATOM     19  C   UNL     1      -2.724  12.086  22.645  0.00  0.00    +0.000 C 
ATOM     20  O   UNL     1      -3.625  12.149  23.473  0.00  0.00    +0.000 OA
ATOM     21  N   UNL     1      -2.763  12.568  21.373  0.00  0.00    +0.000 N 
ATOM     22  C   UNL     1      -1.616  12.305  20.685  0.00  0.00    +0.000 C 
ATOM     23  O   UNL     1      -1.387  12.648  19.524  0.00  0.00    +0.000 OA
BRANCH  21  24
ATOM     24  C   UNL     1      -3.883  13.325  20.842  0.00  0.00    +0.000 C 
BRANCH  24  25
ATOM     25  C   UNL     1      -4.924  12.446  20.191  0.00  0.00    +0.000 A 
ATOM     26  C   UNL     1      -6.081  12.073  20.891  0.00  0.00    +0.000 A 
ATOM     27  C   UNL     1      -7.012  11.211  20.311  0.00  0.00    +0.000 A 
ATOM     28  C   UNL     1      -6.805  10.720  19.023  0.00  0.00    +0.000 A 
ATOM     29  C   UNL     1      -5.671  11.104  18.308  0.00  0.00    +0.000 A 
ATOM     30  C   UNL     1      -4.733  11.959  18.888  0.00  0.00    +0.000 A 
ENDBRANCH  24  25
ENDBRANCH  21  24
ENDBRANCH   3  17
TORSDOF 4
ENDMDL
MODEL 3
REMARK VINA RESULT:      -8.0      2.284      3.565
REMARK  Name = 
REMARK  7 active torsions:
REMARK  status: ('A' for Active; 'I' for Inactive)
REMARK    1  A    between atoms: C_1  and  C_2
REMARK    2  A    between atoms: C_7  and  C_8
REMARK    3  A    between atoms: N_10  and  C_11
REMARK    4  A    between atoms: N_10  and  C_12
REMARK    5  A    between atoms: N_16  and  C_17
REMARK    6  A    between atoms: C_17  and  C_18
REMARK    7  A    between atoms: C_29  and  C_30
REMARK                            x       y       z     vdW  Elec       q    Type
REMARK                         _______ _______ _______ _____ _____    ______ ____
ROOT
ATOM      1  C   UNL     1       1.077   9.271  21.384  0.00  0.00    +0.000 C 
ATOM      2  O   UNL     1       1.669   9.230  22.465  0.00  0.00    +0.000 OA
ATOM      3  N   UNL     1       0.018  10.188  21.189  0.00  0.00    +0.000 N 
ATOM      4  C   UNL     1      -0.764  10.362  19.969  0.00  0.00    +0.000 C 
ENDROOT
BRANCH   1  11
ATOM      5  C   UNL     1       4.197   3.632  16.846  0.00  0.00    +0.000 C 
ATOM      6  C   UNL     1       3.544   4.476  17.898  0.00  0.00    +0.000 A 
ATOM      7  N   UNL     1       3.381   5.782  17.585  0.00  0.00    +0.000 NA
ATOM      8  C   UNL     1       2.767   6.559  18.486  0.00  0.00    +0.000 A 
ATOM      9  C   UNL     1       2.466   7.860  18.126  0.00  0.00    +0.000 A 
ATOM     10  C   UNL     1       1.814   8.733  19.001  0.00  0.00    +0.000 A 
ATOM     11  C   UNL     1       1.589   8.349  20.318  0.00  0.00    +0.000 A 
ATOM     12  C   UNL     1       1.823   6.998  20.658  0.00  0.00    +0.000 A 
ATOM     13  C   UNL     1       2.377   6.082  19.754  0.00  0.00    +0.000 A 
ATOM     14  N   UNL     1       2.534   4.770  20.061  0.00  0.00    +0.000 NA
ATOM     15  C   UNL     1       3.086   3.962  19.109  0.00  0.00    +0.000 A 
ATOM     16  C   UNL     1       3.107   2.488  19.387  0.00  0.00    +0.000 C 
ENDBRANCH   1  11
BRANCH   3  17
ATOM     17  C   UNL     1      -0.252  11.130  22.313  0.00  0.00    +0.000 C 
ATOM     18  C   UNL     1      -1.462  10.731  23.156  0.00  0.00    +0.000 C 
ATOM     19  C   UNL     1      -2.337  11.944  23.178  0.00  0.00    +0.000 C 
ATOM     20  O   UNL     1      -3.446  11.974  23.697  0.00  0.00    +0.000 OA
ATOM     21  N   UNL     1      -1.694  12.989  22.590  0.00  0.00    +0.000 N 
ATOM     22  C   UNL     1      -0.488  12.626  22.067  0.00  0.00    +0.000 C 
ATOM     23  O   UNL     1       0.299  13.384  21.500  0.00  0.00    +0.000 OA
BRANCH  21  24
ATOM     24  C   UNL     1      -2.218  14.343  22.579  0.00  0.00    +0.000 C 
BRANCH  24  25
ATOM     25  C   UNL     1      -1.679  15.186  23.709  0.00  0.00    +0.000 A 
ATOM     26  C   UNL     1      -0.594  16.051  23.499  0.00  0.00    +0.000 A 
ATOM     27  C   UNL     1      -0.057  16.784  24.558  0.00  0.00    +0.000 A 
ATOM     28  C   UNL     1      -0.602  16.670  25.835  0.00  0.00    +0.000 A 
ATOM     29  C   UNL     1      -1.696  15.833  26.052  0.00  0.00    +0.000 A 
ATOM     30  C   UNL     1      -2.231  15.092  24.996  0.00  0.00    +0.000 A 
ENDBRANCH  24  25
ENDBRANCH  21  24
ENDBRANCH   3  17
TORSDOF 4
ENDMDL
MODEL 4
REMARK VINA RESULT:      -7.9      0.792      1.038
REMARK  Name = 
REMARK  7 active torsions:
REMARK  status: ('A' for Active; 'I' for Inactive)
REMARK    1  A    between atoms: C_1  and  C_2
REMARK    2  A    between atoms: C_7  and  C_8
REMARK    3  A    between atoms: N_10  and  C_11
REMARK    4  A    between atoms: N_10  and  C_12
REMARK    5  A    between atoms: N_16  and  C_17
REMARK    6  A    between atoms: C_17  and  C_18
REMARK    7  A    between atoms: C_29  and  C_30
REMARK                            x       y       z     vdW  Elec       q    Type
REMARK                         _______ _______ _______ _____ _____    ______ ____
ROOT
ATOM      1  C   UNL     1       0.754  10.015  20.992  0.00  0.00    +0.000 C 
ATOM      2  O   UNL     1       1.407  10.231  22.017  0.00  0.00    +0.000 OA
ATOM      3  N   UNL     1      -0.434  10.741  20.741  0.00  0.00    +0.000 N 
ATOM      4  C   UNL     1      -1.300  10.606  19.574  0.00  0.00    +0.000 C 
ENDROOT
BRANCH   1  11
ATOM      5  C   UNL     1       4.258   4.079  17.170  0.00  0.00    +0.000 C 
ATOM      6  C   UNL     1       3.546   5.001  18.112  0.00  0.00    +0.000 A 
ATOM      7  N   UNL     1       3.302   6.246  17.643  0.00  0.00    +0.000 NA
ATOM      8  C   UNL     1       2.633   7.085  18.443  0.00  0.00    +0.000 A 
ATOM      9  C   UNL     1       2.252   8.311  17.928  0.00  0.00    +0.000 A 
ATOM     10  C   UNL     1       1.540   9.240  18.691  0.00  0.00    +0.000 A 
ATOM     11  C   UNL     1       1.331   9.005  20.045  0.00  0.00    +0.000 A 
ATOM     12  C   UNL     1       1.649   7.723  20.547  0.00  0.00    +0.000 A 
ATOM     13  C   UNL     1       2.266   6.742  19.761  0.00  0.00    +0.000 A 
ATOM     14  N   UNL     1       2.505   5.490  20.225  0.00  0.00    +0.000 NA
ATOM     15  C   UNL     1       3.113   4.609  19.377  0.00  0.00    +0.000 A 
ATOM     16  C   UNL     1       3.227   3.184  19.833  0.00  0.00    +0.000 C 
ENDBRANCH   1  11
BRANCH   3  17
ATOM     17  C   UNL     1      -0.771  11.811  21.723  0.00  0.00    +0.000 C 
ATOM     18  C   UNL     1      -1.457  11.280  22.981  0.00  0.00    +0.000 C 
ATOM     19  C   UNL     1      -2.714  12.081  23.105  0.00  0.00    +0.000 C 
ATOM     20  O   UNL     1      -3.568  11.880  23.960  0.00  0.00    +0.000 OA
ATOM     21  N   UNL     1      -2.725  13.072  22.173  0.00  0.00    +0.000 N 
ATOM     22  C   UNL     1      -1.651  13.006  21.335  0.00  0.00    +0.000 C 
ATOM     23  O   UNL     1      -1.414  13.794  20.419  0.00  0.00    +0.000 OA
BRANCH  21  24
ATOM     24  C   UNL     1      -3.740  14.109  22.125  0.00  0.00    +0.000 C 
BRANCH  24  25
ATOM     25  C   UNL     1      -4.821  13.819  21.110  0.00  0.00    +0.000 A 
ATOM     26  C   UNL     1      -5.257  12.504  20.888  0.00  0.00    +0.000 A 
ATOM     27  C   UNL     1      -6.210  12.230  19.908  0.00  0.00    +0.000 A 
ATOM     28  C   UNL     1      -6.748  13.266  19.146  0.00  0.00    +0.000 A 
ATOM     29  C   UNL     1      -6.342  14.580  19.375  0.00  0.00    +0.000 A 
ATOM     30  C   UNL     1      -5.381  14.856  20.349  0.00  0.00    +0.000 A 
ENDBRANCH  24  25
ENDBRANCH  21  24
ENDBRANCH   3  17
TORSDOF 4
ENDMDL
MODEL 5
REMARK VINA RESULT:      -7.9      3.197     10.790
REMARK  Name = 
REMARK  7 active torsions:
REMARK  status: ('A' for Active; 'I' for Inactive)
REMARK    1  A    between atoms: C_1  and  C_2
REMARK    2  A    between atoms: C_7  and  C_8
REMARK    3  A    between atoms: N_10  and  C_11
REMARK    4  A    between atoms: N_10  and  C_12
REMARK    5  A    between atoms: N_16  and  C_17
REMARK    6  A    between atoms: C_17  and  C_18
REMARK    7  A    between atoms: C_29  and  C_30
REMARK                            x       y       z     vdW  Elec       q    Type
REMARK                         _______ _______ _______ _____ _____    ______ ____
ROOT
ATOM      1  C   UNL     1       1.621   7.908  18.756  0.00  0.00    +0.000 C 
ATOM      2  O   UNL     1       1.684   8.411  17.632  0.00  0.00    +0.000 OA
ATOM      3  N   UNL     1       2.081   6.587  18.970  0.00  0.00    +0.000 N 
ATOM      4  C   UNL     1       2.083   5.865  20.238  0.00  0.00    +0.000 C 
ENDROOT
BRANCH   1  11
ATOM      5  C   UNL     1      -1.359  13.489  23.457  0.00  0.00    +0.000 C 
ATOM      6  C   UNL     1      -0.981  12.544  22.358  0.00  0.00    +0.000 A 
ATOM      7  N   UNL     1      -0.115  11.562  22.699  0.00  0.00    +0.000 NA
ATOM      8  C   UNL     1       0.215  10.675  21.753  0.00  0.00    +0.000 A 
ATOM      9  C   UNL     1       0.986   9.587  22.120  0.00  0.00    +0.000 A 
ATOM     10  C   UNL     1       1.363   8.609  21.197  0.00  0.00    +0.000 A 
ATOM     11  C   UNL     1       1.093   8.794  19.846  0.00  0.00    +0.000 A 
ATOM     12  C   UNL     1       0.241   9.861  19.485  0.00  0.00    +0.000 A 
ATOM     13  C   UNL     1      -0.236  10.789  20.421  0.00  0.00    +0.000 A 
ATOM     14  N   UNL     1      -1.110  11.770  20.084  0.00  0.00    +0.000 NA
ATOM     15  C   UNL     1      -1.510  12.624  21.072  0.00  0.00    +0.000 A 
ATOM     16  C   UNL     1      -2.598  13.600  20.736  0.00  0.00    +0.000 C 
ENDBRANCH   1  11
BRANCH   3  17
ATOM     17  C   UNL     1       2.711   5.913  17.799  0.00  0.00    +0.000 C 
ATOM     18  C   UNL     1       2.449   4.408  17.757  0.00  0.00    +0.000 C 
ATOM     19  C   UNL     1       3.802   3.781  17.648  0.00  0.00    +0.000 C 
ATOM     20  O   UNL     1       3.996   2.571  17.671  0.00  0.00    +0.000 OA
ATOM     21  N   UNL     1       4.746   4.745  17.474  0.00  0.00    +0.000 N 
ATOM     22  C   UNL     1       4.220   6.002  17.539  0.00  0.00    +0.000 C 
ATOM     23  O   UNL     1       4.855   7.047  17.396  0.00  0.00    +0.000 OA
BRANCH  21  24
ATOM     24  C   UNL     1       6.140   4.453  17.194  0.00  0.00    +0.000 C 
BRANCH  24  25
ATOM     25  C   UNL     1       6.446   4.432  15.715  0.00  0.00    +0.000 A 
ATOM     26  C   UNL     1       7.464   5.241  15.186  0.00  0.00    +0.000 A 
ATOM     27  C   UNL     1       7.705   5.268  13.813  0.00  0.00    +0.000 A 
ATOM     28  C   UNL     1       6.941   4.481  12.953  0.00  0.00    +0.000 A 
ATOM     29  C   UNL     1       5.944   3.654  13.469  0.00  0.00    +0.000 A 
ATOM     30  C   UNL     1       5.694   3.632  14.842  0.00  0.00    +0.000 A 
ENDBRANCH  24  25
ENDBRANCH  21  24
ENDBRANCH   3  17
TORSDOF 4
ENDMDL
MODEL 6
REMARK VINA RESULT:      -7.9      1.815      2.925
REMARK  Name = 
REMARK  7 active torsions:
REMARK  status: ('A' for Active; 'I' for Inactive)
REMARK    1  A    between atoms: C_1  and  C_2
REMARK    2  A    between atoms: C_7  and  C_8
REMARK    3  A    between atoms: N_10  and  C_11
REMARK    4  A    between atoms: N_10  and  C_12
REMARK    5  A    between atoms: N_16  and  C_17
REMARK    6  A    between atoms: C_17  and  C_18
REMARK    7  A    between atoms: C_29  and  C_30
REMARK                            x       y       z     vdW  Elec       q    Type
REMARK                         _______ _______ _______ _____ _____    ______ ____
ROOT
ATOM      1  C   UNL     1       0.883   9.720  21.125  0.00  0.00    +0.000 C 
ATOM      2  O   UNL     1       1.514   9.883  22.172  0.00  0.00    +0.000 OA
ATOM      3  N   UNL     1      -0.248  10.523  20.844  0.00  0.00    +0.000 N 
ATOM      4  C   UNL     1      -1.082  10.456  19.649  0.00  0.00    +0.000 C 
ENDROOT
BRANCH   1  11
ATOM      5  C   UNL     1       4.143   3.621  17.344  0.00  0.00    +0.000 C 
ATOM      6  C   UNL     1       3.462   4.576  18.276  0.00  0.00    +0.000 A 
ATOM      7  N   UNL     1       3.295   5.834  17.809  0.00  0.00    +0.000 NA
ATOM      8  C   UNL     1       2.655   6.705  18.599  0.00  0.00    +0.000 A 
ATOM      9  C   UNL     1       2.352   7.952  18.084  0.00  0.00    +0.000 A 
ATOM     10  C   UNL     1       1.675   8.914  18.837  0.00  0.00    +0.000 A 
ATOM     11  C   UNL     1       1.425   8.684  20.185  0.00  0.00    +0.000 A 
ATOM     12  C   UNL     1       1.663   7.385  20.686  0.00  0.00    +0.000 A 
ATOM     13  C   UNL     1       2.243   6.375  19.907  0.00  0.00    +0.000 A 
ATOM     14  N   UNL     1       2.405   5.111  20.369  0.00  0.00    +0.000 NA
ATOM     15  C   UNL     1       2.983   4.202  19.530  0.00  0.00    +0.000 A 
ATOM     16  C   UNL     1       3.010   2.771  19.979  0.00  0.00    +0.000 C 
ENDBRANCH   1  11
BRANCH   3  17
ATOM     17  C   UNL     1      -0.548  11.603  21.828  0.00  0.00    +0.000 C 
ATOM     18  C   UNL     1      -1.422  11.133  22.990  0.00  0.00    +0.000 C 
ATOM     19  C   UNL     1      -2.574  12.087  23.018  0.00  0.00    +0.000 C 
ATOM     20  O   UNL     1      -3.532  11.976  23.774  0.00  0.00    +0.000 OA
ATOM     21  N   UNL     1      -2.363  13.094  22.128  0.00  0.00    +0.000 N 
ATOM     22  C   UNL     1      -1.224  12.911  21.400  0.00  0.00    +0.000 C 
ATOM     23  O   UNL     1      -0.795  13.685  20.543  0.00  0.00    +0.000 OA
BRANCH  21  24
ATOM     24  C   UNL     1      -3.229  14.254  22.018  0.00  0.00    +0.000 C 
BRANCH  24  25
ATOM     25  C   UNL     1      -3.032  15.239  23.146  0.00  0.00    +0.000 A 
ATOM     26  C   UNL     1      -1.768  15.797  23.392  0.00  0.00    +0.000 A 
ATOM     27  C   UNL     1      -1.573  16.659  24.472  0.00  0.00    +0.000 A 
ATOM     28  C   UNL     1      -2.638  16.981  25.311  0.00  0.00    +0.000 A 
ATOM     29  C   UNL     1      -3.904  16.453  25.062  0.00  0.00    +0.000 A 
ATOM     30  C   UNL     1      -4.101  15.584  23.987  0.00  0.00    +0.000 A 
ENDBRANCH  24  25
ENDBRANCH  21  24
ENDBRANCH   3  17
TORSDOF 4
ENDMDL
MODEL 7
REMARK VINA RESULT:      -7.8      1.042      1.817
REMARK  Name = 
REMARK  7 active torsions:
REMARK  status: ('A' for Active; 'I' for Inactive)
REMARK    1  A    between atoms: C_1  and  C_2
REMARK    2  A    between atoms: C_7  and  C_8
REMARK    3  A    between atoms: N_10  and  C_11
REMARK    4  A    between atoms: N_10  and  C_12
REMARK    5  A    between atoms: N_16  and  C_17
REMARK    6  A    between atoms: C_17  and  C_18
REMARK    7  A    between atoms: C_29  and  C_30
REMARK                            x       y       z     vdW  Elec       q    Type
REMARK                         _______ _______ _______ _____ _____    ______ ____
ROOT
ATOM      1  C   UNL     1       0.850   9.404  21.297  0.00  0.00    +0.000 C 
ATOM      2  O   UNL     1       1.355   9.777  22.358  0.00  0.00    +0.000 OA
ATOM      3  N   UNL     1      -0.204  10.145  20.713  0.00  0.00    +0.000 N 
ATOM      4  C   UNL     1      -0.890   9.838  19.463  0.00  0.00    +0.000 C 
ENDROOT
BRANCH   1  11
ATOM      5  C   UNL     1       4.119   3.771  16.857  0.00  0.00    +0.000 C 
ATOM      6  C   UNL     1       3.661   5.029  17.530  0.00  0.00    +0.000 A 
ATOM      7  N   UNL     1       2.862   4.861  18.608  0.00  0.00    +0.000 NA
ATOM      8  C   UNL     1       2.465   5.962  19.259  0.00  0.00    +0.000 A 
ATOM      9  C   UNL     1       1.767   5.804  20.441  0.00  0.00    +0.000 A 
ATOM     10  C   UNL     1       1.328   6.899  21.189  0.00  0.00    +0.000 A 
ATOM     11  C   UNL     1       1.457   8.183  20.671  0.00  0.00    +0.000 A 
ATOM     12  C   UNL     1       2.238   8.348  19.506  0.00  0.00    +0.000 A 
ATOM     13  C   UNL     1       2.778   7.261  18.805  0.00  0.00    +0.000 A 
ATOM     14  N   UNL     1       3.586   7.425  17.729  0.00  0.00    +0.000 NA
ATOM     15  C   UNL     1       4.057   6.299  17.117  0.00  0.00    +0.000 A 
ATOM     16  C   UNL     1       5.078   6.483  16.033  0.00  0.00    +0.000 C 
ENDBRANCH   1  11
BRANCH   3  17
ATOM     17  C   UNL     1      -0.576  11.415  21.402  0.00  0.00    +0.000 C 
ATOM     18  C   UNL     1      -1.168  11.194  22.793  0.00  0.00    +0.000 C 
ATOM     19  C   UNL     1      -2.472  11.925  22.780  0.00  0.00    +0.000 C 
ATOM     20  O   UNL     1      -3.273  11.906  23.707  0.00  0.00    +0.000 OA
ATOM     21  N   UNL     1      -2.594  12.634  21.626  0.00  0.00    +0.000 N 
ATOM     22  C   UNL     1      -1.554  12.413  20.771  0.00  0.00    +0.000 C 
ATOM     23  O   UNL     1      -1.413  12.945  19.669  0.00  0.00    +0.000 OA
BRANCH  21  24
ATOM     24  C   UNL     1      -3.682  13.561  21.370  0.00  0.00    +0.000 C 
BRANCH  24  25
ATOM     25  C   UNL     1      -4.922  12.875  20.849  0.00  0.00    +0.000 A 
ATOM     26  C   UNL     1      -6.039  12.695  21.678  0.00  0.00    +0.000 A 
ATOM     27  C   UNL     1      -7.161  12.006  21.216  0.00  0.00    +0.000 A 
ATOM     28  C   UNL     1      -7.184  11.498  19.918  0.00  0.00    +0.000 A 
ATOM     29  C   UNL     1      -6.090  11.693  19.076  0.00  0.00    +0.000 A 
ATOM     30  C   UNL     1      -4.963  12.374  19.539  0.00  0.00    +0.000 A 
ENDBRANCH  24  25
ENDBRANCH  21  24
ENDBRANCH   3  17
TORSDOF 4
ENDMDL
MODEL 8
REMARK VINA RESULT:      -7.8      3.329      5.080
REMARK  Name = 
REMARK  7 active torsions:
REMARK  status: ('A' for Active; 'I' for Inactive)
REMARK    1  A    between atoms: C_1  and  C_2
REMARK    2  A    between atoms: C_7  and  C_8
REMARK    3  A    between atoms: N_10  and  C_11
REMARK    4  A    between atoms: N_10  and  C_12
REMARK    5  A    between atoms: N_16  and  C_17
REMARK    6  A    between atoms: C_17  and  C_18
REMARK    7  A    between atoms: C_29  and  C_30
REMARK                            x       y       z     vdW  Elec       q    Type
REMARK                         _______ _______ _______ _____ _____    ______ ____
ROOT
ATOM      1  C   UNL     1       1.017  10.038  20.745  0.00  0.00    +0.000 C 
ATOM      2  O   UNL     1       1.268  10.080  21.952  0.00  0.00    +0.000 OA
ATOM      3  N   UNL     1       0.397  11.139  20.110  0.00  0.00    +0.000 N 
ATOM      4  C   UNL     1       0.051  11.242  18.697  0.00  0.00    +0.000 C 
ENDROOT
BRANCH   1  11
ATOM      5  C   UNL     1       3.559   3.014  18.229  0.00  0.00    +0.000 C 
ATOM      6  C   UNL     1       2.968   4.192  18.942  0.00  0.00    +0.000 A 
ATOM      7  N   UNL     1       3.032   5.371  18.281  0.00  0.00    +0.000 NA
ATOM      8  C   UNL     1       2.479   6.438  18.870  0.00  0.00    +0.000 A 
ATOM      9  C   UNL     1       2.411   7.617  18.151  0.00  0.00    +0.000 A 
ATOM     10  C   UNL     1       1.838   8.773  18.686  0.00  0.00    +0.000 A 
ATOM     11  C   UNL     1       1.459   8.799  20.023  0.00  0.00    +0.000 A 
ATOM     12  C   UNL     1       1.455   7.576  20.730  0.00  0.00    +0.000 A 
ATOM     13  C   UNL     1       1.927   6.383  20.167  0.00  0.00    +0.000 A 
ATOM     14  N   UNL     1       1.857   5.198  20.823  0.00  0.00    +0.000 NA
ATOM     15  C   UNL     1       2.346   4.095  20.185  0.00  0.00    +0.000 A 
ATOM     16  C   UNL     1       2.119   2.764  20.840  0.00  0.00    +0.000 C 
ENDBRANCH   1  11
BRANCH   3  17
ATOM     17  C   UNL     1       0.167  12.344  20.959  0.00  0.00    +0.000 C 
ATOM     18  C   UNL     1      -1.143  13.063  20.642  0.00  0.00    +0.000 C 
ATOM     19  C   UNL     1      -0.753  14.484  20.385  0.00  0.00    +0.000 C 
ATOM     20  O   UNL     1      -1.538  15.350  20.018  0.00  0.00    +0.000 OA
ATOM     21  N   UNL     1       0.566  14.660  20.669  0.00  0.00    +0.000 N 
ATOM     22  C   UNL     1       1.181  13.493  21.013  0.00  0.00    +0.000 C 
ATOM     23  O   UNL     1       2.365  13.380  21.332  0.00  0.00    +0.000 OA
BRANCH  21  24
ATOM     24  C   UNL     1       1.217  15.958  20.658  0.00  0.00    +0.000 C 
BRANCH  24  25
ATOM     25  C   UNL     1       1.672  16.371  19.278  0.00  0.00    +0.000 A 
ATOM     26  C   UNL     1       2.793  15.769  18.688  0.00  0.00    +0.000 A 
ATOM     27  C   UNL     1       3.250  16.194  17.440  0.00  0.00    +0.000 A 
ATOM     28  C   UNL     1       2.587  17.216  16.763  0.00  0.00    +0.000 A 
ATOM     29  C   UNL     1       1.457  17.805  17.328  0.00  0.00    +0.000 A 
ATOM     30  C   UNL     1       1.002  17.388  18.581  0.00  0.00    +0.000 A 
ENDBRANCH  24  25
ENDBRANCH  21  24
ENDBRANCH   3  17
TORSDOF 4
ENDMDL
MODEL 9
REMARK VINA RESULT:      -7.7      2.182      3.188
REMARK  Name = 
REMARK  7 active torsions:
REMARK  status: ('A' for Active; 'I' for Inactive)
REMARK    1  A    between atoms: C_1  and  C_2
REMARK    2  A    between atoms: C_7  and  C_8
REMARK    3  A    between atoms: N_10  and  C_11
REMARK    4  A    between atoms: N_10  and  C_12
REMARK    5  A    between atoms: N_16  and  C_17
REMARK    6  A    between atoms: C_17  and  C_18
REMARK    7  A    between atoms: C_29  and  C_30
REMARK                            x       y       z     vdW  Elec       q    Type
REMARK                         _______ _______ _______ _____ _____    ______ ____
ROOT
ATOM      1  C   UNL     1       1.981   9.048  18.203  0.00  0.00    +0.000 C 
ATOM      2  O   UNL     1       2.217   9.564  17.108  0.00  0.00    +0.000 OA
ATOM      3  N   UNL     1       1.166   9.720  19.144  0.00  0.00    +0.000 N 
ATOM      4  C   UNL     1       0.790   9.235  20.467  0.00  0.00    +0.000 C 
ENDROOT
BRANCH   1  11
ATOM      5  C   UNL     1       4.370   1.932  20.606  0.00  0.00    +0.000 C 
ATOM      6  C   UNL     1       3.671   3.225  20.315  0.00  0.00    +0.000 A 
ATOM      7  N   UNL     1       4.284   4.036  19.424  0.00  0.00    +0.000 NA
ATOM      8  C   UNL     1       3.668   5.183  19.109  0.00  0.00    +0.000 A 
ATOM      9  C   UNL     1       4.209   5.956  18.098  0.00  0.00    +0.000 A 
ATOM     10  C   UNL     1       3.622   7.160  17.699  0.00  0.00    +0.000 A 
ATOM     11  C   UNL     1       2.556   7.680  18.424  0.00  0.00    +0.000 A 
ATOM     12  C   UNL     1       1.958   6.854  19.402  0.00  0.00    +0.000 A 
ATOM     13  C   UNL     1       2.474   5.595  19.736  0.00  0.00    +0.000 A 
ATOM     14  N   UNL     1       1.858   4.775  20.623  0.00  0.00    +0.000 NA
ATOM     15  C   UNL     1       2.445   3.569  20.880  0.00  0.00    +0.000 A 
ATOM     16  C   UNL     1       1.680   2.600  21.732  0.00  0.00    +0.000 C 
ENDBRANCH   1  11
BRANCH   3  17
ATOM     17  C   UNL     1       0.560  11.005  18.690  0.00  0.00    +0.000 C 
ATOM     18  C   UNL     1       1.244  12.237  19.283  0.00  0.00    +0.000 C 
ATOM     19  C   UNL     1       0.141  13.029  19.908  0.00  0.00    +0.000 C 
ATOM     20  O   UNL     1       0.321  14.053  20.557  0.00  0.00    +0.000 OA
ATOM     21  N   UNL     1      -1.061  12.471  19.603  0.00  0.00    +0.000 N 
ATOM     22  C   UNL     1      -0.928  11.309  18.902  0.00  0.00    +0.000 C 
ATOM     23  O   UNL     1      -1.859  10.617  18.487  0.00  0.00    +0.000 OA
BRANCH  21  24
ATOM     24  C   UNL     1      -2.333  13.083  19.941  0.00  0.00    +0.000 C 
BRANCH  24  25
ATOM     25  C   UNL     1      -2.790  12.745  21.340  0.00  0.00    +0.000 A 
ATOM     26  C   UNL     1      -4.027  13.204  21.818  0.00  0.00    +0.000 A 
ATOM     27  C   UNL     1      -4.420  12.943  23.130  0.00  0.00    +0.000 A 
ATOM     28  C   UNL     1      -3.589  12.214  23.978  0.00  0.00    +0.000 A 
ATOM     29  C   UNL     1      -2.369  11.730  23.508  0.00  0.00    +0.000 A 
ATOM     30  C   UNL     1      -1.968  11.997  22.197  0.00  0.00    +0.000 A 
ENDBRANCH  24  25
ENDBRANCH  21  24
ENDBRANCH   3  17
TORSDOF 4
ENDMDL
