MODEL 1
REMARK VINA RESULT:      -8.1      0.000      0.000
REMARK  Name = 
REMARK  4 active torsions:
REMARK  status: ('A' for Active; 'I' for Inactive)
REMARK    1  A    between atoms: C_9  and  C_10
REMARK    2  A    between atoms: C_13  and  O_14
REMARK    3  A    between atoms: O_14  and  C_15
REMARK    4  A    between atoms: N_23  and  C_24
REMARK                            x       y       z     vdW  Elec       q    Type
REMARK                         _______ _______ _______ _____ _____    ______ ____
ROOT
ATOM      1  F   UNL     1       7.501   6.892  16.771  0.00  0.00    +0.000 F 
ATOM      2  C   UNL     1       6.611   5.896  16.647  0.00  0.00    +0.000 A 
ATOM      3  C   UNL     1       7.008   4.701  16.058  0.00  0.00    +0.000 A 
ATOM      4  C   UNL     1       6.102   3.655  15.921  0.00  0.00    +0.000 A 
ATOM      5  C   UNL     1       4.777   3.782  16.363  0.00  0.00    +0.000 A 
ATOM      6  C   UNL     1       4.386   4.992  16.967  0.00  0.00    +0.000 A 
ATOM      7  C   UNL     1       5.289   6.046  17.115  0.00  0.00    +0.000 A 
ATOM      8  N   UNL     1       4.700   7.119  17.743  0.00  0.00    +0.000 NA
ATOM      9  C   UNL     1       3.445   6.771  17.988  0.00  0.00    +0.000 A 
ATOM     10  N   UNL     1       3.225   5.461  17.556  0.00  0.00    +0.000 N 
ENDROOT
BRANCH   9  11
ATOM     11  C   UNL     1       2.474   7.665  18.649  0.00  0.00    +0.000 A 
ATOM     12  C   UNL     1       2.137   7.543  19.995  0.00  0.00    +0.000 A 
ATOM     13  C   UNL     1       1.287   8.465  20.613  0.00  0.00    +0.000 A 
ATOM     14  C   UNL     1       0.730   9.508  19.879  0.00  0.00    +0.000 A 
ATOM     15  C   UNL     1       0.966   9.581  18.505  0.00  0.00    +0.000 A 
ATOM     16  C   UNL     1       1.848   8.674  17.894  0.00  0.00    +0.000 A 
BRANCH  14  17
ATOM     17  O   UNL     1      -0.131  10.432  20.426  0.00  0.00    +0.000 OA
BRANCH  17  18
ATOM     18  C   UNL     1       0.224  11.772  20.355  0.00  0.00    +0.000 A 
ATOM     19  C   UNL     1      -0.581  12.611  19.596  0.00  0.00    +0.000 A 
ATOM     20  N   UNL     1      -0.322  13.936  19.450  0.00  0.00    +0.000 NA
ATOM     21  C   UNL     1       0.782  14.379  20.094  0.00  0.00    +0.000 A 
ATOM     22  C   UNL     1       1.589  13.543  20.846  0.00  0.00    +0.000 A 
ATOM     23  N   UNL     1       1.337  12.224  20.984  0.00  0.00    +0.000 NA
ENDBRANCH  17  18
ENDBRANCH  14  17
ENDBRANCH   9  11
BRANCH  10  24
ATOM     24  C   UNL     1       1.989   4.718  17.776  0.00  0.00    +0.000 C 
ATOM     25  C   UNL     1       1.528   4.111  19.082  0.00  0.00    +0.000 C 
ATOM     26  C   UNL     1       1.981   3.209  17.976  0.00  0.00    +0.000 C 
ENDBRANCH  10  24
TORSDOF 4
ENDMDL
MODEL 2
REMARK VINA RESULT:      -7.7      0.604      1.375
REMARK  Name = 
REMARK  4 active torsions:
REMARK  status: ('A' for Active; 'I' for Inactive)
REMARK    1  A    between atoms: C_9  and  C_10
REMARK    2  A    between atoms: C_13  and  O_14
REMARK    3  A    between atoms: O_14  and  C_15
REMARK    4  A    between atoms: N_23  and  C_24
REMARK                            x       y       z     vdW  Elec       q    Type
REMARK                         _______ _______ _______ _____ _____    ______ ____
ROOT
ATOM      1  F   UNL     1       7.572   6.897  16.699  0.00  0.00    +0.000 F 
ATOM      2  C   UNL     1       6.683   5.896  16.604  0.00  0.00    +0.000 A 
ATOM      3  C   UNL     1       7.082   4.682  16.059  0.00  0.00    +0.000 A 
ATOM      4  C   UNL     1       6.178   3.632  15.954  0.00  0.00    +0.000 A 
ATOM      5  C   UNL     1       4.851   3.774  16.384  0.00  0.00    +0.000 A 
ATOM      6  C   UNL     1       4.456   5.004  16.945  0.00  0.00    +0.000 A 
ATOM      7  C   UNL     1       5.358   6.062  17.061  0.00  0.00    +0.000 A 
ATOM      8  N   UNL     1       4.766   7.156  17.648  0.00  0.00    +0.000 NA
ATOM      9  C   UNL     1       3.510   6.816  17.900  0.00  0.00    +0.000 A 
ATOM     10  N   UNL     1       3.292   5.492  17.511  0.00  0.00    +0.000 N 
ENDROOT
BRANCH   9  11
ATOM     11  C   UNL     1       2.535   7.732  18.525  0.00  0.00    +0.000 A 
ATOM     12  C   UNL     1       1.930   8.774  17.825  0.00  0.00    +0.000 A 
ATOM     13  C   UNL     1       0.940   9.561  18.419  0.00  0.00    +0.000 A 
ATOM     14  C   UNL     1       0.565   9.340  19.741  0.00  0.00    +0.000 A 
ATOM     15  C   UNL     1       1.238   8.375  20.492  0.00  0.00    +0.000 A 
ATOM     16  C   UNL     1       2.208   7.562  19.882  0.00  0.00    +0.000 A 
BRANCH  14  17
ATOM     17  O   UNL     1      -0.386  10.098  20.386  0.00  0.00    +0.000 OA
BRANCH  17  18
ATOM     18  C   UNL     1      -0.224  11.476  20.394  0.00  0.00    +0.000 A 
ATOM     19  C   UNL     1       0.778  12.002  21.200  0.00  0.00    +0.000 A 
ATOM     20  N   UNL     1       1.017  13.335  21.291  0.00  0.00    +0.000 NA
ATOM     21  C   UNL     1       0.205  14.116  20.542  0.00  0.00    +0.000 A 
ATOM     22  C   UNL     1      -0.797  13.595  19.743  0.00  0.00    +0.000 A 
ATOM     23  N   UNL     1      -1.042  12.269  19.659  0.00  0.00    +0.000 NA
ENDBRANCH  17  18
ENDBRANCH  14  17
ENDBRANCH   9  11
BRANCH  10  24
ATOM     24  C   UNL     1       2.055   4.757  17.751  0.00  0.00    +0.000 C 
ATOM     25  C   UNL     1       1.619   4.136  19.059  0.00  0.00    +0.000 C 
ATOM     26  C   UNL     1       2.039   3.245  17.931  0.00  0.00    +0.000 C 
ENDBRANCH  10  24
TORSDOF 4
ENDMDL
MODEL 3
REMARK VINA RESULT:      -7.7      2.665      3.998
REMARK  Name = 
REMARK  4 active torsions:
REMARK  status: ('A' for Active; 'I' for Inactive)
REMARK    1  A    between atoms: C_9  and  C_10
REMARK    2  A    between atoms: C_13  and  O_14
REMARK    3  A    between atoms: O_14  and  C_15
REMARK    4  A    between atoms: N_23  and  C_24
REMARK                            x       y       z     vdW  Elec       q    Type
REMARK                         _______ _______ _______ _____ _____    ______ ____
ROOT
ATOM      1  F   UNL     1       1.771   3.217  22.061  0.00  0.00    +0.000 F 
ATOM      2  C   UNL     1       2.643   3.328  21.046  0.00  0.00    +0.000 A 
ATOM      3  C   UNL     1       3.457   2.248  20.730  0.00  0.00    +0.000 A 
ATOM      4  C   UNL     1       4.366   2.340  19.681  0.00  0.00    +0.000 A 
ATOM      5  C   UNL     1       4.486   3.518  18.930  0.00  0.00    +0.000 A 
ATOM      6  C   UNL     1       3.649   4.605  19.250  0.00  0.00    +0.000 A 
ATOM      7  C   UNL     1       2.730   4.520  20.297  0.00  0.00    +0.000 A 
ATOM      8  N   UNL     1       2.011   5.686  20.421  0.00  0.00    +0.000 NA
ATOM      9  C   UNL     1       2.459   6.508  19.483  0.00  0.00    +0.000 A 
ATOM     10  N   UNL     1       3.442   5.868  18.724  0.00  0.00    +0.000 N 
ENDROOT
BRANCH   9  11
ATOM     11  C   UNL     1       1.942   7.878  19.295  0.00  0.00    +0.000 A 
ATOM     12  C   UNL     1       2.021   8.548  18.076  0.00  0.00    +0.000 A 
ATOM     13  C   UNL     1       1.435   9.806  17.906  0.00  0.00    +0.000 A 
ATOM     14  C   UNL     1       0.789  10.429  18.969  0.00  0.00    +0.000 A 
ATOM     15  C   UNL     1       0.797   9.824  20.226  0.00  0.00    +0.000 A 
ATOM     16  C   UNL     1       1.356   8.544  20.386  0.00  0.00    +0.000 A 
BRANCH  14  17
ATOM     17  O   UNL     1       0.214  11.677  18.868  0.00  0.00    +0.000 OA
BRANCH  17  18
ATOM     18  C   UNL     1      -1.169  11.750  18.788  0.00  0.00    +0.000 A 
ATOM     19  C   UNL     1      -1.845  12.341  19.848  0.00  0.00    +0.000 A 
ATOM     20  N   UNL     1      -3.197  12.456  19.878  0.00  0.00    +0.000 NA
ATOM     21  C   UNL     1      -3.841  11.948  18.802  0.00  0.00    +0.000 A 
ATOM     22  C   UNL     1      -3.170  11.353  17.748  0.00  0.00    +0.000 A 
ATOM     23  N   UNL     1      -1.825  11.230  17.721  0.00  0.00    +0.000 NA
ENDBRANCH  17  18
ENDBRANCH  14  17
ENDBRANCH   9  11
BRANCH  10  24
ATOM     24  C   UNL     1       4.067   6.439  17.536  0.00  0.00    +0.000 C 
ATOM     25  C   UNL     1       4.918   5.701  16.527  0.00  0.00    +0.000 C 
ATOM     26  C   UNL     1       5.567   6.682  17.453  0.00  0.00    +0.000 C 
ENDBRANCH  10  24
TORSDOF 4
ENDMDL
MODEL 4
REMARK VINA RESULT:      -7.7      1.595      1.995
REMARK  Name = 
REMARK  4 active torsions:
REMARK  status: ('A' for Active; 'I' for Inactive)
REMARK    1  A    between atoms: C_9  and  C_10
REMARK    2  A    between atoms: C_13  and  O_14
REMARK    3  A    between atoms: O_14  and  C_15
REMARK    4  A    between atoms: N_23  and  C_24
REMARK                            x       y       z     vdW  Elec       q    Type
REMARK                         _______ _______ _______ _____ _____    ______ ____
ROOT
ATOM      1  F   UNL     1       7.598   6.884  16.701  0.00  0.00    +0.000 F 
ATOM      2  C   UNL     1       6.708   5.886  16.604  0.00  0.00    +0.000 A 
ATOM      3  C   UNL     1       7.106   4.672  16.057  0.00  0.00    +0.000 A 
ATOM      4  C   UNL     1       6.201   3.622  15.949  0.00  0.00    +0.000 A 
ATOM      5  C   UNL     1       4.873   3.765  16.379  0.00  0.00    +0.000 A 
ATOM      6  C   UNL     1       4.480   4.994  16.942  0.00  0.00    +0.000 A 
ATOM      7  C   UNL     1       5.383   6.051  17.060  0.00  0.00    +0.000 A 
ATOM      8  N   UNL     1       4.792   7.145  17.650  0.00  0.00    +0.000 NA
ATOM      9  C   UNL     1       3.535   6.806  17.900  0.00  0.00    +0.000 A 
ATOM     10  N   UNL     1       3.317   5.483  17.509  0.00  0.00    +0.000 N 
ENDROOT
BRANCH   9  11
ATOM     11  C   UNL     1       2.561   7.722  18.526  0.00  0.00    +0.000 A 
ATOM     12  C   UNL     1       2.129   7.570  19.842  0.00  0.00    +0.000 A 
ATOM     13  C   UNL     1       1.280   8.510  20.434  0.00  0.00    +0.000 A 
ATOM     14  C   UNL     1       0.821   9.601  19.702  0.00  0.00    +0.000 A 
ATOM     15  C   UNL     1       1.153   9.709  18.351  0.00  0.00    +0.000 A 
ATOM     16  C   UNL     1       2.034   8.783  17.768  0.00  0.00    +0.000 A 
BRANCH  14  17
ATOM     17  O   UNL     1      -0.034  10.546  20.224  0.00  0.00    +0.000 OA
BRANCH  17  18
ATOM     18  C   UNL     1      -1.195  10.832  19.519  0.00  0.00    +0.000 A 
ATOM     19  C   UNL     1      -1.951  11.919  19.938  0.00  0.00    +0.000 A 
ATOM     20  N   UNL     1      -3.108  12.282  19.326  0.00  0.00    +0.000 NA
ATOM     21  C   UNL     1      -3.475  11.503  18.283  0.00  0.00    +0.000 A 
ATOM     22  C   UNL     1      -2.726  10.416  17.868  0.00  0.00    +0.000 A 
ATOM     23  N   UNL     1      -1.580  10.049  18.481  0.00  0.00    +0.000 NA
ENDBRANCH  17  18
ENDBRANCH  14  17
ENDBRANCH   9  11
BRANCH  10  24
ATOM     24  C   UNL     1       2.078   4.749  17.746  0.00  0.00    +0.000 C 
ATOM     25  C   UNL     1       1.655   4.100  19.045  0.00  0.00    +0.000 C 
ATOM     26  C   UNL     1       2.056   3.233  17.892  0.00  0.00    +0.000 C 
ENDBRANCH  10  24
TORSDOF 4
ENDMDL
MODEL 5
REMARK VINA RESULT:      -7.5      1.298      1.667
REMARK  Name = 
REMARK  4 active torsions:
REMARK  status: ('A' for Active; 'I' for Inactive)
REMARK    1  A    between atoms: C_9  and  C_10
REMARK    2  A    between atoms: C_13  and  O_14
REMARK    3  A    between atoms: O_14  and  C_15
REMARK    4  A    between atoms: N_23  and  C_24
REMARK                            x       y       z     vdW  Elec       q    Type
REMARK                         _______ _______ _______ _____ _____    ______ ____
ROOT
ATOM      1  F   UNL     1       5.234   6.542  15.716  0.00  0.00    +0.000 F 
ATOM      2  C   UNL     1       4.726   5.612  16.539  0.00  0.00    +0.000 A 
ATOM      3  C   UNL     1       5.109   4.285  16.381  0.00  0.00    +0.000 A 
ATOM      4  C   UNL     1       4.597   3.305  17.224  0.00  0.00    +0.000 A 
ATOM      5  C   UNL     1       3.685   3.627  18.239  0.00  0.00    +0.000 A 
ATOM      6  C   UNL     1       3.310   4.975  18.399  0.00  0.00    +0.000 A 
ATOM      7  C   UNL     1       3.823   5.967  17.562  0.00  0.00    +0.000 A 
ATOM      8  N   UNL     1       3.336   7.207  17.906  0.00  0.00    +0.000 NA
ATOM      9  C   UNL     1       2.523   7.021  18.936  0.00  0.00    +0.000 A 
ATOM     10  N   UNL     1       2.507   5.669  19.286  0.00  0.00    +0.000 N 
ENDROOT
BRANCH   9  11
ATOM     11  C   UNL     1       1.788   8.119  19.594  0.00  0.00    +0.000 A 
ATOM     12  C   UNL     1       1.520   8.128  20.961  0.00  0.00    +0.000 A 
ATOM     13  C   UNL     1       0.908   9.229  21.568  0.00  0.00    +0.000 A 
ATOM     14  C   UNL     1       0.520  10.326  20.806  0.00  0.00    +0.000 A 
ATOM     15  C   UNL     1       0.679  10.288  19.420  0.00  0.00    +0.000 A 
ATOM     16  C   UNL     1       1.326   9.196  18.817  0.00  0.00    +0.000 A 
BRANCH  14  17
ATOM     17  O   UNL     1      -0.107  11.427  21.344  0.00  0.00    +0.000 OA
BRANCH  17  18
ATOM     18  C   UNL     1       0.397  12.681  21.027  0.00  0.00    +0.000 A 
ATOM     19  C   UNL     1      -0.419  13.538  20.300  0.00  0.00    +0.000 A 
ATOM     20  N   UNL     1      -0.023  14.783  19.929  0.00  0.00    +0.000 NA
ATOM     21  C   UNL     1       1.227  15.126  20.314  0.00  0.00    +0.000 A 
ATOM     22  C   UNL     1       2.044  14.271  21.033  0.00  0.00    +0.000 A 
ATOM     23  N   UNL     1       1.655  13.030  21.395  0.00  0.00    +0.000 NA
ENDBRANCH  17  18
ENDBRANCH  14  17
ENDBRANCH   9  11
BRANCH  10  24
ATOM     24  C   UNL     1       1.810   5.128  20.449  0.00  0.00    +0.000 C 
ATOM     25  C   UNL     1       2.116   3.825  21.153  0.00  0.00    +0.000 C 
ATOM     26  C   UNL     1       0.864   3.939  20.339  0.00  0.00    +0.000 C 
ENDBRANCH  10  24
TORSDOF 4
ENDMDL
MODEL 6
REMARK VINA RESULT:      -7.4      1.350      1.910
REMARK  Name = 
REMARK  4 active torsions:
REMARK  status: ('A' for Active; 'I' for Inactive)
REMARK    1  A    between atoms: C_9  and  C_10
REMARK    2  A    between atoms: C_13  and  O_14
REMARK    3  A    between atoms: O_14  and  C_15
REMARK    4  A    between atoms: N_23  and  C_24
REMARK                            x       y       z     vdW  Elec       q    Type
REMARK                         _______ _______ _______ _____ _____    ______ ____
ROOT
ATOM      1  F   UNL     1       5.227   6.694  15.607  0.00  0.00    +0.000 F 
ATOM      2  C   UNL     1       4.810   5.756  16.470  0.00  0.00    +0.000 A 
ATOM      3  C   UNL     1       5.286   4.456  16.341  0.00  0.00    +0.000 A 
ATOM      4  C   UNL     1       4.869   3.468  17.226  0.00  0.00    +0.000 A 
ATOM      5  C   UNL     1       3.959   3.754  18.254  0.00  0.00    +0.000 A 
ATOM      6  C   UNL     1       3.489   5.076  18.384  0.00  0.00    +0.000 A 
ATOM      7  C   UNL     1       3.907   6.076  17.505  0.00  0.00    +0.000 A 
ATOM      8  N   UNL     1       3.337   7.286  17.825  0.00  0.00    +0.000 NA
ATOM      9  C   UNL     1       2.564   7.073  18.880  0.00  0.00    +0.000 A 
ATOM     10  N   UNL     1       2.658   5.735  19.271  0.00  0.00    +0.000 N 
ENDROOT
BRANCH   9  11
ATOM     11  C   UNL     1       1.766   8.135  19.524  0.00  0.00    +0.000 A 
ATOM     12  C   UNL     1       1.309   9.254  18.831  0.00  0.00    +0.000 A 
ATOM     13  C   UNL     1       0.474  10.191  19.447  0.00  0.00    +0.000 A 
ATOM     14  C   UNL     1       0.113  10.041  20.782  0.00  0.00    +0.000 A 
ATOM     15  C   UNL     1       0.651   8.987  21.523  0.00  0.00    +0.000 A 
ATOM     16  C   UNL     1       1.461   8.027  20.893  0.00  0.00    +0.000 A 
BRANCH  14  17
ATOM     17  O   UNL     1      -0.686  10.943  21.448  0.00  0.00    +0.000 OA
BRANCH  17  18
ATOM     18  C   UNL     1      -0.464  12.295  21.227  0.00  0.00    +0.000 A 
ATOM     19  C   UNL     1      -1.451  13.008  20.560  0.00  0.00    +0.000 A 
ATOM     20  N   UNL     1      -1.333  14.332  20.283  0.00  0.00    +0.000 NA
ATOM     21  C   UNL     1      -0.180  14.905  20.700  0.00  0.00    +0.000 A 
ATOM     22  C   UNL     1       0.807  14.194  21.359  0.00  0.00    +0.000 A 
ATOM     23  N   UNL     1       0.694  12.876  21.627  0.00  0.00    +0.000 NA
ENDBRANCH  17  18
ENDBRANCH  14  17
ENDBRANCH   9  11
BRANCH  10  24
ATOM     24  C   UNL     1       2.030   5.182  20.466  0.00  0.00    +0.000 C 
ATOM     25  C   UNL     1       2.267   3.806  21.048  0.00  0.00    +0.000 C 
ATOM     26  C   UNL     1       0.957   4.104  20.386  0.00  0.00    +0.000 C 
ENDBRANCH  10  24
TORSDOF 4
ENDMDL
MODEL 7
REMARK VINA RESULT:      -7.4      2.263      3.612
REMARK  Name = 
REMARK  4 active torsions:
REMARK  status: ('A' for Active; 'I' for Inactive)
REMARK    1  A    between atoms: C_9  and  C_10
REMARK    2  A    between atoms: C_13  and  O_14
REMARK    3  A    between atoms: O_14  and  C_15
REMARK    4  A    between atoms: N_23  and  C_24
REMARK                            x       y       z     vdW  Elec       q    Type
REMARK                         _______ _______ _______ _____ _____    ______ ____
ROOT
ATOM      1  F   UNL     1       0.959   2.614  19.985  0.00  0.00    +0.000 F 
ATOM      2  C   UNL     1       2.012   2.882  19.197  0.00  0.00    +0.000 A 
ATOM      3  C   UNL     1       2.772   1.831  18.699  0.00  0.00    +0.000 A 
ATOM      4  C   UNL     1       3.865   2.086  17.879  0.00  0.00    +0.000 A 
ATOM      5  C   UNL     1       4.228   3.398  17.544  0.00  0.00    +0.000 A 
ATOM      6  C   UNL     1       3.446   4.457  18.044  0.00  0.00    +0.000 A 
ATOM      7  C   UNL     1       2.344   4.211  18.863  0.00  0.00    +0.000 A 
ATOM      8  N   UNL     1       1.720   5.385  19.220  0.00  0.00    +0.000 NA
ATOM      9  C   UNL     1       2.407   6.366  18.653  0.00  0.00    +0.000 A 
ATOM     10  N   UNL     1       3.454   5.833  17.896  0.00  0.00    +0.000 N 
ENDROOT
BRANCH   9  11
ATOM     11  C   UNL     1       2.058   7.792  18.807  0.00  0.00    +0.000 A 
ATOM     12  C   UNL     1       2.215   8.718  17.779  0.00  0.00    +0.000 A 
ATOM     13  C   UNL     1       1.784  10.040  17.927  0.00  0.00    +0.000 A 
ATOM     14  C   UNL     1       1.220  10.464  19.126  0.00  0.00    +0.000 A 
ATOM     15  C   UNL     1       1.156   9.581  20.204  0.00  0.00    +0.000 A 
ATOM     16  C   UNL     1       1.558   8.244  20.042  0.00  0.00    +0.000 A 
BRANCH  14  17
ATOM     17  O   UNL     1       0.799  11.758  19.339  0.00  0.00    +0.000 OA
BRANCH  17  18
ATOM     18  C   UNL     1      -0.556  11.973  19.552  0.00  0.00    +0.000 A 
ATOM     19  C   UNL     1      -1.426  11.679  18.510  0.00  0.00    +0.000 A 
ATOM     20  N   UNL     1      -2.768  11.861  18.606  0.00  0.00    +0.000 NA
ATOM     21  C   UNL     1      -3.196  12.356  19.790  0.00  0.00    +0.000 A 
ATOM     22  C   UNL     1      -2.330  12.655  20.827  0.00  0.00    +0.000 A 
ATOM     23  N   UNL     1      -0.995  12.483  20.729  0.00  0.00    +0.000 NA
ENDBRANCH  17  18
ENDBRANCH  14  17
ENDBRANCH   9  11
BRANCH  10  24
ATOM     24  C   UNL     1       4.338   6.621  17.044  0.00  0.00    +0.000 C 
ATOM     25  C   UNL     1       5.316   6.083  16.024  0.00  0.00    +0.000 C 
ATOM     26  C   UNL     1       5.840   6.690  17.289  0.00  0.00    +0.000 C 
ENDBRANCH  10  24
TORSDOF 4
ENDMDL
MODEL 8
REMARK VINA RESULT:      -7.4      2.219      3.445
REMARK  Name = 
REMARK  4 active torsions:
REMARK  status: ('A' for Active; 'I' for Inactive)
REMARK    1  A    between atoms: C_9  and  C_10
REMARK    2  A    between atoms: C_13  and  O_14
REMARK    3  A    between atoms: O_14  and  C_15
REMARK    4  A    between atoms: N_23  and  C_24
REMARK                            x       y       z     vdW  Elec       q    Type
REMARK                         _______ _______ _______ _____ _____    ______ ____
ROOT
ATOM      1  F   UNL     1       1.083   2.455  19.877  0.00  0.00    +0.000 F 
ATOM      2  C   UNL     1       2.119   2.785  19.091  0.00  0.00    +0.000 A 
ATOM      3  C   UNL     1       2.905   1.776  18.546  0.00  0.00    +0.000 A 
ATOM      4  C   UNL     1       3.982   2.095  17.726  0.00  0.00    +0.000 A 
ATOM      5  C   UNL     1       4.302   3.429  17.438  0.00  0.00    +0.000 A 
ATOM      6  C   UNL     1       3.495   4.445  17.986  0.00  0.00    +0.000 A 
ATOM      7  C   UNL     1       2.408   4.135  18.805  0.00  0.00    +0.000 A 
ATOM      8  N   UNL     1       1.754   5.275  19.213  0.00  0.00    +0.000 NA
ATOM      9  C   UNL     1       2.406   6.297  18.677  0.00  0.00    +0.000 A 
ATOM     10  N   UNL     1       3.461   5.825  17.891  0.00  0.00    +0.000 N 
ENDROOT
BRANCH   9  11
ATOM     11  C   UNL     1       2.017   7.705  18.890  0.00  0.00    +0.000 A 
ATOM     12  C   UNL     1       2.059   8.656  17.873  0.00  0.00    +0.000 A 
ATOM     13  C   UNL     1       1.591   9.957  18.084  0.00  0.00    +0.000 A 
ATOM     14  C   UNL     1       1.106  10.336  19.331  0.00  0.00    +0.000 A 
ATOM     15  C   UNL     1       1.160   9.430  20.392  0.00  0.00    +0.000 A 
ATOM     16  C   UNL     1       1.597   8.113  20.169  0.00  0.00    +0.000 A 
BRANCH  14  17
ATOM     17  O   UNL     1       0.655  11.608  19.605  0.00  0.00    +0.000 OA
BRANCH  17  18
ATOM     18  C   UNL     1       1.598  12.617  19.742  0.00  0.00    +0.000 A 
ATOM     19  C   UNL     1       1.970  13.309  18.597  0.00  0.00    +0.000 A 
ATOM     20  N   UNL     1       2.890  14.307  18.615  0.00  0.00    +0.000 NA
ATOM     21  C   UNL     1       3.423  14.575  19.829  0.00  0.00    +0.000 A 
ATOM     22  C   UNL     1       3.058  13.882  20.969  0.00  0.00    +0.000 A 
ATOM     23  N   UNL     1       2.149  12.883  20.951  0.00  0.00    +0.000 NA
ENDBRANCH  17  18
ENDBRANCH  14  17
ENDBRANCH   9  11
BRANCH  10  24
ATOM     24  C   UNL     1       4.312   6.671  17.063  0.00  0.00    +0.000 C 
ATOM     25  C   UNL     1       5.253   6.205  15.974  0.00  0.00    +0.000 C 
ATOM     26  C   UNL     1       5.822   6.729  17.256  0.00  0.00    +0.000 C 
ENDBRANCH  10  24
TORSDOF 4
ENDMDL
MODEL 9
REMARK VINA RESULT:      -7.4      2.548      3.677
REMARK  Name = 
REMARK  4 active torsions:
REMARK  status: ('A' for Active; 'I' for Inactive)
REMARK    1  A    between atoms: C_9  and  C_10
REMARK    2  A    between atoms: C_13  and  O_14
REMARK    3  A    between atoms: O_14  and  C_15
REMARK    4  A    between atoms: N_23  and  C_24
REMARK                            x       y       z     vdW  Elec       q    Type
REMARK                         _______ _______ _______ _____ _____    ______ ____
ROOT
ATOM      1  F   UNL     1       1.740   3.219  22.174  0.00  0.00    +0.000 F 
ATOM      2  C   UNL     1       2.593   3.256  21.139  0.00  0.00    +0.000 A 
ATOM      3  C   UNL     1       3.349   2.129  20.841  0.00  0.00    +0.000 A 
ATOM      4  C   UNL     1       4.237   2.145  19.771  0.00  0.00    +0.000 A 
ATOM      5  C   UNL     1       4.395   3.291  18.979  0.00  0.00    +0.000 A 
ATOM      6  C   UNL     1       3.618   4.425  19.280  0.00  0.00    +0.000 A 
ATOM      7  C   UNL     1       2.719   4.417  20.348  0.00  0.00    +0.000 A 
ATOM      8  N   UNL     1       2.059   5.620  20.449  0.00  0.00    +0.000 NA
ATOM      9  C   UNL     1       2.523   6.390  19.475  0.00  0.00    +0.000 A 
ATOM     10  N   UNL     1       3.458   5.679  18.717  0.00  0.00    +0.000 N 
ENDROOT
BRANCH   9  11
ATOM     11  C   UNL     1       2.066   7.775  19.252  0.00  0.00    +0.000 A 
ATOM     12  C   UNL     1       2.223   8.430  18.032  0.00  0.00    +0.000 A 
ATOM     13  C   UNL     1       1.693   9.706  17.825  0.00  0.00    +0.000 A 
ATOM     14  C   UNL     1       1.025  10.364  18.853  0.00  0.00    +0.000 A 
ATOM     15  C   UNL     1       0.955   9.772  20.115  0.00  0.00    +0.000 A 
ATOM     16  C   UNL     1       1.458   8.474  20.310  0.00  0.00    +0.000 A 
BRANCH  14  17
ATOM     17  O   UNL     1       0.502  11.631  18.716  0.00  0.00    +0.000 OA
BRANCH  17  18
ATOM     18  C   UNL     1       1.283  12.704  19.124  0.00  0.00    +0.000 A 
ATOM     19  C   UNL     1       2.286  13.133  18.265  0.00  0.00    +0.000 A 
ATOM     20  N   UNL     1       3.113  14.166  18.567  0.00  0.00    +0.000 NA
ATOM     21  C   UNL     1       2.893  14.744  19.770  0.00  0.00    +0.000 A 
ATOM     22  C   UNL     1       1.898  14.314  20.630  0.00  0.00    +0.000 A 
ATOM     23  N   UNL     1       1.081  13.281  20.334  0.00  0.00    +0.000 NA
ENDBRANCH  17  18
ENDBRANCH  14  17
ENDBRANCH   9  11
BRANCH  10  24
ATOM     24  C   UNL     1       4.081   6.182  17.498  0.00  0.00    +0.000 C 
ATOM     25  C   UNL     1       5.037   5.426  16.602  0.00  0.00    +0.000 C 
ATOM     26  C   UNL     1       5.558   6.551  17.442  0.00  0.00    +0.000 C 
ENDBRANCH  10  24
TORSDOF 4
ENDMDL
