MODEL 1
REMARK VINA RESULT:      -8.3      0.000      0.000
REMARK  Name = 
REMARK  6 active torsions:
REMARK  status: ('A' for Active; 'I' for Inactive)
REMARK    1  A    between atoms: C_2  and  C_12
REMARK    2  A    between atoms: N_3  and  C_4
REMARK    3  A    between atoms: C_4  and  C_5
REMARK    4  A    between atoms: C_5  and  C_6
REMARK    5  A    between atoms: C_16  and  S_17
REMARK    6  A    between atoms: S_17  and  N_20
REMARK                            x       y       z     vdW  Elec       q    Type
REMARK                         _______ _______ _______ _____ _____    ______ ____
ROOT
ATOM      1  C   UNL     1       6.330   5.580  17.846  0.00  0.00    +0.000 A 
ATOM      2  C   UNL     1       6.545   4.763  16.729  0.00  0.00    +0.000 A 
ATOM      3  C   UNL     1       5.500   3.997  16.213  0.00  0.00    +0.000 A 
ATOM      4  C   UNL     1       4.239   4.040  16.813  0.00  0.00    +0.000 A 
ATOM      5  C   UNL     1       4.018   4.887  17.905  0.00  0.00    +0.000 A 
ATOM      6  C   UNL     1       5.059   5.667  18.416  0.00  0.00    +0.000 A 
ENDROOT
BRANCH   1   8
ATOM      7  O   UNL     1       8.184   5.804  19.278  0.00  0.00    +0.000 OA
ATOM      8  C   UNL     1       7.476   6.326  18.423  0.00  0.00    +0.000 C 
ATOM      9  N   UNL     1       7.641   7.617  17.965  0.00  0.00    +0.000 N 
ATOM     10  H   UNL     1       6.872   8.059  17.476  0.00  0.00    +0.000 HD
BRANCH   9  11
ATOM     11  C   UNL     1       8.658   8.469  18.553  0.00  0.00    +0.000 C 
BRANCH  11  12
ATOM     12  C   UNL     1       8.558   9.905  18.050  0.00  0.00    +0.000 C 
BRANCH  12  13
ATOM     13  C   UNL     1       9.613  10.794  18.656  0.00  0.00    +0.000 A 
ATOM     14  C   UNL     1       9.652  11.013  20.039  0.00  0.00    +0.000 A 
ATOM     15  C   UNL     1      10.647  11.817  20.598  0.00  0.00    +0.000 A 
ATOM     16  C   UNL     1      11.603  12.417  19.779  0.00  0.00    +0.000 A 
ATOM     17  C   UNL     1      11.556  12.226  18.400  0.00  0.00    +0.000 A 
ATOM     18  C   UNL     1      10.563  11.422  17.839  0.00  0.00    +0.000 A 
ENDBRANCH  12  13
ENDBRANCH  11  12
ENDBRANCH   9  11
ENDBRANCH   1   8
BRANCH   5  19
ATOM     19  S   UNL     1       2.471   4.838  18.801  0.00  0.00    +0.000 S 
ATOM     20  O   UNL     1       1.509   4.170  17.954  0.00  0.00    +0.000 OA
ATOM     21  O   UNL     1       2.776   4.336  20.125  0.00  0.00    +0.000 OA
BRANCH  19  22
ATOM     22  N   UNL     1       2.031   6.482  18.929  0.00  0.00    +0.000 NA
ATOM     23  C   UNL     1       2.212   7.127  20.245  0.00  0.00    +0.000 C 
ATOM     24  C   UNL     1       1.052   8.064  20.578  0.00  0.00    +0.000 C 
ATOM     25  C   UNL     1       1.186   9.457  19.972  0.00  0.00    +0.000 C 
ATOM     26  C   UNL     1       1.174   9.469  18.449  0.00  0.00    +0.000 C 
ATOM     27  C   UNL     1       2.386   8.771  17.849  0.00  0.00    +0.000 C 
ATOM     28  C   UNL     1       2.211   7.270  17.688  0.00  0.00    +0.000 C 
ENDBRANCH  19  22
ENDBRANCH   5  19
TORSDOF 6
ENDMDL
MODEL 2
REMARK VINA RESULT:      -8.3      2.786      3.850
REMARK  Name = 
REMARK  6 active torsions:
REMARK  status: ('A' for Active; 'I' for Inactive)
REMARK    1  A    between atoms: C_2  and  C_12
REMARK    2  A    between atoms: N_3  and  C_4
REMARK    3  A    between atoms: C_4  and  C_5
REMARK    4  A    between atoms: C_5  and  C_6
REMARK    5  A    between atoms: C_16  and  S_17
REMARK    6  A    between atoms: S_17  and  N_20
REMARK                            x       y       z     vdW  Elec       q    Type
REMARK                         _______ _______ _______ _____ _____    ______ ____
ROOT
ATOM      1  C   UNL     1       7.953   7.685  18.147  0.00  0.00    +0.000 A 
ATOM      2  C   UNL     1       8.424   6.828  19.151  0.00  0.00    +0.000 A 
ATOM      3  C   UNL     1       8.077   5.478  19.135  0.00  0.00    +0.000 A 
ATOM      4  C   UNL     1       7.254   4.979  18.122  0.00  0.00    +0.000 A 
ATOM      5  C   UNL     1       6.818   5.831  17.100  0.00  0.00    +0.000 A 
ATOM      6  C   UNL     1       7.175   7.181  17.104  0.00  0.00    +0.000 A 
ENDROOT
BRANCH   1   8
ATOM      7  O   UNL     1       7.754   9.923  17.448  0.00  0.00    +0.000 OA
ATOM      8  C   UNL     1       8.274   9.133  18.228  0.00  0.00    +0.000 C 
ATOM      9  N   UNL     1       9.201   9.487  19.186  0.00  0.00    +0.000 N 
ATOM     10  H   UNL     1       9.775   8.761  19.596  0.00  0.00    +0.000 HD
BRANCH   9  11
ATOM     11  C   UNL     1       9.670  10.857  19.266  0.00  0.00    +0.000 C 
BRANCH  11  12
ATOM     12  C   UNL     1      10.541  11.232  18.070  0.00  0.00    +0.000 C 
BRANCH  12  13
ATOM     13  C   UNL     1      11.155  12.600  18.221  0.00  0.00    +0.000 A 
ATOM     14  C   UNL     1      11.240  13.208  19.479  0.00  0.00    +0.000 A 
ATOM     15  C   UNL     1      11.832  14.465  19.617  0.00  0.00    +0.000 A 
ATOM     16  C   UNL     1      12.333  15.127  18.498  0.00  0.00    +0.000 A 
ATOM     17  C   UNL     1      12.228  14.542  17.238  0.00  0.00    +0.000 A 
ATOM     18  C   UNL     1      11.638  13.285  17.098  0.00  0.00    +0.000 A 
ENDBRANCH  12  13
ENDBRANCH  11  12
ENDBRANCH   9  11
ENDBRANCH   1   8
BRANCH   5  19
ATOM     19  S   UNL     1       5.628   5.268  15.889  0.00  0.00    +0.000 S 
ATOM     20  O   UNL     1       5.289   6.406  15.064  0.00  0.00    +0.000 OA
ATOM     21  O   UNL     1       6.170   4.058  15.305  0.00  0.00    +0.000 OA
BRANCH  19  22
ATOM     22  N   UNL     1       4.264   4.856  16.829  0.00  0.00    +0.000 NA
ATOM     23  C   UNL     1       4.150   3.452  17.270  0.00  0.00    +0.000 C 
ATOM     24  C   UNL     1       2.708   2.951  17.188  0.00  0.00    +0.000 C 
ATOM     25  C   UNL     1       1.857   3.312  18.400  0.00  0.00    +0.000 C 
ATOM     26  C   UNL     1       1.659   4.810  18.590  0.00  0.00    +0.000 C 
ATOM     27  C   UNL     1       2.957   5.534  18.918  0.00  0.00    +0.000 C 
ATOM     28  C   UNL     1       3.755   5.947  17.692  0.00  0.00    +0.000 C 
ENDBRANCH  19  22
ENDBRANCH   5  19
TORSDOF 6
ENDMDL
MODEL 3
REMARK VINA RESULT:      -8.3      0.576      1.082
REMARK  Name = 
REMARK  6 active torsions:
REMARK  status: ('A' for Active; 'I' for Inactive)
REMARK    1  A    between atoms: C_2  and  C_12
REMARK    2  A    between atoms: N_3  and  C_4
REMARK    3  A    between atoms: C_4  and  C_5
REMARK    4  A    between atoms: C_5  and  C_6
REMARK    5  A    between atoms: C_16  and  S_17
REMARK    6  A    between atoms: S_17  and  N_20
REMARK                            x       y       z     vdW  Elec       q    Type
REMARK                         _______ _______ _______ _____ _____    ______ ____
ROOT
ATOM      1  C   UNL     1       6.532   5.782  17.536  0.00  0.00    +0.000 A 
ATOM      2  C   UNL     1       6.897   5.108  16.363  0.00  0.00    +0.000 A 
ATOM      3  C   UNL     1       5.974   4.288  15.714  0.00  0.00    +0.000 A 
ATOM      4  C   UNL     1       4.687   4.134  16.236  0.00  0.00    +0.000 A 
ATOM      5  C   UNL     1       4.315   4.840  17.386  0.00  0.00    +0.000 A 
ATOM      6  C   UNL     1       5.232   5.674  18.030  0.00  0.00    +0.000 A 
ENDROOT
BRANCH   1   8
ATOM      7  O   UNL     1       8.171   6.106  19.193  0.00  0.00    +0.000 OA
ATOM      8  C   UNL     1       7.555   6.588  18.249  0.00  0.00    +0.000 C 
ATOM      9  N   UNL     1       7.711   7.884  17.805  0.00  0.00    +0.000 N 
ATOM     10  H   UNL     1       6.991   8.285  17.216  0.00  0.00    +0.000 HD
BRANCH   9  11
ATOM     11  C   UNL     1       8.598   8.789  18.512  0.00  0.00    +0.000 C 
BRANCH  11  12
ATOM     12  C   UNL     1       8.665  10.159  17.844  0.00  0.00    +0.000 C 
BRANCH  12  13
ATOM     13  C   UNL     1       9.696  11.053  18.484  0.00  0.00    +0.000 A 
ATOM     14  C   UNL     1      10.448  11.943  17.707  0.00  0.00    +0.000 A 
ATOM     15  C   UNL     1      11.384  12.787  18.308  0.00  0.00    +0.000 A 
ATOM     16  C   UNL     1      11.583  12.741  19.687  0.00  0.00    +0.000 A 
ATOM     17  C   UNL     1      10.858  11.840  20.464  0.00  0.00    +0.000 A 
ATOM     18  C   UNL     1       9.921  10.996  19.866  0.00  0.00    +0.000 A 
ENDBRANCH  12  13
ENDBRANCH  11  12
ENDBRANCH   9  11
ENDBRANCH   1   8
BRANCH   5  19
ATOM     19  S   UNL     1       2.740   4.534  18.176  0.00  0.00    +0.000 S 
ATOM     20  O   UNL     1       1.829   4.082  17.148  0.00  0.00    +0.000 OA
ATOM     21  O   UNL     1       3.013   3.721  19.343  0.00  0.00    +0.000 OA
BRANCH  19  22
ATOM     22  N   UNL     1       2.246   6.083  18.694  0.00  0.00    +0.000 NA
ATOM     23  C   UNL     1       2.542   6.452  20.093  0.00  0.00    +0.000 C 
ATOM     24  C   UNL     1       1.386   7.222  20.730  0.00  0.00    +0.000 C 
ATOM     25  C   UNL     1       1.392   8.715  20.425  0.00  0.00    +0.000 C 
ATOM     26  C   UNL     1       1.212   9.043  18.949  0.00  0.00    +0.000 C 
ATOM     27  C   UNL     1       2.380   8.565  18.097  0.00  0.00    +0.000 C 
ATOM     28  C   UNL     1       2.253   7.121  17.637  0.00  0.00    +0.000 C 
ENDBRANCH  19  22
ENDBRANCH   5  19
TORSDOF 6
ENDMDL
MODEL 4
REMARK VINA RESULT:      -8.3      0.891      1.506
REMARK  Name = 
REMARK  6 active torsions:
REMARK  status: ('A' for Active; 'I' for Inactive)
REMARK    1  A    between atoms: C_2  and  C_12
REMARK    2  A    between atoms: N_3  and  C_4
REMARK    3  A    between atoms: C_4  and  C_5
REMARK    4  A    between atoms: C_5  and  C_6
REMARK    5  A    between atoms: C_16  and  S_17
REMARK    6  A    between atoms: S_17  and  N_20
REMARK                            x       y       z     vdW  Elec       q    Type
REMARK                         _______ _______ _______ _____ _____    ______ ____
ROOT
ATOM      1  C   UNL     1       6.716   5.896  17.441  0.00  0.00    +0.000 A 
ATOM      2  C   UNL     1       7.083   5.367  16.196  0.00  0.00    +0.000 A 
ATOM      3  C   UNL     1       6.209   4.523  15.512  0.00  0.00    +0.000 A 
ATOM      4  C   UNL     1       4.969   4.199  16.070  0.00  0.00    +0.000 A 
ATOM      5  C   UNL     1       4.591   4.761  17.295  0.00  0.00    +0.000 A 
ATOM      6  C   UNL     1       5.458   5.619  17.976  0.00  0.00    +0.000 A 
ENDROOT
BRANCH   1   8
ATOM      7  O   UNL     1       8.295   6.266  19.146  0.00  0.00    +0.000 OA
ATOM      8  C   UNL     1       7.694   6.731  18.184  0.00  0.00    +0.000 C 
ATOM      9  N   UNL     1       7.827   8.031  17.743  0.00  0.00    +0.000 N 
ATOM     10  H   UNL     1       7.114   8.411  17.133  0.00  0.00    +0.000 HD
BRANCH   9  11
ATOM     11  C   UNL     1       8.667   8.960  18.475  0.00  0.00    +0.000 C 
BRANCH  11  12
ATOM     12  C   UNL     1       8.642  10.356  17.861  0.00  0.00    +0.000 C 
BRANCH  12  13
ATOM     13  C   UNL     1       9.709  11.250  18.437  0.00  0.00    +0.000 A 
ATOM     14  C   UNL     1      10.099  11.123  19.776  0.00  0.00    +0.000 A 
ATOM     15  C   UNL     1      11.106  11.936  20.299  0.00  0.00    +0.000 A 
ATOM     16  C   UNL     1      11.723  12.890  19.491  0.00  0.00    +0.000 A 
ATOM     17  C   UNL     1      11.324  13.042  18.165  0.00  0.00    +0.000 A 
ATOM     18  C   UNL     1      10.317  12.229  17.640  0.00  0.00    +0.000 A 
ENDBRANCH  12  13
ENDBRANCH  11  12
ENDBRANCH   9  11
ENDBRANCH   1   8
BRANCH   5  19
ATOM     19  S   UNL     1       3.093   4.235  18.118  0.00  0.00    +0.000 S 
ATOM     20  O   UNL     1       2.149   3.864  17.087  0.00  0.00    +0.000 OA
ATOM     21  O   UNL     1       3.491   3.289  19.140  0.00  0.00    +0.000 OA
BRANCH  19  22
ATOM     22  N   UNL     1       2.534   5.657  18.878  0.00  0.00    +0.000 NA
ATOM     23  C   UNL     1       1.913   6.682  18.016  0.00  0.00    +0.000 C 
ATOM     24  C   UNL     1       2.324   8.093  18.433  0.00  0.00    +0.000 C 
ATOM     25  C   UNL     1       1.493   8.670  19.573  0.00  0.00    +0.000 C 
ATOM     26  C   UNL     1       1.627   7.904  20.882  0.00  0.00    +0.000 C 
ATOM     27  C   UNL     1       1.063   6.493  20.794  0.00  0.00    +0.000 C 
ATOM     28  C   UNL     1       2.055   5.468  20.267  0.00  0.00    +0.000 C 
ENDBRANCH  19  22
ENDBRANCH   5  19
TORSDOF 6
ENDMDL
MODEL 5
REMARK VINA RESULT:      -8.2      4.280      8.280
REMARK  Name = 
REMARK  6 active torsions:
REMARK  status: ('A' for Active; 'I' for Inactive)
REMARK    1  A    between atoms: C_2  and  C_12
REMARK    2  A    between atoms: N_3  and  C_4
REMARK    3  A    between atoms: C_4  and  C_5
REMARK    4  A    between atoms: C_5  and  C_6
REMARK    5  A    between atoms: C_16  and  S_17
REMARK    6  A    between atoms: S_17  and  N_20
REMARK                            x       y       z     vdW  Elec       q    Type
REMARK                         _______ _______ _______ _____ _____    ______ ____
ROOT
ATOM      1  C   UNL     1       2.025   7.215  19.127  0.00  0.00    +0.000 A 
ATOM      2  C   UNL     1       1.607   7.060  20.456  0.00  0.00    +0.000 A 
ATOM      3  C   UNL     1       1.683   5.810  21.069  0.00  0.00    +0.000 A 
ATOM      4  C   UNL     1       2.170   4.710  20.359  0.00  0.00    +0.000 A 
ATOM      5  C   UNL     1       2.623   4.878  19.045  0.00  0.00    +0.000 A 
ATOM      6  C   UNL     1       2.562   6.131  18.431  0.00  0.00    +0.000 A 
ENDROOT
BRANCH   1   8
ATOM      7  O   UNL     1       2.369   8.747  17.375  0.00  0.00    +0.000 OA
ATOM      8  C   UNL     1       1.863   8.537  18.472  0.00  0.00    +0.000 C 
ATOM      9  N   UNL     1       1.163   9.481  19.195  0.00  0.00    +0.000 N 
ATOM     10  H   UNL     1       1.017   9.323  20.184  0.00  0.00    +0.000 HD
BRANCH   9  11
ATOM     11  C   UNL     1       1.053  10.838  18.696  0.00  0.00    +0.000 C 
BRANCH  11  12
ATOM     12  C   UNL     1      -0.137  11.575  19.305  0.00  0.00    +0.000 C 
BRANCH  12  13
ATOM     13  C   UNL     1      -1.433  11.222  18.622  0.00  0.00    +0.000 A 
ATOM     14  C   UNL     1      -1.474  10.224  17.640  0.00  0.00    +0.000 A 
ATOM     15  C   UNL     1      -2.681   9.884  17.029  0.00  0.00    +0.000 A 
ATOM     16  C   UNL     1      -3.856  10.545  17.386  0.00  0.00    +0.000 A 
ATOM     17  C   UNL     1      -3.821  11.557  18.343  0.00  0.00    +0.000 A 
ATOM     18  C   UNL     1      -2.614  11.899  18.956  0.00  0.00    +0.000 A 
ENDBRANCH  12  13
ENDBRANCH  11  12
ENDBRANCH   9  11
ENDBRANCH   1   8
BRANCH   5  19
ATOM     19  S   UNL     1       3.089   3.465  18.052  0.00  0.00    +0.000 S 
ATOM     20  O   UNL     1       3.211   2.337  18.947  0.00  0.00    +0.000 OA
ATOM     21  O   UNL     1       2.177   3.430  16.927  0.00  0.00    +0.000 OA
BRANCH  19  22
ATOM     22  N   UNL     1       4.644   3.874  17.480  0.00  0.00    +0.000 NA
ATOM     23  C   UNL     1       4.737   4.410  16.107  0.00  0.00    +0.000 C 
ATOM     24  C   UNL     1       5.957   3.859  15.369  0.00  0.00    +0.000 C 
ATOM     25  C   UNL     1       7.250   4.613  15.660  0.00  0.00    +0.000 C 
ATOM     26  C   UNL     1       7.697   4.531  17.113  0.00  0.00    +0.000 C 
ATOM     27  C   UNL     1       6.732   5.227  18.062  0.00  0.00    +0.000 C 
ATOM     28  C   UNL     1       5.583   4.345  18.524  0.00  0.00    +0.000 C 
ENDBRANCH  19  22
ENDBRANCH   5  19
TORSDOF 6
ENDMDL
MODEL 6
REMARK VINA RESULT:      -8.2      1.580      2.196
REMARK  Name = 
REMARK  6 active torsions:
REMARK  status: ('A' for Active; 'I' for Inactive)
REMARK    1  A    between atoms: C_2  and  C_12
REMARK    2  A    between atoms: N_3  and  C_4
REMARK    3  A    between atoms: C_4  and  C_5
REMARK    4  A    between atoms: C_5  and  C_6
REMARK    5  A    between atoms: C_16  and  S_17
REMARK    6  A    between atoms: S_17  and  N_20
REMARK                            x       y       z     vdW  Elec       q    Type
REMARK                         _______ _______ _______ _____ _____    ______ ____
ROOT
ATOM      1  C   UNL     1       6.738   5.682  17.084  0.00  0.00    +0.000 A 
ATOM      2  C   UNL     1       7.191   5.365  15.796  0.00  0.00    +0.000 A 
ATOM      3  C   UNL     1       6.481   4.456  15.012  0.00  0.00    +0.000 A 
ATOM      4  C   UNL     1       5.323   3.855  15.512  0.00  0.00    +0.000 A 
ATOM      5  C   UNL     1       4.854   4.204  16.783  0.00  0.00    +0.000 A 
ATOM      6  C   UNL     1       5.553   5.126  17.566  0.00  0.00    +0.000 A 
ENDROOT
BRANCH   1   8
ATOM      7  O   UNL     1       7.981   6.213  19.010  0.00  0.00    +0.000 OA
ATOM      8  C   UNL     1       7.551   6.594  17.927  0.00  0.00    +0.000 C 
ATOM      9  N   UNL     1       7.735   7.866  17.427  0.00  0.00    +0.000 N 
ATOM     10  H   UNL     1       7.134   8.183  16.676  0.00  0.00    +0.000 HD
BRANCH   9  11
ATOM     11  C   UNL     1       8.412   8.868  18.229  0.00  0.00    +0.000 C 
BRANCH  11  12
ATOM     12  C   UNL     1       8.365  10.247  17.578  0.00  0.00    +0.000 C 
BRANCH  12  13
ATOM     13  C   UNL     1       9.124  11.277  18.373  0.00  0.00    +0.000 A 
ATOM     14  C   UNL     1      10.054  10.885  19.345  0.00  0.00    +0.000 A 
ATOM     15  C   UNL     1      10.773  11.843  20.061  0.00  0.00    +0.000 A 
ATOM     16  C   UNL     1      10.561  13.199  19.820  0.00  0.00    +0.000 A 
ATOM     17  C   UNL     1       9.619  13.600  18.875  0.00  0.00    +0.000 A 
ATOM     18  C   UNL     1       8.899  12.643  18.157  0.00  0.00    +0.000 A 
ENDBRANCH  12  13
ENDBRANCH  11  12
ENDBRANCH   9  11
ENDBRANCH   1   8
BRANCH   5  19
ATOM     19  S   UNL     1       3.478   3.331  17.520  0.00  0.00    +0.000 S 
ATOM     20  O   UNL     1       2.509   3.102  16.473  0.00  0.00    +0.000 OA
ATOM     21  O   UNL     1       4.042   2.226  18.270  0.00  0.00    +0.000 OA
BRANCH  19  22
ATOM     22  N   UNL     1       2.830   4.462  18.622  0.00  0.00    +0.000 NA
ATOM     23  C   UNL     1       2.285   5.714  18.059  0.00  0.00    +0.000 C 
ATOM     24  C   UNL     1       2.637   6.922  18.926  0.00  0.00    +0.000 C 
ATOM     25  C   UNL     1       1.690   7.138  20.101  0.00  0.00    +0.000 C 
ATOM     26  C   UNL     1       1.703   6.005  21.119  0.00  0.00    +0.000 C 
ATOM     27  C   UNL     1       1.168   4.699  20.548  0.00  0.00    +0.000 C 
ATOM     28  C   UNL     1       2.219   3.867  19.833  0.00  0.00    +0.000 C 
ENDBRANCH  19  22
ENDBRANCH   5  19
TORSDOF 6
ENDMDL
MODEL 7
REMARK VINA RESULT:      -8.1      2.840      4.079
REMARK  Name = 
REMARK  6 active torsions:
REMARK  status: ('A' for Active; 'I' for Inactive)
REMARK    1  A    between atoms: C_2  and  C_12
REMARK    2  A    between atoms: N_3  and  C_4
REMARK    3  A    between atoms: C_4  and  C_5
REMARK    4  A    between atoms: C_5  and  C_6
REMARK    5  A    between atoms: C_16  and  S_17
REMARK    6  A    between atoms: S_17  and  N_20
REMARK                            x       y       z     vdW  Elec       q    Type
REMARK                         _______ _______ _______ _____ _____    ______ ____
ROOT
ATOM      1  C   UNL     1       7.924   7.648  18.105  0.00  0.00    +0.000 A 
ATOM      2  C   UNL     1       8.380   6.850  19.163  0.00  0.00    +0.000 A 
ATOM      3  C   UNL     1       8.049   5.496  19.208  0.00  0.00    +0.000 A 
ATOM      4  C   UNL     1       7.257   4.935  18.203  0.00  0.00    +0.000 A 
ATOM      5  C   UNL     1       6.837   5.727  17.128  0.00  0.00    +0.000 A 
ATOM      6  C   UNL     1       7.179   7.080  17.071  0.00  0.00    +0.000 A 
ENDROOT
BRANCH   1   8
ATOM      7  O   UNL     1       7.721   9.843  17.283  0.00  0.00    +0.000 OA
ATOM      8  C   UNL     1       8.226   9.101  18.119  0.00  0.00    +0.000 C 
ATOM      9  N   UNL     1       9.119   9.517  19.083  0.00  0.00    +0.000 N 
ATOM     10  H   UNL     1       9.689   8.821  19.549  0.00  0.00    +0.000 HD
BRANCH   9  11
ATOM     11  C   UNL     1       9.570  10.896  19.105  0.00  0.00    +0.000 C 
BRANCH  11  12
ATOM     12  C   UNL     1      10.409  11.202  20.342  0.00  0.00    +0.000 C 
BRANCH  12  13
ATOM     13  C   UNL     1       9.724  12.177  21.265  0.00  0.00    +0.000 A 
ATOM     14  C   UNL     1       8.680  11.756  22.098  0.00  0.00    +0.000 A 
ATOM     15  C   UNL     1       8.065  12.657  22.970  0.00  0.00    +0.000 A 
ATOM     16  C   UNL     1       8.482  13.986  23.008  0.00  0.00    +0.000 A 
ATOM     17  C   UNL     1       9.502  14.421  22.164  0.00  0.00    +0.000 A 
ATOM     18  C   UNL     1      10.118  13.521  21.292  0.00  0.00    +0.000 A 
ENDBRANCH  12  13
ENDBRANCH  11  12
ENDBRANCH   9  11
ENDBRANCH   1   8
BRANCH   5  19
ATOM     19  S   UNL     1       5.684   5.088  15.919  0.00  0.00    +0.000 S 
ATOM     20  O   UNL     1       5.376   6.169  15.011  0.00  0.00    +0.000 OA
ATOM     21  O   UNL     1       6.240   3.841  15.435  0.00  0.00    +0.000 OA
BRANCH  19  22
ATOM     22  N   UNL     1       4.290   4.741  16.841  0.00  0.00    +0.000 NA
ATOM     23  C   UNL     1       4.151   3.366  17.362  0.00  0.00    +0.000 C 
ATOM     24  C   UNL     1       2.710   2.869  17.266  0.00  0.00    +0.000 C 
ATOM     25  C   UNL     1       1.825   3.307  18.427  0.00  0.00    +0.000 C 
ATOM     26  C   UNL     1       1.632   4.815  18.521  0.00  0.00    +0.000 C 
ATOM     27  C   UNL     1       2.926   5.550  18.845  0.00  0.00    +0.000 C 
ATOM     28  C   UNL     1       3.763   5.885  17.621  0.00  0.00    +0.000 C 
ENDBRANCH  19  22
ENDBRANCH   5  19
TORSDOF 6
ENDMDL
MODEL 8
REMARK VINA RESULT:      -8.0      4.017      7.809
REMARK  Name = 
REMARK  6 active torsions:
REMARK  status: ('A' for Active; 'I' for Inactive)
REMARK    1  A    between atoms: C_2  and  C_12
REMARK    2  A    between atoms: N_3  and  C_4
REMARK    3  A    between atoms: C_4  and  C_5
REMARK    4  A    between atoms: C_5  and  C_6
REMARK    5  A    between atoms: C_16  and  S_17
REMARK    6  A    between atoms: S_17  and  N_20
REMARK                            x       y       z     vdW  Elec       q    Type
REMARK                         _______ _______ _______ _____ _____    ______ ____
ROOT
ATOM      1  C   UNL     1       1.802   5.617  20.254  0.00  0.00    +0.000 A 
ATOM      2  C   UNL     1       0.637   4.902  20.565  0.00  0.00    +0.000 A 
ATOM      3  C   UNL     1       0.606   3.517  20.410  0.00  0.00    +0.000 A 
ATOM      4  C   UNL     1       1.735   2.840  19.939  0.00  0.00    +0.000 A 
ATOM      5  C   UNL     1       2.908   3.553  19.667  0.00  0.00    +0.000 A 
ATOM      6  C   UNL     1       2.948   4.939  19.835  0.00  0.00    +0.000 A 
ENDROOT
BRANCH   1   8
ATOM      7  O   UNL     1       2.213   7.783  19.432  0.00  0.00    +0.000 OA
ATOM      8  C   UNL     1       1.786   7.098  20.355  0.00  0.00    +0.000 C 
ATOM      9  N   UNL     1       1.310   7.611  21.543  0.00  0.00    +0.000 N 
ATOM     10  H   UNL     1       1.234   6.993  22.342  0.00  0.00    +0.000 HD
BRANCH   9  11
ATOM     11  C   UNL     1       1.364   9.040  21.787  0.00  0.00    +0.000 C 
BRANCH  11  12
ATOM     12  C   UNL     1       0.351   9.478  22.840  0.00  0.00    +0.000 C 
BRANCH  12  13
ATOM     13  C   UNL     1      -0.570  10.556  22.329  0.00  0.00    +0.000 A 
ATOM     14  C   UNL     1      -0.529  10.951  20.986  0.00  0.00    +0.000 A 
ATOM     15  C   UNL     1      -1.401  11.932  20.512  0.00  0.00    +0.000 A 
ATOM     16  C   UNL     1      -2.313  12.533  21.378  0.00  0.00    +0.000 A 
ATOM     17  C   UNL     1      -2.343  12.166  22.722  0.00  0.00    +0.000 A 
ATOM     18  C   UNL     1      -1.472  11.184  23.198  0.00  0.00    +0.000 A 
ENDBRANCH  12  13
ENDBRANCH  11  12
ENDBRANCH   9  11
ENDBRANCH   1   8
BRANCH   5  19
ATOM     19  S   UNL     1       4.309   2.747  18.901  0.00  0.00    +0.000 S 
ATOM     20  O   UNL     1       5.222   2.382  19.961  0.00  0.00    +0.000 OA
ATOM     21  O   UNL     1       3.772   1.747  18.002  0.00  0.00    +0.000 OA
BRANCH  19  22
ATOM     22  N   UNL     1       5.025   3.987  17.972  0.00  0.00    +0.000 NA
ATOM     23  C   UNL     1       6.373   4.437  18.374  0.00  0.00    +0.000 C 
ATOM     24  C   UNL     1       6.519   5.953  18.257  0.00  0.00    +0.000 C 
ATOM     25  C   UNL     1       6.869   6.436  16.853  0.00  0.00    +0.000 C 
ATOM     26  C   UNL     1       5.794   6.143  15.815  0.00  0.00    +0.000 C 
ATOM     27  C   UNL     1       5.606   4.652  15.574  0.00  0.00    +0.000 C 
ATOM     28  C   UNL     1       4.638   3.991  16.542  0.00  0.00    +0.000 C 
ENDBRANCH  19  22
ENDBRANCH   5  19
TORSDOF 6
ENDMDL
MODEL 9
REMARK VINA RESULT:      -8.0      2.809      3.900
REMARK  Name = 
REMARK  6 active torsions:
REMARK  status: ('A' for Active; 'I' for Inactive)
REMARK    1  A    between atoms: C_2  and  C_12
REMARK    2  A    between atoms: N_3  and  C_4
REMARK    3  A    between atoms: C_4  and  C_5
REMARK    4  A    between atoms: C_5  and  C_6
REMARK    5  A    between atoms: C_16  and  S_17
REMARK    6  A    between atoms: S_17  and  N_20
REMARK                            x       y       z     vdW  Elec       q    Type
REMARK                         _______ _______ _______ _____ _____    ______ ____
ROOT
ATOM      1  C   UNL     1       7.981   7.622  18.176  0.00  0.00    +0.000 A 
ATOM      2  C   UNL     1       8.426   6.738  19.167  0.00  0.00    +0.000 A 
ATOM      3  C   UNL     1       8.055   5.394  19.122  0.00  0.00    +0.000 A 
ATOM      4  C   UNL     1       7.233   4.930  18.092  0.00  0.00    +0.000 A 
ATOM      5  C   UNL     1       6.822   5.808  17.082  0.00  0.00    +0.000 A 
ATOM      6  C   UNL     1       7.205   7.151  17.116  0.00  0.00    +0.000 A 
ENDROOT
BRANCH   1   8
ATOM      7  O   UNL     1       7.887   9.865  17.473  0.00  0.00    +0.000 OA
ATOM      8  C   UNL     1       8.327   9.061  18.288  0.00  0.00    +0.000 C 
ATOM      9  N   UNL     1       9.184   9.392  19.316  0.00  0.00    +0.000 N 
ATOM     10  H   UNL     1       9.708   8.652  19.767  0.00  0.00    +0.000 HD
BRANCH   9  11
ATOM     11  C   UNL     1       9.677  10.751  19.438  0.00  0.00    +0.000 C 
BRANCH  11  12
ATOM     12  C   UNL     1       9.197  11.418  20.724  0.00  0.00    +0.000 C 
BRANCH  12  13
ATOM     13  C   UNL     1       9.729  12.820  20.869  0.00  0.00    +0.000 A 
ATOM     14  C   UNL     1       9.458  13.570  22.021  0.00  0.00    +0.000 A 
ATOM     15  C   UNL     1       9.974  14.859  22.162  0.00  0.00    +0.000 A 
ATOM     16  C   UNL     1      10.755  15.413  21.149  0.00  0.00    +0.000 A 
ATOM     17  C   UNL     1      11.009  14.685  19.988  0.00  0.00    +0.000 A 
ATOM     18  C   UNL     1      10.494  13.395  19.846  0.00  0.00    +0.000 A 
ENDBRANCH  12  13
ENDBRANCH  11  12
ENDBRANCH   9  11
ENDBRANCH   1   8
BRANCH   5  19
ATOM     19  S   UNL     1       5.634   5.291  15.849  0.00  0.00    +0.000 S 
ATOM     20  O   UNL     1       5.358   6.440  15.016  0.00  0.00    +0.000 OA
ATOM     21  O   UNL     1       6.139   4.059  15.279  0.00  0.00    +0.000 OA
BRANCH  19  22
ATOM     22  N   UNL     1       4.238   4.937  16.764  0.00  0.00    +0.000 NA
ATOM     23  C   UNL     1       4.092   3.554  17.262  0.00  0.00    +0.000 C 
ATOM     24  C   UNL     1       2.647   3.067  17.157  0.00  0.00    +0.000 C 
ATOM     25  C   UNL     1       1.764   3.491  18.325  0.00  0.00    +0.000 C 
ATOM     26  C   UNL     1       1.579   4.998  18.443  0.00  0.00    +0.000 C 
ATOM     27  C   UNL     1       2.876   5.721  18.779  0.00  0.00    +0.000 C 
ATOM     28  C   UNL     1       3.716   6.071  17.562  0.00  0.00    +0.000 C 
ENDBRANCH  19  22
ENDBRANCH   5  19
TORSDOF 6
ENDMDL
