MODEL 1
REMARK VINA RESULT:      -8.6      0.000      0.000
REMARK  Name = 
REMARK  5 active torsions:
REMARK  status: ('A' for Active; 'I' for Inactive)
REMARK    1  A    between atoms: C_2  and  C_16
REMARK    2  A    between atoms: N_3  and  C_4
REMARK    3  A    between atoms: C_4  and  C_5
REMARK    4  A    between atoms: C_5  and  C_6
REMARK    5  A    between atoms: C_20  and  N_21
REMARK                            x       y       z     vdW  Elec       q    Type
REMARK                         _______ _______ _______ _____ _____    ______ ____
ROOT
ATOM      1  O   UNL     1       1.340   6.000  20.859  0.00  0.00    +0.000 OA
ATOM      2  C   UNL     1       2.068   6.691  20.160  0.00  0.00    +0.000 C 
ATOM      3  N   UNL     1       3.291   6.277  19.685  0.00  0.00    +0.000 N 
ATOM      4  H   UNL     1       3.699   6.816  18.936  0.00  0.00    +0.000 HD
ENDROOT
BRANCH   2   5
ATOM      5  C   UNL     1       1.659   8.070  19.757  0.00  0.00    +0.000 A 
ATOM      6  C   UNL     1       2.024   8.542  18.495  0.00  0.00    +0.000 A 
ATOM      7  C   UNL     1       1.614   9.810  18.093  0.00  0.00    +0.000 A 
ATOM      8  C   UNL     1       0.825  10.600  18.939  0.00  0.00    +0.000 A 
ATOM      9  C   UNL     1       0.427  10.145  20.204  0.00  0.00    +0.000 A 
ATOM     10  C   UNL     1       0.870   8.872  20.601  0.00  0.00    +0.000 A 
BRANCH   9  11
ATOM     11  N   UNL     1      -0.418  10.915  21.051  0.00  0.00    +0.000 N 
ATOM     12  C   UNL     1      -1.431  11.814  20.544  0.00  0.00    +0.000 C 
ATOM     13  C   UNL     1      -1.761  12.714  21.713  0.00  0.00    +0.000 C 
ATOM     14  C   UNL     1      -1.528  11.830  22.921  0.00  0.00    +0.000 C 
ATOM     15  C   UNL     1      -0.458  10.871  22.455  0.00  0.00    +0.000 C 
ATOM     16  O   UNL     1       0.183  10.174  23.228  0.00  0.00    +0.000 OA
ENDBRANCH   9  11
ENDBRANCH   2   5
BRANCH   3  17
ATOM     17  C   UNL     1       3.865   4.971  19.997  0.00  0.00    +0.000 C 
BRANCH  17  18
ATOM     18  C   UNL     1       3.868   3.980  18.798  0.00  0.00    +0.000 C 
ATOM     19  C   UNL     1       2.469   3.856  18.135  0.00  0.00    +0.000 C 
ATOM     20  C   UNL     1       2.475   2.501  17.425  0.00  0.00    +0.000 C 
ATOM     21  C   UNL     1       3.526   1.651  18.136  0.00  0.00    +0.000 C 
ATOM     22  C   UNL     1       4.047   2.515  19.283  0.00  0.00    +0.000 C 
BRANCH  18  23
ATOM     23  C   UNL     1       4.909   4.421  17.740  0.00  0.00    +0.000 A 
ATOM     24  C   UNL     1       4.553   5.072  16.547  0.00  0.00    +0.000 A 
ATOM     25  C   UNL     1       5.519   5.590  15.678  0.00  0.00    +0.000 A 
ATOM     26  C   UNL     1       6.869   5.439  15.964  0.00  0.00    +0.000 A 
ATOM     27  C   UNL     1       7.253   4.741  17.106  0.00  0.00    +0.000 A 
ATOM     28  C   UNL     1       6.286   4.233  17.978  0.00  0.00    +0.000 A 
ENDBRANCH  18  23
ENDBRANCH  17  18
ENDBRANCH   3  17
TORSDOF 5
ENDMDL
MODEL 2
REMARK VINA RESULT:      -8.4      0.979      1.233
REMARK  Name = 
REMARK  5 active torsions:
REMARK  status: ('A' for Active; 'I' for Inactive)
REMARK    1  A    between atoms: C_2  and  C_16
REMARK    2  A    between atoms: N_3  and  C_4
REMARK    3  A    between atoms: C_4  and  C_5
REMARK    4  A    between atoms: C_5  and  C_6
REMARK    5  A    between atoms: C_20  and  N_21
REMARK                            x       y       z     vdW  Elec       q    Type
REMARK                         _______ _______ _______ _____ _____    ______ ____
ROOT
ATOM      1  O   UNL     1       1.505   5.895  20.746  0.00  0.00    +0.000 OA
ATOM      2  C   UNL     1       2.241   6.559  20.028  0.00  0.00    +0.000 C 
ATOM      3  N   UNL     1       3.462   6.121  19.572  0.00  0.00    +0.000 N 
ATOM      4  H   UNL     1       3.877   6.634  18.808  0.00  0.00    +0.000 HD
ENDROOT
BRANCH   2   5
ATOM      5  C   UNL     1       1.842   7.926  19.580  0.00  0.00    +0.000 A 
ATOM      6  C   UNL     1       2.227   8.361  18.310  0.00  0.00    +0.000 A 
ATOM      7  C   UNL     1       1.827   9.617  17.866  0.00  0.00    +0.000 A 
ATOM      8  C   UNL     1       1.028  10.434  18.677  0.00  0.00    +0.000 A 
ATOM      9  C   UNL     1       0.611  10.017  19.948  0.00  0.00    +0.000 A 
ATOM     10  C   UNL     1       1.044   8.755  20.389  0.00  0.00    +0.000 A 
BRANCH   9  11
ATOM     11  N   UNL     1      -0.243  10.814  20.761  0.00  0.00    +0.000 N 
ATOM     12  C   UNL     1      -0.025  11.007  22.177  0.00  0.00    +0.000 C 
ATOM     13  C   UNL     1      -1.348  11.518  22.701  0.00  0.00    +0.000 C 
ATOM     14  C   UNL     1      -1.926  12.280  21.525  0.00  0.00    +0.000 C 
ATOM     15  C   UNL     1      -1.344  11.572  20.325  0.00  0.00    +0.000 C 
ATOM     16  O   UNL     1      -1.780  11.726  19.194  0.00  0.00    +0.000 OA
ENDBRANCH   9  11
ENDBRANCH   2   5
BRANCH   3  17
ATOM     17  C   UNL     1       4.027   4.823  19.928  0.00  0.00    +0.000 C 
BRANCH  17  18
ATOM     18  C   UNL     1       3.990   3.780  18.773  0.00  0.00    +0.000 C 
ATOM     19  C   UNL     1       2.571   3.637  18.157  0.00  0.00    +0.000 C 
ATOM     20  C   UNL     1       2.550   2.253  17.506  0.00  0.00    +0.000 C 
ATOM     21  C   UNL     1       3.615   1.427  18.224  0.00  0.00    +0.000 C 
ATOM     22  C   UNL     1       4.174   2.337  19.316  0.00  0.00    +0.000 C 
BRANCH  18  23
ATOM     23  C   UNL     1       5.002   4.168  17.668  0.00  0.00    +0.000 A 
ATOM     24  C   UNL     1       4.617   4.442  16.345  0.00  0.00    +0.000 A 
ATOM     25  C   UNL     1       5.527   4.930  15.402  0.00  0.00    +0.000 A 
ATOM     26  C   UNL     1       6.856   5.126  15.751  0.00  0.00    +0.000 A 
ATOM     27  C   UNL     1       7.282   4.802  17.036  0.00  0.00    +0.000 A 
ATOM     28  C   UNL     1       6.368   4.323  17.979  0.00  0.00    +0.000 A 
ENDBRANCH  18  23
ENDBRANCH  17  18
ENDBRANCH   3  17
TORSDOF 5
ENDMDL
MODEL 3
REMARK VINA RESULT:      -8.4      1.430      3.213
REMARK  Name = 
REMARK  5 active torsions:
REMARK  status: ('A' for Active; 'I' for Inactive)
REMARK    1  A    between atoms: C_2  and  C_16
REMARK    2  A    between atoms: N_3  and  C_4
REMARK    3  A    between atoms: C_4  and  C_5
REMARK    4  A    between atoms: C_5  and  C_6
REMARK    5  A    between atoms: C_20  and  N_21
REMARK                            x       y       z     vdW  Elec       q    Type
REMARK                         _______ _______ _______ _____ _____    ______ ____
ROOT
ATOM      1  O   UNL     1       2.413   9.149  17.116  0.00  0.00    +0.000 OA
ATOM      2  C   UNL     1       2.509   8.351  18.038  0.00  0.00    +0.000 C 
ATOM      3  N   UNL     1       3.373   7.280  18.036  0.00  0.00    +0.000 N 
ATOM      4  H   UNL     1       3.546   6.830  18.922  0.00  0.00    +0.000 HD
ENDROOT
BRANCH   2   5
ATOM      5  C   UNL     1       1.675   8.498  19.268  0.00  0.00    +0.000 A 
ATOM      6  C   UNL     1       1.785   7.541  20.278  0.00  0.00    +0.000 A 
ATOM      7  C   UNL     1       1.042   7.690  21.446  0.00  0.00    +0.000 A 
ATOM      8  C   UNL     1       0.204   8.800  21.616  0.00  0.00    +0.000 A 
ATOM      9  C   UNL     1       0.088   9.786  20.626  0.00  0.00    +0.000 A 
ATOM     10  C   UNL     1       0.828   9.607  19.445  0.00  0.00    +0.000 A 
BRANCH   9  11
ATOM     11  N   UNL     1      -0.719  10.945  20.807  0.00  0.00    +0.000 N 
ATOM     12  C   UNL     1      -1.505  11.528  19.744  0.00  0.00    +0.000 C 
ATOM     13  C   UNL     1      -1.825  12.925  20.228  0.00  0.00    +0.000 C 
ATOM     14  C   UNL     1      -1.884  12.774  21.735  0.00  0.00    +0.000 C 
ATOM     15  C   UNL     1      -0.933  11.634  22.013  0.00  0.00    +0.000 C 
ATOM     16  O   UNL     1      -0.510  11.387  23.133  0.00  0.00    +0.000 OA
ENDBRANCH   9  11
ENDBRANCH   2   5
BRANCH   3  17
ATOM     17  C   UNL     1       4.247   6.964  16.910  0.00  0.00    +0.000 C 
BRANCH  17  18
ATOM     18  C   UNL     1       5.109   5.686  17.120  0.00  0.00    +0.000 C 
ATOM     19  C   UNL     1       6.375   5.965  17.976  0.00  0.00    +0.000 C 
ATOM     20  C   UNL     1       7.363   4.854  17.613  0.00  0.00    +0.000 C 
ATOM     21  C   UNL     1       6.960   4.361  16.225  0.00  0.00    +0.000 C 
ATOM     22  C   UNL     1       5.793   5.249  15.795  0.00  0.00    +0.000 C 
BRANCH  18  23
ATOM     23  C   UNL     1       4.264   4.572  17.785  0.00  0.00    +0.000 A 
ATOM     24  C   UNL     1       3.375   3.758  17.063  0.00  0.00    +0.000 A 
ATOM     25  C   UNL     1       2.734   2.666  17.658  0.00  0.00    +0.000 A 
ATOM     26  C   UNL     1       2.941   2.381  19.000  0.00  0.00    +0.000 A 
ATOM     27  C   UNL     1       3.765   3.209  19.757  0.00  0.00    +0.000 A 
ATOM     28  C   UNL     1       4.412   4.294  19.159  0.00  0.00    +0.000 A 
ENDBRANCH  18  23
ENDBRANCH  17  18
ENDBRANCH   3  17
TORSDOF 5
ENDMDL
MODEL 4
REMARK VINA RESULT:      -8.4      1.862      2.773
REMARK  Name = 
REMARK  5 active torsions:
REMARK  status: ('A' for Active; 'I' for Inactive)
REMARK    1  A    between atoms: C_2  and  C_16
REMARK    2  A    between atoms: N_3  and  C_4
REMARK    3  A    between atoms: C_4  and  C_5
REMARK    4  A    between atoms: C_5  and  C_6
REMARK    5  A    between atoms: C_20  and  N_21
REMARK                            x       y       z     vdW  Elec       q    Type
REMARK                         _______ _______ _______ _____ _____    ______ ____
ROOT
ATOM      1  O   UNL     1       0.882   9.561  18.388  0.00  0.00    +0.000 OA
ATOM      2  C   UNL     1       1.082   9.028  19.471  0.00  0.00    +0.000 C 
ATOM      3  N   UNL     1       1.909   7.943  19.649  0.00  0.00    +0.000 N 
ATOM      4  H   UNL     1       2.190   7.730  20.594  0.00  0.00    +0.000 HD
ENDROOT
BRANCH   2   5
ATOM      5  C   UNL     1       0.428   9.543  20.711  0.00  0.00    +0.000 A 
ATOM      6  C   UNL     1       0.743   8.955  21.937  0.00  0.00    +0.000 A 
ATOM      7  C   UNL     1       0.170   9.454  23.103  0.00  0.00    +0.000 A 
ATOM      8  C   UNL     1      -0.701  10.549  23.052  0.00  0.00    +0.000 A 
ATOM      9  C   UNL     1      -1.022  11.172  21.837  0.00  0.00    +0.000 A 
ATOM     10  C   UNL     1      -0.451  10.640  20.668  0.00  0.00    +0.000 A 
BRANCH   9  11
ATOM     11  N   UNL     1      -1.864  12.318  21.776  0.00  0.00    +0.000 N 
ATOM     12  C   UNL     1      -1.716  13.348  20.772  0.00  0.00    +0.000 C 
ATOM     13  C   UNL     1      -2.479  14.531  21.326  0.00  0.00    +0.000 C 
ATOM     14  C   UNL     1      -3.581  13.892  22.146  0.00  0.00    +0.000 C 
ATOM     15  C   UNL     1      -2.974  12.584  22.595  0.00  0.00    +0.000 C 
ATOM     16  O   UNL     1      -3.456  11.908  23.492  0.00  0.00    +0.000 OA
ENDBRANCH   9  11
ENDBRANCH   2   5
BRANCH   3  17
ATOM     17  C   UNL     1       2.612   7.289  18.549  0.00  0.00    +0.000 C 
BRANCH  17  18
ATOM     18  C   UNL     1       2.723   5.744  18.699  0.00  0.00    +0.000 C 
ATOM     19  C   UNL     1       1.659   4.994  17.851  0.00  0.00    +0.000 C 
ATOM     20  C   UNL     1       1.500   3.627  18.519  0.00  0.00    +0.000 C 
ATOM     21  C   UNL     1       1.944   3.805  19.969  0.00  0.00    +0.000 C 
ATOM     22  C   UNL     1       2.281   5.287  20.117  0.00  0.00    +0.000 C 
BRANCH  18  23
ATOM     23  C   UNL     1       4.140   5.267  18.301  0.00  0.00    +0.000 A 
ATOM     24  C   UNL     1       4.442   4.761  17.025  0.00  0.00    +0.000 A 
ATOM     25  C   UNL     1       5.756   4.473  16.642  0.00  0.00    +0.000 A 
ATOM     26  C   UNL     1       6.800   4.653  17.539  0.00  0.00    +0.000 A 
ATOM     27  C   UNL     1       6.524   5.091  18.832  0.00  0.00    +0.000 A 
ATOM     28  C   UNL     1       5.211   5.387  19.209  0.00  0.00    +0.000 A 
ENDBRANCH  18  23
ENDBRANCH  17  18
ENDBRANCH   3  17
TORSDOF 5
ENDMDL
MODEL 5
REMARK VINA RESULT:      -8.3      1.926      3.677
REMARK  Name = 
REMARK  5 active torsions:
REMARK  status: ('A' for Active; 'I' for Inactive)
REMARK    1  A    between atoms: C_2  and  C_16
REMARK    2  A    between atoms: N_3  and  C_4
REMARK    3  A    between atoms: C_4  and  C_5
REMARK    4  A    between atoms: C_5  and  C_6
REMARK    5  A    between atoms: C_20  and  N_21
REMARK                            x       y       z     vdW  Elec       q    Type
REMARK                         _______ _______ _______ _____ _____    ______ ____
ROOT
ATOM      1  O   UNL     1       1.807   9.595  17.604  0.00  0.00    +0.000 OA
ATOM      2  C   UNL     1       1.793   8.931  18.630  0.00  0.00    +0.000 C 
ATOM      3  N   UNL     1       2.430   7.720  18.767  0.00  0.00    +0.000 N 
ATOM      4  H   UNL     1       2.558   7.372  19.706  0.00  0.00    +0.000 HD
ENDROOT
BRANCH   2   5
ATOM      5  C   UNL     1       1.067   9.412  19.844  0.00  0.00    +0.000 A 
ATOM      6  C   UNL     1       0.977   8.573  20.956  0.00  0.00    +0.000 A 
ATOM      7  C   UNL     1       0.338   9.027  22.106  0.00  0.00    +0.000 A 
ATOM      8  C   UNL     1      -0.195  10.321  22.156  0.00  0.00    +0.000 A 
ATOM      9  C   UNL     1      -0.104  11.192  21.062  0.00  0.00    +0.000 A 
ATOM     10  C   UNL     1       0.524  10.709  19.902  0.00  0.00    +0.000 A 
BRANCH   9  11
ATOM     11  N   UNL     1      -0.595  12.527  21.117  0.00  0.00    +0.000 N 
ATOM     12  C   UNL     1      -1.954  12.880  20.773  0.00  0.00    +0.000 C 
ATOM     13  C   UNL     1      -1.915  14.374  20.547  0.00  0.00    +0.000 C 
ATOM     14  C   UNL     1      -0.819  14.847  21.481  0.00  0.00    +0.000 C 
ATOM     15  C   UNL     1       0.107  13.658  21.568  0.00  0.00    +0.000 C 
ATOM     16  O   UNL     1       1.242  13.738  22.016  0.00  0.00    +0.000 OA
ENDBRANCH   9  11
ENDBRANCH   2   5
BRANCH   3  17
ATOM     17  C   UNL     1       3.167   7.081  17.681  0.00  0.00    +0.000 C 
BRANCH  17  18
ATOM     18  C   UNL     1       3.707   5.664  18.031  0.00  0.00    +0.000 C 
ATOM     19  C   UNL     1       4.958   5.724  18.951  0.00  0.00    +0.000 C 
ATOM     20  C   UNL     1       5.687   4.397  18.730  0.00  0.00    +0.000 C 
ATOM     21  C   UNL     1       5.255   3.897  17.353  0.00  0.00    +0.000 C 
ATOM     22  C   UNL     1       4.342   4.984  16.788  0.00  0.00    +0.000 C 
BRANCH  18  23
ATOM     23  C   UNL     1       2.600   4.821  18.709  0.00  0.00    +0.000 A 
ATOM     24  C   UNL     1       1.790   3.918  18.000  0.00  0.00    +0.000 A 
ATOM     25  C   UNL     1       0.898   3.063  18.655  0.00  0.00    +0.000 A 
ATOM     26  C   UNL     1       0.769   3.113  20.036  0.00  0.00    +0.000 A 
ATOM     27  C   UNL     1       1.511   4.043  20.760  0.00  0.00    +0.000 A 
ATOM     28  C   UNL     1       2.409   4.890  20.104  0.00  0.00    +0.000 A 
ENDBRANCH  18  23
ENDBRANCH  17  18
ENDBRANCH   3  17
TORSDOF 5
ENDMDL
MODEL 6
REMARK VINA RESULT:      -8.3      1.829      2.462
REMARK  Name = 
REMARK  5 active torsions:
REMARK  status: ('A' for Active; 'I' for Inactive)
REMARK    1  A    between atoms: C_2  and  C_16
REMARK    2  A    between atoms: N_3  and  C_4
REMARK    3  A    between atoms: C_4  and  C_5
REMARK    4  A    between atoms: C_5  and  C_6
REMARK    5  A    between atoms: C_20  and  N_21
REMARK                            x       y       z     vdW  Elec       q    Type
REMARK                         _______ _______ _______ _____ _____    ______ ____
ROOT
ATOM      1  O   UNL     1       3.326   7.785  17.764  0.00  0.00    +0.000 OA
ATOM      2  C   UNL     1       2.466   7.346  18.515  0.00  0.00    +0.000 C 
ATOM      3  N   UNL     1       2.068   6.029  18.536  0.00  0.00    +0.000 N 
ATOM      4  H   UNL     1       1.536   5.724  19.337  0.00  0.00    +0.000 HD
ENDROOT
BRANCH   2   5
ATOM      5  C   UNL     1       1.779   8.238  19.496  0.00  0.00    +0.000 A 
ATOM      6  C   UNL     1       1.564   7.776  20.796  0.00  0.00    +0.000 A 
ATOM      7  C   UNL     1       0.961   8.614  21.729  0.00  0.00    +0.000 A 
ATOM      8  C   UNL     1       0.588   9.917  21.375  0.00  0.00    +0.000 A 
ATOM      9  C   UNL     1       0.808  10.414  20.083  0.00  0.00    +0.000 A 
ATOM     10  C   UNL     1       1.398   9.546  19.148  0.00  0.00    +0.000 A 
BRANCH   9  11
ATOM     11  N   UNL     1       0.483  11.753  19.725  0.00  0.00    +0.000 N 
ATOM     12  C   UNL     1      -0.593  12.084  18.818  0.00  0.00    +0.000 C 
ATOM     13  C   UNL     1      -0.307  13.506  18.389  0.00  0.00    +0.000 C 
ATOM     14  C   UNL     1       0.392  14.106  19.593  0.00  0.00    +0.000 C 
ATOM     15  C   UNL     1       1.078  12.921  20.231  0.00  0.00    +0.000 C 
ATOM     16  O   UNL     1       1.955  13.043  21.073  0.00  0.00    +0.000 OA
ENDBRANCH   9  11
ENDBRANCH   2   5
BRANCH   3  17
ATOM     17  C   UNL     1       2.611   5.019  17.632  0.00  0.00    +0.000 C 
BRANCH  17  18
ATOM     18  C   UNL     1       3.528   3.975  18.331  0.00  0.00    +0.000 C 
ATOM     19  C   UNL     1       3.337   2.545  17.754  0.00  0.00    +0.000 C 
ATOM     20  C   UNL     1       3.808   1.596  18.858  0.00  0.00    +0.000 C 
ATOM     21  C   UNL     1       3.680   2.368  20.169  0.00  0.00    +0.000 C 
ATOM     22  C   UNL     1       3.072   3.719  19.794  0.00  0.00    +0.000 C 
BRANCH  18  23
ATOM     23  C   UNL     1       5.013   4.395  18.204  0.00  0.00    +0.000 A 
ATOM     24  C   UNL     1       5.775   4.155  17.047  0.00  0.00    +0.000 A 
ATOM     25  C   UNL     1       7.066   4.671  16.900  0.00  0.00    +0.000 A 
ATOM     26  C   UNL     1       7.642   5.414  17.921  0.00  0.00    +0.000 A 
ATOM     27  C   UNL     1       6.937   5.612  19.105  0.00  0.00    +0.000 A 
ATOM     28  C   UNL     1       5.643   5.104  19.246  0.00  0.00    +0.000 A 
ENDBRANCH  18  23
ENDBRANCH  17  18
ENDBRANCH   3  17
TORSDOF 5
ENDMDL
MODEL 7
REMARK VINA RESULT:      -8.3      1.982      2.715
REMARK  Name = 
REMARK  5 active torsions:
REMARK  status: ('A' for Active; 'I' for Inactive)
REMARK    1  A    between atoms: C_2  and  C_16
REMARK    2  A    between atoms: N_3  and  C_4
REMARK    3  A    between atoms: C_4  and  C_5
REMARK    4  A    between atoms: C_5  and  C_6
REMARK    5  A    between atoms: C_20  and  N_21
REMARK                            x       y       z     vdW  Elec       q    Type
REMARK                         _______ _______ _______ _____ _____    ______ ____
ROOT
ATOM      1  O   UNL     1       3.487   7.261  17.663  0.00  0.00    +0.000 OA
ATOM      2  C   UNL     1       2.518   6.964  18.347  0.00  0.00    +0.000 C 
ATOM      3  N   UNL     1       1.927   5.722  18.339  0.00  0.00    +0.000 N 
ATOM      4  H   UNL     1       1.298   5.507  19.098  0.00  0.00    +0.000 HD
ENDROOT
BRANCH   2   5
ATOM      5  C   UNL     1       1.901   7.959  19.274  0.00  0.00    +0.000 A 
ATOM      6  C   UNL     1       1.762   7.631  20.624  0.00  0.00    +0.000 A 
ATOM      7  C   UNL     1       1.225   8.567  21.504  0.00  0.00    +0.000 A 
ATOM      8  C   UNL     1       0.844   9.834  21.045  0.00  0.00    +0.000 A 
ATOM      9  C   UNL     1       0.989  10.197  19.699  0.00  0.00    +0.000 A 
ATOM     10  C   UNL     1       1.511   9.232  18.821  0.00  0.00    +0.000 A 
BRANCH   9  11
ATOM     11  N   UNL     1       0.655  11.499  19.229  0.00  0.00    +0.000 N 
ATOM     12  C   UNL     1       1.589  12.603  19.243  0.00  0.00    +0.000 C 
ATOM     13  C   UNL     1       0.725  13.835  19.089  0.00  0.00    +0.000 C 
ATOM     14  C   UNL     1      -0.446  13.347  18.260  0.00  0.00    +0.000 C 
ATOM     15  C   UNL     1      -0.556  11.886  18.630  0.00  0.00    +0.000 C 
ATOM     16  O   UNL     1      -1.542  11.213  18.370  0.00  0.00    +0.000 OA
ENDBRANCH   9  11
ENDBRANCH   2   5
BRANCH   3  17
ATOM     17  C   UNL     1       2.378   4.632  17.478  0.00  0.00    +0.000 C 
BRANCH  17  18
ATOM     18  C   UNL     1       3.455   3.717  18.130  0.00  0.00    +0.000 C 
ATOM     19  C   UNL     1       3.226   2.216  17.803  0.00  0.00    +0.000 C 
ATOM     20  C   UNL     1       3.935   1.445  18.919  0.00  0.00    +0.000 C 
ATOM     21  C   UNL     1       4.013   2.396  20.112  0.00  0.00    +0.000 C 
ATOM     22  C   UNL     1       3.286   3.666  19.674  0.00  0.00    +0.000 C 
BRANCH  18  23
ATOM     23  C   UNL     1       4.870   4.142  17.670  0.00  0.00    +0.000 A 
ATOM     24  C   UNL     1       5.820   4.700  18.543  0.00  0.00    +0.000 A 
ATOM     25  C   UNL     1       7.137   4.940  18.138  0.00  0.00    +0.000 A 
ATOM     26  C   UNL     1       7.530   4.659  16.837  0.00  0.00    +0.000 A 
ATOM     27  C   UNL     1       6.595   4.166  15.931  0.00  0.00    +0.000 A 
ATOM     28  C   UNL     1       5.281   3.918  16.340  0.00  0.00    +0.000 A 
ENDBRANCH  18  23
ENDBRANCH  17  18
ENDBRANCH   3  17
TORSDOF 5
ENDMDL
MODEL 8
REMARK VINA RESULT:      -8.3      0.542      1.071
REMARK  Name = 
REMARK  5 active torsions:
REMARK  status: ('A' for Active; 'I' for Inactive)
REMARK    1  A    between atoms: C_2  and  C_16
REMARK    2  A    between atoms: N_3  and  C_4
REMARK    3  A    between atoms: C_4  and  C_5
REMARK    4  A    between atoms: C_5  and  C_6
REMARK    5  A    between atoms: C_20  and  N_21
REMARK                            x       y       z     vdW  Elec       q    Type
REMARK                         _______ _______ _______ _____ _____    ______ ____
ROOT
ATOM      1  O   UNL     1       1.336   6.276  21.013  0.00  0.00    +0.000 OA
ATOM      2  C   UNL     1       2.037   6.866  20.203  0.00  0.00    +0.000 C 
ATOM      3  N   UNL     1       3.174   6.331  19.643  0.00  0.00    +0.000 N 
ATOM      4  H   UNL     1       3.542   6.792  18.824  0.00  0.00    +0.000 HD
ENDROOT
BRANCH   2   5
ATOM      5  C   UNL     1       1.687   8.245  19.748  0.00  0.00    +0.000 A 
ATOM      6  C   UNL     1       1.915   8.596  18.416  0.00  0.00    +0.000 A 
ATOM      7  C   UNL     1       1.555   9.865  17.972  0.00  0.00    +0.000 A 
ATOM      8  C   UNL     1       0.952  10.778  18.847  0.00  0.00    +0.000 A 
ATOM      9  C   UNL     1       0.695  10.447  20.185  0.00  0.00    +0.000 A 
ATOM     10  C   UNL     1       1.086   9.169  20.621  0.00  0.00    +0.000 A 
BRANCH   9  11
ATOM     11  N   UNL     1       0.036  11.345  21.071  0.00  0.00    +0.000 N 
ATOM     12  C   UNL     1      -0.100  12.758  20.799  0.00  0.00    +0.000 C 
ATOM     13  C   UNL     1      -0.443  13.372  22.138  0.00  0.00    +0.000 C 
ATOM     14  C   UNL     1      -1.205  12.273  22.849  0.00  0.00    +0.000 C 
ATOM     15  C   UNL     1      -0.628  11.006  22.262  0.00  0.00    +0.000 C 
ATOM     16  O   UNL     1      -0.799   9.908  22.770  0.00  0.00    +0.000 OA
ENDBRANCH   9  11
ENDBRANCH   2   5
BRANCH   3  17
ATOM     17  C   UNL     1       3.684   5.007  19.986  0.00  0.00    +0.000 C 
BRANCH  17  18
ATOM     18  C   UNL     1       3.801   4.041  18.772  0.00  0.00    +0.000 C 
ATOM     19  C   UNL     1       2.455   3.887  18.012  0.00  0.00    +0.000 C 
ATOM     20  C   UNL     1       2.555   2.548  17.278  0.00  0.00    +0.000 C 
ATOM     21  C   UNL     1       3.581   1.717  18.045  0.00  0.00    +0.000 C 
ATOM     22  C   UNL     1       3.994   2.573  19.241  0.00  0.00    +0.000 C 
BRANCH  18  23
ATOM     23  C   UNL     1       4.898   4.536  17.797  0.00  0.00    +0.000 A 
ATOM     24  C   UNL     1       6.266   4.297  18.007  0.00  0.00    +0.000 A 
ATOM     25  C   UNL     1       7.224   4.625  17.042  0.00  0.00    +0.000 A 
ATOM     26  C   UNL     1       6.840   5.233  15.855  0.00  0.00    +0.000 A 
ATOM     27  C   UNL     1       5.498   5.542  15.647  0.00  0.00    +0.000 A 
ATOM     28  C   UNL     1       4.542   5.204  16.608  0.00  0.00    +0.000 A 
ENDBRANCH  18  23
ENDBRANCH  17  18
ENDBRANCH   3  17
TORSDOF 5
ENDMDL
MODEL 9
REMARK VINA RESULT:      -8.3      2.018      3.748
REMARK  Name = 
REMARK  5 active torsions:
REMARK  status: ('A' for Active; 'I' for Inactive)
REMARK    1  A    between atoms: C_2  and  C_16
REMARK    2  A    between atoms: N_3  and  C_4
REMARK    3  A    between atoms: C_4  and  C_5
REMARK    4  A    between atoms: C_5  and  C_6
REMARK    5  A    between atoms: C_20  and  N_21
REMARK                            x       y       z     vdW  Elec       q    Type
REMARK                         _______ _______ _______ _____ _____    ______ ____
ROOT
ATOM      1  O   UNL     1       1.690   9.561  17.607  0.00  0.00    +0.000 OA
ATOM      2  C   UNL     1       1.724   8.915  18.645  0.00  0.00    +0.000 C 
ATOM      3  N   UNL     1       2.443   7.753  18.799  0.00  0.00    +0.000 N 
ATOM      4  H   UNL     1       2.597   7.430  19.742  0.00  0.00    +0.000 HD
ENDROOT
BRANCH   2   5
ATOM      5  C   UNL     1       0.972   9.368  19.853  0.00  0.00    +0.000 A 
ATOM      6  C   UNL     1       0.917   8.530  20.969  0.00  0.00    +0.000 A 
ATOM      7  C   UNL     1       0.253   8.958  22.115  0.00  0.00    +0.000 A 
ATOM      8  C   UNL     1      -0.339  10.227  22.158  0.00  0.00    +0.000 A 
ATOM      9  C   UNL     1      -0.284  11.097  21.060  0.00  0.00    +0.000 A 
ATOM     10  C   UNL     1       0.371  10.638  19.904  0.00  0.00    +0.000 A 
BRANCH   9  11
ATOM     11  N   UNL     1      -0.835  12.408  21.108  0.00  0.00    +0.000 N 
ATOM     12  C   UNL     1      -0.194  13.505  21.798  0.00  0.00    +0.000 C 
ATOM     13  C   UNL     1      -1.286  14.537  21.970  0.00  0.00    +0.000 C 
ATOM     14  C   UNL     1      -2.177  14.318  20.764  0.00  0.00    +0.000 C 
ATOM     15  C   UNL     1      -2.000  12.849  20.457  0.00  0.00    +0.000 C 
ATOM     16  O   UNL     1      -2.755  12.236  19.717  0.00  0.00    +0.000 OA
ENDBRANCH   9  11
ENDBRANCH   2   5
BRANCH   3  17
ATOM     17  C   UNL     1       3.217   7.147  17.719  0.00  0.00    +0.000 C 
BRANCH  17  18
ATOM     18  C   UNL     1       3.745   5.720  18.046  0.00  0.00    +0.000 C 
ATOM     19  C   UNL     1       5.002   5.754  18.959  0.00  0.00    +0.000 C 
ATOM     20  C   UNL     1       5.717   4.424  18.713  0.00  0.00    +0.000 C 
ATOM     21  C   UNL     1       5.273   3.948  17.332  0.00  0.00    +0.000 C 
ATOM     22  C   UNL     1       4.367   5.052  16.789  0.00  0.00    +0.000 C 
BRANCH  18  23
ATOM     23  C   UNL     1       2.634   4.877  18.718  0.00  0.00    +0.000 A 
ATOM     24  C   UNL     1       1.800   4.005  17.998  0.00  0.00    +0.000 A 
ATOM     25  C   UNL     1       0.903   3.148  18.644  0.00  0.00    +0.000 A 
ATOM     26  C   UNL     1       0.795   3.164  20.028  0.00  0.00    +0.000 A 
ATOM     27  C   UNL     1       1.562   4.063  20.764  0.00  0.00    +0.000 A 
ATOM     28  C   UNL     1       2.464   4.913  20.117  0.00  0.00    +0.000 A 
ENDBRANCH  18  23
ENDBRANCH  17  18
ENDBRANCH   3  17
TORSDOF 5
ENDMDL
