MODEL 1
REMARK VINA RESULT:      -8.8      0.000      0.000
REMARK  Name = 
REMARK  7 active torsions:
REMARK  status: ('A' for Active; 'I' for Inactive)
REMARK    1  A    between atoms: C_1  and  C_2
REMARK    2  A    between atoms: C_5  and  C_6
REMARK    3  A    between atoms: C_6  and  N_7
REMARK    4  A    between atoms: C_6  and  C_22
REMARK    5  A    between atoms: C_8  and  C_10
REMARK    6  A    between atoms: C_10  and  N_11
REMARK    7  A    between atoms: C_29  and  C_30
REMARK                            x       y       z     vdW  Elec       q    Type
REMARK                         _______ _______ _______ _____ _____    ______ ____
ROOT
ATOM      1  N   UNL     1       3.099   7.991  17.915  0.00  0.00    +0.000 N 
ATOM      2  C   UNL     1       1.886   8.642  17.861  0.00  0.00    +0.000 C 
ATOM      3  O   UNL     1       0.870   8.155  17.375  0.00  0.00    +0.000 OA
ATOM      4  H   UNL     1       3.921   8.478  18.254  0.00  0.00    +0.000 HD
ENDROOT
BRANCH   1   5
ATOM      5  C   UNL     1       3.240   6.599  17.525  0.00  0.00    +0.000 C 
BRANCH   5  10
ATOM      6  C   UNL     1       1.316   2.754  21.508  0.00  0.00    +0.000 C 
ATOM      7  C   UNL     1       1.764   3.750  20.475  0.00  0.00    +0.000 A 
ATOM      8  C   UNL     1       2.386   4.936  20.888  0.00  0.00    +0.000 A 
ATOM      9  C   UNL     1       2.832   5.876  19.958  0.00  0.00    +0.000 A 
ATOM     10  C   UNL     1       2.683   5.646  18.583  0.00  0.00    +0.000 A 
ATOM     11  C   UNL     1       2.051   4.459  18.172  0.00  0.00    +0.000 A 
ATOM     12  C   UNL     1       1.567   3.523  19.100  0.00  0.00    +0.000 A 
ATOM     13  C   UNL     1       0.836   2.305  18.602  0.00  0.00    +0.000 C 
ENDBRANCH   5  10
BRANCH   5  14
ATOM     14  C   UNL     1       4.672   6.275  17.099  0.00  0.00    +0.000 A 
ATOM     15  C   UNL     1       4.885   5.472  15.964  0.00  0.00    +0.000 A 
ATOM     16  C   UNL     1       6.168   5.028  15.629  0.00  0.00    +0.000 A 
ATOM     17  C   UNL     1       7.261   5.398  16.407  0.00  0.00    +0.000 A 
ATOM     18  C   UNL     1       7.079   6.248  17.493  0.00  0.00    +0.000 A 
ATOM     19  C   UNL     1       5.799   6.695  17.829  0.00  0.00    +0.000 A 
ENDBRANCH   5  14
ENDBRANCH   1   5
BRANCH   2  20
ATOM     20  C   UNL     1       1.906  10.077  18.377  0.00  0.00    +0.000 C 
BRANCH  20  21
ATOM     21  N   UNL     1       1.033  10.199  19.531  0.00  0.00    +0.000 N 
ATOM     22  C   UNL     1       1.202   9.373  20.617  0.00  0.00    +0.000 A 
ATOM     23  N   UNL     1       0.530   9.462  21.718  0.00  0.00    +0.000 NA
ATOM     24  C   UNL     1      -0.423  10.487  21.818  0.00  0.00    +0.000 A 
ATOM     25  C   UNL     1      -1.085  10.680  23.033  0.00  0.00    +0.000 A 
ATOM     26  C   UNL     1      -2.008  11.721  23.184  0.00  0.00    +0.000 A 
ATOM     27  C   UNL     1      -2.290  12.567  22.112  0.00  0.00    +0.000 A 
ATOM     28  C   UNL     1      -1.650  12.375  20.889  0.00  0.00    +0.000 A 
ATOM     29  C   UNL     1      -0.718  11.342  20.754  0.00  0.00    +0.000 A 
ATOM     30  C   UNL     1       0.039  11.159  19.498  0.00  0.00    +0.000 A 
ATOM     31  O   UNL     1      -0.209  11.845  18.509  0.00  0.00    +0.000 OA
ENDBRANCH  20  21
ENDBRANCH   2  20
TORSDOF 5
ENDMDL
MODEL 2
REMARK VINA RESULT:      -8.3      2.287      4.984
REMARK  Name = 
REMARK  7 active torsions:
REMARK  status: ('A' for Active; 'I' for Inactive)
REMARK    1  A    between atoms: C_1  and  C_2
REMARK    2  A    between atoms: C_5  and  C_6
REMARK    3  A    between atoms: C_6  and  N_7
REMARK    4  A    between atoms: C_6  and  C_22
REMARK    5  A    between atoms: C_8  and  C_10
REMARK    6  A    between atoms: C_10  and  N_11
REMARK    7  A    between atoms: C_29  and  C_30
REMARK                            x       y       z     vdW  Elec       q    Type
REMARK                         _______ _______ _______ _____ _____    ______ ____
ROOT
ATOM      1  N   UNL     1       1.939   7.456  19.198  0.00  0.00    +0.000 N 
ATOM      2  C   UNL     1       1.482   8.341  20.150  0.00  0.00    +0.000 C 
ATOM      3  O   UNL     1       1.744   8.254  21.347  0.00  0.00    +0.000 OA
ATOM      4  H   UNL     1       1.619   7.535  18.239  0.00  0.00    +0.000 HD
ENDROOT
BRANCH   1   5
ATOM      5  C   UNL     1       2.902   6.416  19.517  0.00  0.00    +0.000 C 
BRANCH   5  10
ATOM      6  C   UNL     1       6.991   5.639  15.390  0.00  0.00    +0.000 C 
ATOM      7  C   UNL     1       5.972   5.867  16.473  0.00  0.00    +0.000 A 
ATOM      8  C   UNL     1       4.809   6.592  16.179  0.00  0.00    +0.000 A 
ATOM      9  C   UNL     1       3.832   6.808  17.152  0.00  0.00    +0.000 A 
ATOM     10  C   UNL     1       3.986   6.289  18.445  0.00  0.00    +0.000 A 
ATOM     11  C   UNL     1       5.157   5.570  18.739  0.00  0.00    +0.000 A 
ATOM     12  C   UNL     1       6.163   5.376  17.777  0.00  0.00    +0.000 A 
ATOM     13  C   UNL     1       7.427   4.659  18.171  0.00  0.00    +0.000 C 
ENDBRANCH   5  10
BRANCH   5  14
ATOM     14  C   UNL     1       2.212   5.095  19.854  0.00  0.00    +0.000 A 
ATOM     15  C   UNL     1       2.246   4.622  21.178  0.00  0.00    +0.000 A 
ATOM     16  C   UNL     1       1.762   3.350  21.500  0.00  0.00    +0.000 A 
ATOM     17  C   UNL     1       1.214   2.540  20.509  0.00  0.00    +0.000 A 
ATOM     18  C   UNL     1       1.109   3.018  19.206  0.00  0.00    +0.000 A 
ATOM     19  C   UNL     1       1.590   4.289  18.884  0.00  0.00    +0.000 A 
ENDBRANCH   5  14
ENDBRANCH   1   5
BRANCH   2  20
ATOM     20  C   UNL     1       0.531   9.413  19.626  0.00  0.00    +0.000 C 
BRANCH  20  21
ATOM     21  N   UNL     1       1.255  10.654  19.418  0.00  0.00    +0.000 N 
ATOM     22  C   UNL     1       1.978  10.849  18.265  0.00  0.00    +0.000 A 
ATOM     23  N   UNL     1       2.583  11.949  17.955  0.00  0.00    +0.000 NA
ATOM     24  C   UNL     1       2.476  13.025  18.849  0.00  0.00    +0.000 A 
ATOM     25  C   UNL     1       3.023  14.260  18.492  0.00  0.00    +0.000 A 
ATOM     26  C   UNL     1       2.896  15.367  19.338  0.00  0.00    +0.000 A 
ATOM     27  C   UNL     1       2.235  15.242  20.560  0.00  0.00    +0.000 A 
ATOM     28  C   UNL     1       1.700  14.012  20.937  0.00  0.00    +0.000 A 
ATOM     29  C   UNL     1       1.819  12.916  20.077  0.00  0.00    +0.000 A 
ATOM     30  C   UNL     1       1.194  11.619  20.407  0.00  0.00    +0.000 A 
ATOM     31  O   UNL     1       0.645  11.443  21.492  0.00  0.00    +0.000 OA
ENDBRANCH  20  21
ENDBRANCH   2  20
TORSDOF 5
ENDMDL
MODEL 3
REMARK VINA RESULT:      -8.2      1.976      4.761
REMARK  Name = 
REMARK  7 active torsions:
REMARK  status: ('A' for Active; 'I' for Inactive)
REMARK    1  A    between atoms: C_1  and  C_2
REMARK    2  A    between atoms: C_5  and  C_6
REMARK    3  A    between atoms: C_6  and  N_7
REMARK    4  A    between atoms: C_6  and  C_22
REMARK    5  A    between atoms: C_8  and  C_10
REMARK    6  A    between atoms: C_10  and  N_11
REMARK    7  A    between atoms: C_29  and  C_30
REMARK                            x       y       z     vdW  Elec       q    Type
REMARK                         _______ _______ _______ _____ _____    ______ ____
ROOT
ATOM      1  N   UNL     1       2.189   7.545  18.137  0.00  0.00    +0.000 N 
ATOM      2  C   UNL     1       1.596   8.532  18.893  0.00  0.00    +0.000 C 
ATOM      3  O   UNL     1       1.708   8.622  20.112  0.00  0.00    +0.000 OA
ATOM      4  H   UNL     1       1.990   7.478  17.146  0.00  0.00    +0.000 HD
ENDROOT
BRANCH   1   5
ATOM      5  C   UNL     1       3.128   6.598  18.714  0.00  0.00    +0.000 C 
BRANCH   5  10
ATOM      6  C   UNL     1       7.551   5.198  15.133  0.00  0.00    +0.000 C 
ATOM      7  C   UNL     1       6.445   5.588  16.074  0.00  0.00    +0.000 A 
ATOM      8  C   UNL     1       5.336   6.289  15.579  0.00  0.00    +0.000 A 
ATOM      9  C   UNL     1       4.282   6.652  16.418  0.00  0.00    +0.000 A 
ATOM     10  C   UNL     1       4.300   6.308  17.777  0.00  0.00    +0.000 A 
ATOM     11  C   UNL     1       5.417   5.612  18.272  0.00  0.00    +0.000 A 
ATOM     12  C   UNL     1       6.500   5.272  17.445  0.00  0.00    +0.000 A 
ATOM     13  C   UNL     1       7.699   4.591  18.047  0.00  0.00    +0.000 C 
ENDBRANCH   5  10
BRANCH   5  14
ATOM     14  C   UNL     1       2.420   5.342  19.222  0.00  0.00    +0.000 A 
ATOM     15  C   UNL     1       1.869   4.442  18.292  0.00  0.00    +0.000 A 
ATOM     16  C   UNL     1       1.084   3.364  18.713  0.00  0.00    +0.000 A 
ATOM     17  C   UNL     1       0.858   3.152  20.070  0.00  0.00    +0.000 A 
ATOM     18  C   UNL     1       1.452   3.992  21.008  0.00  0.00    +0.000 A 
ATOM     19  C   UNL     1       2.238   5.068  20.589  0.00  0.00    +0.000 A 
ENDBRANCH   5  14
ENDBRANCH   1   5
BRANCH   2  20
ATOM     20  C   UNL     1       0.694   9.483  18.111  0.00  0.00    +0.000 C 
BRANCH  20  21
ATOM     21  N   UNL     1       1.067  10.858  18.390  0.00  0.00    +0.000 N 
ATOM     22  C   UNL     1       2.314  11.322  18.042  0.00  0.00    +0.000 A 
ATOM     23  N   UNL     1       2.705  12.547  18.174  0.00  0.00    +0.000 NA
ATOM     24  C   UNL     1       1.784  13.472  18.690  0.00  0.00    +0.000 A 
ATOM     25  C   UNL     1       2.137  14.823  18.740  0.00  0.00    +0.000 A 
ATOM     26  C   UNL     1       1.228  15.779  19.205  0.00  0.00    +0.000 A 
ATOM     27  C   UNL     1      -0.038  15.389  19.641  0.00  0.00    +0.000 A 
ATOM     28  C   UNL     1      -0.397  14.042  19.613  0.00  0.00    +0.000 A 
ATOM     29  C   UNL     1       0.514  13.096  19.132  0.00  0.00    +0.000 A 
ATOM     30  C   UNL     1       0.139  11.673  19.012  0.00  0.00    +0.000 A 
ATOM     31  O   UNL     1      -0.944  11.270  19.430  0.00  0.00    +0.000 OA
ENDBRANCH  20  21
ENDBRANCH   2  20
TORSDOF 5
ENDMDL
MODEL 4
REMARK VINA RESULT:      -8.2      2.071      4.674
REMARK  Name = 
REMARK  7 active torsions:
REMARK  status: ('A' for Active; 'I' for Inactive)
REMARK    1  A    between atoms: C_1  and  C_2
REMARK    2  A    between atoms: C_5  and  C_6
REMARK    3  A    between atoms: C_6  and  N_7
REMARK    4  A    between atoms: C_6  and  C_22
REMARK    5  A    between atoms: C_8  and  C_10
REMARK    6  A    between atoms: C_10  and  N_11
REMARK    7  A    between atoms: C_29  and  C_30
REMARK                            x       y       z     vdW  Elec       q    Type
REMARK                         _______ _______ _______ _____ _____    ______ ____
ROOT
ATOM      1  N   UNL     1       2.234   7.682  18.200  0.00  0.00    +0.000 N 
ATOM      2  C   UNL     1       1.644   8.618  19.020  0.00  0.00    +0.000 C 
ATOM      3  O   UNL     1       1.685   8.577  20.246  0.00  0.00    +0.000 OA
ATOM      4  H   UNL     1       2.094   7.727  17.197  0.00  0.00    +0.000 HD
ENDROOT
BRANCH   1   5
ATOM      5  C   UNL     1       3.088   6.631  18.726  0.00  0.00    +0.000 C 
BRANCH   5  10
ATOM      6  C   UNL     1       7.477   5.124  15.146  0.00  0.00    +0.000 C 
ATOM      7  C   UNL     1       6.380   5.542  16.087  0.00  0.00    +0.000 A 
ATOM      8  C   UNL     1       5.275   6.243  15.584  0.00  0.00    +0.000 A 
ATOM      9  C   UNL     1       4.229   6.631  16.423  0.00  0.00    +0.000 A 
ATOM     10  C   UNL     1       4.253   6.313  17.788  0.00  0.00    +0.000 A 
ATOM     11  C   UNL     1       5.366   5.616  18.290  0.00  0.00    +0.000 A 
ATOM     12  C   UNL     1       6.441   5.251  17.462  0.00  0.00    +0.000 A 
ATOM     13  C   UNL     1       7.637   4.570  18.070  0.00  0.00    +0.000 C 
ENDBRANCH   5  10
BRANCH   5  14
ATOM     14  C   UNL     1       2.278   5.402  19.141  0.00  0.00    +0.000 A 
ATOM     15  C   UNL     1       2.089   5.136  20.509  0.00  0.00    +0.000 A 
ATOM     16  C   UNL     1       1.488   3.946  20.932  0.00  0.00    +0.000 A 
ATOM     17  C   UNL     1       1.045   3.016  19.997  0.00  0.00    +0.000 A 
ATOM     18  C   UNL     1       1.161   3.293  18.638  0.00  0.00    +0.000 A 
ATOM     19  C   UNL     1       1.759   4.482  18.213  0.00  0.00    +0.000 A 
ENDBRANCH   5  14
ENDBRANCH   1   5
BRANCH   2  20
ATOM     20  C   UNL     1       0.840   9.692  18.293  0.00  0.00    +0.000 C 
BRANCH  20  21
ATOM     21  N   UNL     1       0.811  10.908  19.085  0.00  0.00    +0.000 N 
ATOM     22  C   UNL     1      -0.171  11.096  20.029  0.00  0.00    +0.000 A 
ATOM     23  N   UNL     1      -0.230  12.104  20.836  0.00  0.00    +0.000 NA
ATOM     24  C   UNL     1       0.792  13.062  20.757  0.00  0.00    +0.000 A 
ATOM     25  C   UNL     1       0.818  14.102  21.689  0.00  0.00    +0.000 A 
ATOM     26  C   UNL     1       1.848  15.050  21.669  0.00  0.00    +0.000 A 
ATOM     27  C   UNL     1       2.851  14.974  20.703  0.00  0.00    +0.000 A 
ATOM     28  C   UNL     1       2.827  13.952  19.756  0.00  0.00    +0.000 A 
ATOM     29  C   UNL     1       1.802  13.001  19.795  0.00  0.00    +0.000 A 
ATOM     30  C   UNL     1       1.790  11.858  18.859  0.00  0.00    +0.000 A 
ATOM     31  O   UNL     1       2.620  11.774  17.958  0.00  0.00    +0.000 OA
ENDBRANCH  20  21
ENDBRANCH   2  20
TORSDOF 5
ENDMDL
MODEL 5
REMARK VINA RESULT:      -8.2      1.794      4.448
REMARK  Name = 
REMARK  7 active torsions:
REMARK  status: ('A' for Active; 'I' for Inactive)
REMARK    1  A    between atoms: C_1  and  C_2
REMARK    2  A    between atoms: C_5  and  C_6
REMARK    3  A    between atoms: C_6  and  N_7
REMARK    4  A    between atoms: C_6  and  C_22
REMARK    5  A    between atoms: C_8  and  C_10
REMARK    6  A    between atoms: C_10  and  N_11
REMARK    7  A    between atoms: C_29  and  C_30
REMARK                            x       y       z     vdW  Elec       q    Type
REMARK                         _______ _______ _______ _____ _____    ______ ____
ROOT
ATOM      1  N   UNL     1       2.306   7.566  18.099  0.00  0.00    +0.000 N 
ATOM      2  C   UNL     1       1.725   8.522  18.904  0.00  0.00    +0.000 C 
ATOM      3  O   UNL     1       1.813   8.530  20.128  0.00  0.00    +0.000 OA
ATOM      4  H   UNL     1       2.127   7.568  17.101  0.00  0.00    +0.000 HD
ENDROOT
BRANCH   1   5
ATOM      5  C   UNL     1       3.204   6.557  18.633  0.00  0.00    +0.000 C 
BRANCH   5  10
ATOM      6  C   UNL     1       7.560   5.106  14.990  0.00  0.00    +0.000 C 
ATOM      7  C   UNL     1       6.472   5.510  15.946  0.00  0.00    +0.000 A 
ATOM      8  C   UNL     1       5.360   6.215  15.464  0.00  0.00    +0.000 A 
ATOM      9  C   UNL     1       4.322   6.590  16.318  0.00  0.00    +0.000 A 
ATOM     10  C   UNL     1       4.360   6.254  17.678  0.00  0.00    +0.000 A 
ATOM     11  C   UNL     1       5.480   5.554  18.160  0.00  0.00    +0.000 A 
ATOM     12  C   UNL     1       6.547   5.201  17.317  0.00  0.00    +0.000 A 
ATOM     13  C   UNL     1       7.751   4.516  17.904  0.00  0.00    +0.000 C 
ENDBRANCH   5  10
BRANCH   5  14
ATOM     14  C   UNL     1       2.444   5.314  19.094  0.00  0.00    +0.000 A 
ATOM     15  C   UNL     1       1.966   4.407  18.132  0.00  0.00    +0.000 A 
ATOM     16  C   UNL     1       1.138   3.341  18.498  0.00  0.00    +0.000 A 
ATOM     17  C   UNL     1       0.795   3.150  19.833  0.00  0.00    +0.000 A 
ATOM     18  C   UNL     1       1.314   3.997  20.808  0.00  0.00    +0.000 A 
ATOM     19  C   UNL     1       2.143   5.061  20.444  0.00  0.00    +0.000 A 
ENDBRANCH   5  14
ENDBRANCH   1   5
BRANCH   2  20
ATOM     20  C   UNL     1       0.869   9.547  18.166  0.00  0.00    +0.000 C 
BRANCH  20  21
ATOM     21  N   UNL     1       0.568  10.662  19.045  0.00  0.00    +0.000 N 
ATOM     22  C   UNL     1      -0.535  10.620  19.865  0.00  0.00    +0.000 A 
ATOM     23  N   UNL     1      -0.836  11.525  20.738  0.00  0.00    +0.000 NA
ATOM     24  C   UNL     1       0.036  12.616  20.871  0.00  0.00    +0.000 A 
ATOM     25  C   UNL     1      -0.200  13.552  21.881  0.00  0.00    +0.000 A 
ATOM     26  C   UNL     1       0.673  14.628  22.073  0.00  0.00    +0.000 A 
ATOM     27  C   UNL     1       1.783  14.786  21.243  0.00  0.00    +0.000 A 
ATOM     28  C   UNL     1       2.021  13.869  20.220  0.00  0.00    +0.000 A 
ATOM     29  C   UNL     1       1.150  12.789  20.047  0.00  0.00    +0.000 A 
ATOM     30  C   UNL     1       1.416  11.754  19.027  0.00  0.00    +0.000 A 
ATOM     31  O   UNL     1       2.350  11.874  18.238  0.00  0.00    +0.000 OA
ENDBRANCH  20  21
ENDBRANCH   2  20
TORSDOF 5
ENDMDL
MODEL 6
REMARK VINA RESULT:      -8.1      1.414      4.265
REMARK  Name = 
REMARK  7 active torsions:
REMARK  status: ('A' for Active; 'I' for Inactive)
REMARK    1  A    between atoms: C_1  and  C_2
REMARK    2  A    between atoms: C_5  and  C_6
REMARK    3  A    between atoms: C_6  and  N_7
REMARK    4  A    between atoms: C_6  and  C_22
REMARK    5  A    between atoms: C_8  and  C_10
REMARK    6  A    between atoms: C_10  and  N_11
REMARK    7  A    between atoms: C_29  and  C_30
REMARK                            x       y       z     vdW  Elec       q    Type
REMARK                         _______ _______ _______ _____ _____    ______ ____
ROOT
ATOM      1  N   UNL     1       2.293   7.712  18.345  0.00  0.00    +0.000 N 
ATOM      2  C   UNL     1       1.673   8.570  19.228  0.00  0.00    +0.000 C 
ATOM      3  O   UNL     1       1.642   8.395  20.443  0.00  0.00    +0.000 OA
ATOM      4  H   UNL     1       2.212   7.870  17.346  0.00  0.00    +0.000 HD
ENDROOT
BRANCH   1   5
ATOM      5  C   UNL     1       3.094   6.590  18.800  0.00  0.00    +0.000 C 
BRANCH   5  10
ATOM      6  C   UNL     1       7.510   5.193  15.208  0.00  0.00    +0.000 C 
ATOM      7  C   UNL     1       6.405   5.583  16.152  0.00  0.00    +0.000 A 
ATOM      8  C   UNL     1       5.293   6.277  15.658  0.00  0.00    +0.000 A 
ATOM      9  C   UNL     1       4.240   6.639  16.499  0.00  0.00    +0.000 A 
ATOM     10  C   UNL     1       4.265   6.301  17.859  0.00  0.00    +0.000 A 
ATOM     11  C   UNL     1       5.386   5.612  18.354  0.00  0.00    +0.000 A 
ATOM     12  C   UNL     1       6.467   5.273  17.523  0.00  0.00    +0.000 A 
ATOM     13  C   UNL     1       7.672   4.599  18.124  0.00  0.00    +0.000 C 
ENDBRANCH   5  10
BRANCH   5  14
ATOM     14  C   UNL     1       2.230   5.366  19.101  0.00  0.00    +0.000 A 
ATOM     15  C   UNL     1       1.927   5.052  20.439  0.00  0.00    +0.000 A 
ATOM     16  C   UNL     1       1.270   3.862  20.766  0.00  0.00    +0.000 A 
ATOM     17  C   UNL     1       0.884   2.978  19.763  0.00  0.00    +0.000 A 
ATOM     18  C   UNL     1       1.114   3.304  18.430  0.00  0.00    +0.000 A 
ATOM     19  C   UNL     1       1.768   4.493  18.100  0.00  0.00    +0.000 A 
ENDBRANCH   5  14
ENDBRANCH   1   5
BRANCH   2  20
ATOM     20  C   UNL     1       0.934   9.735  18.578  0.00  0.00    +0.000 C 
BRANCH  20  21
ATOM     21  N   UNL     1       0.391  10.608  19.604  0.00  0.00    +0.000 N 
ATOM     22  C   UNL     1       1.207  11.109  20.590  0.00  0.00    +0.000 A 
ATOM     23  N   UNL     1       0.832  11.956  21.493  0.00  0.00    +0.000 NA
ATOM     24  C   UNL     1      -0.495  12.410  21.449  0.00  0.00    +0.000 A 
ATOM     25  C   UNL     1      -0.899  13.408  22.339  0.00  0.00    +0.000 A 
ATOM     26  C   UNL     1      -2.201  13.918  22.293  0.00  0.00    +0.000 A 
ATOM     27  C   UNL     1      -3.117  13.420  21.367  0.00  0.00    +0.000 A 
ATOM     28  C   UNL     1      -2.732  12.411  20.484  0.00  0.00    +0.000 A 
ATOM     29  C   UNL     1      -1.424  11.920  20.528  0.00  0.00    +0.000 A 
ATOM     30  C   UNL     1      -0.958  10.910  19.555  0.00  0.00    +0.000 A 
ATOM     31  O   UNL     1      -1.738  10.402  18.754  0.00  0.00    +0.000 OA
ENDBRANCH  20  21
ENDBRANCH   2  20
TORSDOF 5
ENDMDL
MODEL 7
REMARK VINA RESULT:      -8.1      3.301      6.455
REMARK  Name = 
REMARK  7 active torsions:
REMARK  status: ('A' for Active; 'I' for Inactive)
REMARK    1  A    between atoms: C_1  and  C_2
REMARK    2  A    between atoms: C_5  and  C_6
REMARK    3  A    between atoms: C_6  and  N_7
REMARK    4  A    between atoms: C_6  and  C_22
REMARK    5  A    between atoms: C_8  and  C_10
REMARK    6  A    between atoms: C_10  and  N_11
REMARK    7  A    between atoms: C_29  and  C_30
REMARK                            x       y       z     vdW  Elec       q    Type
REMARK                         _______ _______ _______ _____ _____    ______ ____
ROOT
ATOM      1  N   UNL     1       0.669  11.758  20.111  0.00  0.00    +0.000 N 
ATOM      2  C   UNL     1       0.900  13.116  20.071  0.00  0.00    +0.000 C 
ATOM      3  O   UNL     1       1.023  13.758  19.032  0.00  0.00    +0.000 OA
ATOM      4  H   UNL     1       0.660  11.272  21.001  0.00  0.00    +0.000 HD
ENDROOT
BRANCH   1   5
ATOM      5  C   UNL     1       0.405  10.989  18.907  0.00  0.00    +0.000 C 
BRANCH   5  10
ATOM      6  C   UNL     1      -5.289  11.084  17.519  0.00  0.00    +0.000 C 
ATOM      7  C   UNL     1      -3.839  11.037  17.916  0.00  0.00    +0.000 A 
ATOM      8  C   UNL     1      -2.953  10.232  17.187  0.00  0.00    +0.000 A 
ATOM      9  C   UNL     1      -1.597  10.177  17.513  0.00  0.00    +0.000 A 
ATOM     10  C   UNL     1      -1.086  10.941  18.572  0.00  0.00    +0.000 A 
ATOM     11  C   UNL     1      -1.979  11.741  19.307  0.00  0.00    +0.000 A 
ATOM     12  C   UNL     1      -3.351  11.777  19.009  0.00  0.00    +0.000 A 
ATOM     13  C   UNL     1      -4.270  12.597  19.876  0.00  0.00    +0.000 C 
ENDBRANCH   5  10
BRANCH   5  14
ATOM     14  C   UNL     1       1.068   9.613  18.961  0.00  0.00    +0.000 A 
ATOM     15  C   UNL     1       1.046   8.888  20.166  0.00  0.00    +0.000 A 
ATOM     16  C   UNL     1       1.768   7.698  20.301  0.00  0.00    +0.000 A 
ATOM     17  C   UNL     1       2.504   7.201  19.230  0.00  0.00    +0.000 A 
ATOM     18  C   UNL     1       2.483   7.869  18.009  0.00  0.00    +0.000 A 
ATOM     19  C   UNL     1       1.760   9.056  17.870  0.00  0.00    +0.000 A 
ENDBRANCH   5  14
ENDBRANCH   1   5
BRANCH   2  20
ATOM     20  C   UNL     1       1.086  13.775  21.434  0.00  0.00    +0.000 C 
BRANCH  20  21
ATOM     21  N   UNL     1      -0.208  14.092  22.009  0.00  0.00    +0.000 N 
ATOM     22  C   UNL     1      -0.723  15.362  21.898  0.00  0.00    +0.000 A 
ATOM     23  N   UNL     1      -1.899  15.716  22.304  0.00  0.00    +0.000 NA
ATOM     24  C   UNL     1      -2.713  14.729  22.879  0.00  0.00    +0.000 A 
ATOM     25  C   UNL     1      -4.028  15.052  23.225  0.00  0.00    +0.000 A 
ATOM     26  C   UNL     1      -4.883  14.081  23.758  0.00  0.00    +0.000 A 
ATOM     27  C   UNL     1      -4.423  12.781  23.966  0.00  0.00    +0.000 A 
ATOM     28  C   UNL     1      -3.109  12.449  23.643  0.00  0.00    +0.000 A 
ATOM     29  C   UNL     1      -2.267  13.423  23.096  0.00  0.00    +0.000 A 
ATOM     30  C   UNL     1      -0.894  13.087  22.666  0.00  0.00    +0.000 A 
ATOM     31  O   UNL     1      -0.425  11.971  22.875  0.00  0.00    +0.000 OA
ENDBRANCH  20  21
ENDBRANCH   2  20
TORSDOF 5
ENDMDL
MODEL 8
REMARK VINA RESULT:      -8.0      2.295      4.964
REMARK  Name = 
REMARK  7 active torsions:
REMARK  status: ('A' for Active; 'I' for Inactive)
REMARK    1  A    between atoms: C_1  and  C_2
REMARK    2  A    between atoms: C_5  and  C_6
REMARK    3  A    between atoms: C_6  and  N_7
REMARK    4  A    between atoms: C_6  and  C_22
REMARK    5  A    between atoms: C_8  and  C_10
REMARK    6  A    between atoms: C_10  and  N_11
REMARK    7  A    between atoms: C_29  and  C_30
REMARK                            x       y       z     vdW  Elec       q    Type
REMARK                         _______ _______ _______ _____ _____    ______ ____
ROOT
ATOM      1  N   UNL     1       2.015   7.460  18.996  0.00  0.00    +0.000 N 
ATOM      2  C   UNL     1       1.533   8.399  19.882  0.00  0.00    +0.000 C 
ATOM      3  O   UNL     1       1.770   8.387  21.087  0.00  0.00    +0.000 OA
ATOM      4  H   UNL     1       1.715   7.477  18.028  0.00  0.00    +0.000 HD
ENDROOT
BRANCH   1   5
ATOM      5  C   UNL     1       2.975   6.447  19.399  0.00  0.00    +0.000 C 
BRANCH   5  10
ATOM      6  C   UNL     1       7.139   5.411  15.407  0.00  0.00    +0.000 C 
ATOM      7  C   UNL     1       6.100   5.708  16.453  0.00  0.00    +0.000 A 
ATOM      8  C   UNL     1       4.929   6.384  16.085  0.00  0.00    +0.000 A 
ATOM      9  C   UNL     1       3.934   6.661  17.023  0.00  0.00    +0.000 A 
ATOM     10  C   UNL     1       4.077   6.252  18.357  0.00  0.00    +0.000 A 
ATOM     11  C   UNL     1       5.256   5.582  18.725  0.00  0.00    +0.000 A 
ATOM     12  C   UNL     1       6.280   5.328  17.796  0.00  0.00    +0.000 A 
ATOM     13  C   UNL     1       7.550   4.670  18.264  0.00  0.00    +0.000 C 
ENDBRANCH   5  10
BRANCH   5  14
ATOM     14  C   UNL     1       2.282   5.148  19.812  0.00  0.00    +0.000 A 
ATOM     15  C   UNL     1       2.385   4.710  21.145  0.00  0.00    +0.000 A 
ATOM     16  C   UNL     1       1.898   3.457  21.528  0.00  0.00    +0.000 A 
ATOM     17  C   UNL     1       1.280   2.631  20.594  0.00  0.00    +0.000 A 
ATOM     18  C   UNL     1       1.108   3.076  19.286  0.00  0.00    +0.000 A 
ATOM     19  C   UNL     1       1.592   4.328  18.901  0.00  0.00    +0.000 A 
ENDBRANCH   5  14
ENDBRANCH   1   5
BRANCH   2  20
ATOM     20  C   UNL     1       0.590   9.431  19.272  0.00  0.00    +0.000 C 
BRANCH  20  21
ATOM     21  N   UNL     1       1.046  10.770  19.601  0.00  0.00    +0.000 N 
ATOM     22  C   UNL     1       0.735  11.329  20.818  0.00  0.00    +0.000 A 
ATOM     23  N   UNL     1       1.164  12.476  21.230  0.00  0.00    +0.000 NA
ATOM     24  C   UNL     1       2.025  13.192  20.384  0.00  0.00    +0.000 A 
ATOM     25  C   UNL     1       2.595  14.380  20.846  0.00  0.00    +0.000 A 
ATOM     26  C   UNL     1       3.493  15.097  20.048  0.00  0.00    +0.000 A 
ATOM     27  C   UNL     1       3.816  14.637  18.771  0.00  0.00    +0.000 A 
ATOM     28  C   UNL     1       3.241  13.462  18.290  0.00  0.00    +0.000 A 
ATOM     29  C   UNL     1       2.356  12.746  19.103  0.00  0.00    +0.000 A 
ATOM     30  C   UNL     1       1.791  11.455  18.659  0.00  0.00    +0.000 A 
ATOM     31  O   UNL     1       2.003  11.033  17.524  0.00  0.00    +0.000 OA
ENDBRANCH  20  21
ENDBRANCH   2  20
TORSDOF 5
ENDMDL
MODEL 9
REMARK VINA RESULT:      -8.0      0.896      1.042
REMARK  Name = 
REMARK  7 active torsions:
REMARK  status: ('A' for Active; 'I' for Inactive)
REMARK    1  A    between atoms: C_1  and  C_2
REMARK    2  A    between atoms: C_5  and  C_6
REMARK    3  A    between atoms: C_6  and  N_7
REMARK    4  A    between atoms: C_6  and  C_22
REMARK    5  A    between atoms: C_8  and  C_10
REMARK    6  A    between atoms: C_10  and  N_11
REMARK    7  A    between atoms: C_29  and  C_30
REMARK                            x       y       z     vdW  Elec       q    Type
REMARK                         _______ _______ _______ _____ _____    ______ ____
ROOT
ATOM      1  N   UNL     1       3.252   7.605  18.041  0.00  0.00    +0.000 N 
ATOM      2  C   UNL     1       2.112   8.367  17.898  0.00  0.00    +0.000 C 
ATOM      3  O   UNL     1       1.118   7.999  17.279  0.00  0.00    +0.000 OA
ATOM      4  H   UNL     1       4.069   7.999  18.494  0.00  0.00    +0.000 HD
ENDROOT
BRANCH   1   5
ATOM      5  C   UNL     1       3.315   6.227  17.587  0.00  0.00    +0.000 C 
BRANCH   5  10
ATOM      6  C   UNL     1       1.847   2.569  21.925  0.00  0.00    +0.000 C 
ATOM      7  C   UNL     1       2.218   3.472  20.780  0.00  0.00    +0.000 A 
ATOM      8  C   UNL     1       1.354   4.516  20.421  0.00  0.00    +0.000 A 
ATOM      9  C   UNL     1       1.673   5.385  19.377  0.00  0.00    +0.000 A 
ATOM     10  C   UNL     1       2.877   5.243  18.673  0.00  0.00    +0.000 A 
ATOM     11  C   UNL     1       3.737   4.190  19.030  0.00  0.00    +0.000 A 
ATOM     12  C   UNL     1       3.410   3.288  20.056  0.00  0.00    +0.000 A 
ATOM     13  C   UNL     1       4.337   2.138  20.346  0.00  0.00    +0.000 C 
ENDBRANCH   5  10
BRANCH   5  14
ATOM     14  C   UNL     1       4.675   5.899  16.972  0.00  0.00    +0.000 A 
ATOM     15  C   UNL     1       4.765   4.876  16.011  0.00  0.00    +0.000 A 
ATOM     16  C   UNL     1       6.007   4.442  15.538  0.00  0.00    +0.000 A 
ATOM     17  C   UNL     1       7.177   5.038  15.997  0.00  0.00    +0.000 A 
ATOM     18  C   UNL     1       7.105   6.098  16.896  0.00  0.00    +0.000 A 
ATOM     19  C   UNL     1       5.865   6.535  17.369  0.00  0.00    +0.000 A 
ENDBRANCH   5  14
ENDBRANCH   1   5
BRANCH   2  20
ATOM     20  C   UNL     1       2.197   9.767  18.497  0.00  0.00    +0.000 C 
BRANCH  20  21
ATOM     21  N   UNL     1       1.285   9.880  19.620  0.00  0.00    +0.000 N 
ATOM     22  C   UNL     1       1.317   8.953  20.635  0.00  0.00    +0.000 A 
ATOM     23  N   UNL     1       0.603   9.017  21.711  0.00  0.00    +0.000 NA
ATOM     24  C   UNL     1      -0.248  10.122  21.862  0.00  0.00    +0.000 A 
ATOM     25  C   UNL     1      -0.947  10.279  23.062  0.00  0.00    +0.000 A 
ATOM     26  C   UNL     1      -1.770  11.392  23.266  0.00  0.00    +0.000 A 
ATOM     27  C   UNL     1      -1.913  12.351  22.263  0.00  0.00    +0.000 A 
ATOM     28  C   UNL     1      -1.235  12.198  21.055  0.00  0.00    +0.000 A 
ATOM     29  C   UNL     1      -0.404  11.089  20.867  0.00  0.00    +0.000 A 
ATOM     30  C   UNL     1       0.392  10.937  19.632  0.00  0.00    +0.000 A 
ATOM     31  O   UNL     1       0.263  11.725  18.698  0.00  0.00    +0.000 OA
ENDBRANCH  20  21
ENDBRANCH   2  20
TORSDOF 5
ENDMDL
