MODEL 1
REMARK VINA RESULT:      -8.7      0.000      0.000
REMARK  Name = 
REMARK  5 active torsions:
REMARK  status: ('A' for Active; 'I' for Inactive)
REMARK    1  A    between atoms: C_1  and  C_2
REMARK    2  A    between atoms: C_2  and  C_3
REMARK    3  A    between atoms: N_13  and  C_14
REMARK    4  A    between atoms: C_14  and  C_15
REMARK    5  A    between atoms: N_17  and  C_18
REMARK                            x       y       z     vdW  Elec       q    Type
REMARK                         _______ _______ _______ _____ _____    ______ ____
ROOT
ATOM      1  C   UNL     1      -0.281  13.726  19.805  0.00  0.00    +0.000 C 
ATOM      2  C   UNL     1      -0.799  12.354  20.220  0.00  0.00    +0.000 C 
ATOM      3  N   UNL     1      -1.649  12.482  21.385  0.00  0.00    +0.000 N 
ATOM      4  C   UNL     1      -1.347  11.557  22.350  0.00  0.00    +0.000 C 
ATOM      5  O   UNL     1      -1.947  11.437  23.404  0.00  0.00    +0.000 OA
ATOM      6  N   UNL     1      -0.295  10.811  21.928  0.00  0.00    +0.000 N 
ATOM      7  C   UNL     1       0.273  11.419  20.842  0.00  0.00    +0.000 C 
ATOM      8  O   UNL     1       1.395  11.215  20.395  0.00  0.00    +0.000 OA
ATOM      9  H   UNL     1      -2.440  13.105  21.477  0.00  0.00    +0.000 HD
ENDROOT
BRANCH   2  10
ATOM     10  C   UNL     1      -1.446  11.586  19.063  0.00  0.00    +0.000 A 
ATOM     11  C   UNL     1      -2.713  11.990  18.595  0.00  0.00    +0.000 A 
ATOM     12  C   UNL     1      -3.297  11.391  17.478  0.00  0.00    +0.000 A 
ATOM     13  C   UNL     1      -2.623  10.378  16.809  0.00  0.00    +0.000 A 
ATOM     14 CL   UNL     1      -3.337   9.641  15.429  0.00  0.00    +0.000 Cl
ATOM     15  C   UNL     1      -1.367   9.964  17.246  0.00  0.00    +0.000 A 
ATOM     16  C   UNL     1      -0.781  10.563  18.366  0.00  0.00    +0.000 A 
ENDBRANCH   2  10
BRANCH   6  17
ATOM     17  C   UNL     1       0.264   9.687  22.647  0.00  0.00    +0.000 C 
BRANCH  17  18
ATOM     18  C   UNL     1       0.348   8.439  21.750  0.00  0.00    +0.000 C 
ATOM     19  O   UNL     1      -0.670   7.807  21.472  0.00  0.00    +0.000 OA
ATOM     20  N   UNL     1       1.629   8.140  21.299  0.00  0.00    +0.000 N 
ATOM     21  H   UNL     1       2.407   8.616  21.760  0.00  0.00    +0.000 HD
BRANCH  20  22
ATOM     22  C   UNL     1       1.990   7.158  20.349  0.00  0.00    +0.000 A 
ATOM     23  C   UNL     1       2.376   7.478  19.046  0.00  0.00    +0.000 A 
ATOM     24  C   UNL     1       2.784   6.481  18.161  0.00  0.00    +0.000 A 
ATOM     25  C   UNL     1       2.758   5.146  18.554  0.00  0.00    +0.000 A 
ATOM     26  C   UNL     1       2.351   4.804  19.843  0.00  0.00    +0.000 A 
ATOM     27  C   UNL     1       1.999   5.812  20.750  0.00  0.00    +0.000 A 
ATOM     28  O   UNL     1       2.377   3.513  20.304  0.00  0.00    +0.000 OA
ATOM     29  C   UNL     1       1.517   2.645  19.559  0.00  0.00    +0.000 C 
ATOM     30  C   UNL     1       2.119   2.172  18.241  0.00  0.00    +0.000 C 
ATOM     31  C   UNL     1       2.253   3.314  17.248  0.00  0.00    +0.000 C 
ATOM     32  O   UNL     1       3.256   4.241  17.658  0.00  0.00    +0.000 OA
ENDBRANCH  20  22
ENDBRANCH  17  18
ENDBRANCH   6  17
TORSDOF 4
ENDMDL
MODEL 2
REMARK VINA RESULT:      -8.5      5.997      9.625
REMARK  Name = 
REMARK  5 active torsions:
REMARK  status: ('A' for Active; 'I' for Inactive)
REMARK    1  A    between atoms: C_1  and  C_2
REMARK    2  A    between atoms: C_2  and  C_3
REMARK    3  A    between atoms: N_13  and  C_14
REMARK    4  A    between atoms: C_14  and  C_15
REMARK    5  A    between atoms: N_17  and  C_18
REMARK                            x       y       z     vdW  Elec       q    Type
REMARK                         _______ _______ _______ _____ _____    ______ ____
ROOT
ATOM      1  C   UNL     1       4.008   3.568  17.922  0.00  0.00    +0.000 C 
ATOM      2  C   UNL     1       4.636   4.949  17.791  0.00  0.00    +0.000 C 
ATOM      3  N   UNL     1       5.233   5.095  16.480  0.00  0.00    +0.000 N 
ATOM      4  C   UNL     1       6.497   5.622  16.543  0.00  0.00    +0.000 C 
ATOM      5  O   UNL     1       7.188   5.875  15.572  0.00  0.00    +0.000 OA
ATOM      6  N   UNL     1       6.827   5.815  17.843  0.00  0.00    +0.000 N 
ATOM      7  C   UNL     1       5.923   5.159  18.633  0.00  0.00    +0.000 C 
ATOM      8  O   UNL     1       6.068   4.853  19.810  0.00  0.00    +0.000 OA
ATOM      9  H   UNL     1       4.773   4.925  15.596  0.00  0.00    +0.000 HD
ENDROOT
BRANCH   2  10
ATOM     10  C   UNL     1       3.670   6.080  18.160  0.00  0.00    +0.000 A 
ATOM     11  C   UNL     1       2.973   6.015  19.384  0.00  0.00    +0.000 A 
ATOM     12  C   UNL     1       2.164   7.068  19.813  0.00  0.00    +0.000 A 
ATOM     13  C   UNL     1       2.039   8.205  19.025  0.00  0.00    +0.000 A 
ATOM     14 CL   UNL     1       1.047   9.506  19.554  0.00  0.00    +0.000 Cl
ATOM     15  C   UNL     1       2.721   8.298  17.815  0.00  0.00    +0.000 A 
ATOM     16  C   UNL     1       3.532   7.243  17.383  0.00  0.00    +0.000 A 
ENDBRANCH   2  10
BRANCH   6  17
ATOM     17  C   UNL     1       8.056   6.422  18.305  0.00  0.00    +0.000 C 
BRANCH  17  18
ATOM     18  C   UNL     1       8.016   7.952  18.144  0.00  0.00    +0.000 C 
ATOM     19  O   UNL     1       7.186   8.474  17.401  0.00  0.00    +0.000 OA
ATOM     20  N   UNL     1       8.957   8.635  18.907  0.00  0.00    +0.000 N 
ATOM     21  H   UNL     1       9.711   8.083  19.319  0.00  0.00    +0.000 HD
BRANCH  20  22
ATOM     22  C   UNL     1       9.058  10.034  19.083  0.00  0.00    +0.000 A 
ATOM     23  C   UNL     1       9.638  10.610  20.214  0.00  0.00    +0.000 A 
ATOM     24  C   UNL     1       9.771  11.995  20.317  0.00  0.00    +0.000 A 
ATOM     25  C   UNL     1       9.278  12.820  19.310  0.00  0.00    +0.000 A 
ATOM     26  C   UNL     1       8.673  12.264  18.184  0.00  0.00    +0.000 A 
ATOM     27  C   UNL     1       8.592  10.871  18.055  0.00  0.00    +0.000 A 
ATOM     28  O   UNL     1       8.236  13.027  17.133  0.00  0.00    +0.000 OA
ATOM     29  C   UNL     1       7.207  13.947  17.509  0.00  0.00    +0.000 C 
ATOM     30  C   UNL     1       7.733  15.207  18.187  0.00  0.00    +0.000 C 
ATOM     31  C   UNL     1       8.317  14.901  19.556  0.00  0.00    +0.000 C 
ATOM     32  O   UNL     1       9.528  14.157  19.447  0.00  0.00    +0.000 OA
ENDBRANCH  20  22
ENDBRANCH  17  18
ENDBRANCH   6  17
TORSDOF 4
ENDMDL
MODEL 3
REMARK VINA RESULT:      -8.3      6.681      9.989
REMARK  Name = 
REMARK  5 active torsions:
REMARK  status: ('A' for Active; 'I' for Inactive)
REMARK    1  A    between atoms: C_1  and  C_2
REMARK    2  A    between atoms: C_2  and  C_3
REMARK    3  A    between atoms: N_13  and  C_14
REMARK    4  A    between atoms: C_14  and  C_15
REMARK    5  A    between atoms: N_17  and  C_18
REMARK                            x       y       z     vdW  Elec       q    Type
REMARK                         _______ _______ _______ _____ _____    ______ ____
ROOT
ATOM      1  C   UNL     1       4.256   3.603  18.178  0.00  0.00    +0.000 C 
ATOM      2  C   UNL     1       4.809   5.010  17.988  0.00  0.00    +0.000 C 
ATOM      3  N   UNL     1       5.424   5.125  16.683  0.00  0.00    +0.000 N 
ATOM      4  C   UNL     1       6.654   5.725  16.742  0.00  0.00    +0.000 C 
ATOM      5  O   UNL     1       7.350   5.970  15.771  0.00  0.00    +0.000 OA
ATOM      6  N   UNL     1       6.947   6.000  18.037  0.00  0.00    +0.000 N 
ATOM      7  C   UNL     1       6.065   5.333  18.842  0.00  0.00    +0.000 C 
ATOM      8  O   UNL     1       6.203   5.094  20.036  0.00  0.00    +0.000 OA
ATOM      9  H   UNL     1       4.991   4.886  15.801  0.00  0.00    +0.000 HD
ENDROOT
BRANCH   2  10
ATOM     10  C   UNL     1       3.774   6.101  18.284  0.00  0.00    +0.000 A 
ATOM     11  C   UNL     1       3.056   6.055  19.496  0.00  0.00    +0.000 A 
ATOM     12  C   UNL     1       2.180   7.079  19.859  0.00  0.00    +0.000 A 
ATOM     13  C   UNL     1       2.009   8.168  19.014  0.00  0.00    +0.000 A 
ATOM     14 CL   UNL     1       0.935   9.435  19.459  0.00  0.00    +0.000 Cl
ATOM     15  C   UNL     1       2.711   8.242  17.813  0.00  0.00    +0.000 A 
ATOM     16  C   UNL     1       3.588   7.215  17.449  0.00  0.00    +0.000 A 
ENDBRANCH   2  10
BRANCH   6  17
ATOM     17  C   UNL     1       8.130   6.698  18.489  0.00  0.00    +0.000 C 
BRANCH  17  18
ATOM     18  C   UNL     1       8.115   8.170  18.038  0.00  0.00    +0.000 C 
ATOM     19  O   UNL     1       7.350   8.536  17.148  0.00  0.00    +0.000 OA
ATOM     20  N   UNL     1       8.998   8.992  18.731  0.00  0.00    +0.000 N 
ATOM     21  H   UNL     1       9.713   8.533  19.299  0.00  0.00    +0.000 HD
BRANCH  20  22
ATOM     22  C   UNL     1       9.095  10.399  18.646  0.00  0.00    +0.000 A 
ATOM     23  C   UNL     1       8.274  11.162  17.814  0.00  0.00    +0.000 A 
ATOM     24  C   UNL     1       8.363  12.553  17.809  0.00  0.00    +0.000 A 
ATOM     25  C   UNL     1       9.312  13.194  18.599  0.00  0.00    +0.000 A 
ATOM     26  C   UNL     1      10.159  12.449  19.418  0.00  0.00    +0.000 A 
ATOM     27  C   UNL     1      10.028  11.055  19.467  0.00  0.00    +0.000 A 
ATOM     28  O   UNL     1      11.060  13.034  20.269  0.00  0.00    +0.000 OA
ATOM     29  C   UNL     1      12.043  13.813  19.580  0.00  0.00    +0.000 C 
ATOM     30  C   UNL     1      11.550  15.196  19.173  0.00  0.00    +0.000 C 
ATOM     31  C   UNL     1      10.485  15.114  18.092  0.00  0.00    +0.000 C 
ATOM     32  O   UNL     1       9.274  14.561  18.602  0.00  0.00    +0.000 OA
ENDBRANCH  20  22
ENDBRANCH  17  18
ENDBRANCH   6  17
TORSDOF 4
ENDMDL
MODEL 4
REMARK VINA RESULT:      -8.3      0.923      1.926
REMARK  Name = 
REMARK  5 active torsions:
REMARK  status: ('A' for Active; 'I' for Inactive)
REMARK    1  A    between atoms: C_1  and  C_2
REMARK    2  A    between atoms: C_2  and  C_3
REMARK    3  A    between atoms: N_13  and  C_14
REMARK    4  A    between atoms: C_14  and  C_15
REMARK    5  A    between atoms: N_17  and  C_18
REMARK                            x       y       z     vdW  Elec       q    Type
REMARK                         _______ _______ _______ _____ _____    ______ ____
ROOT
ATOM      1  C   UNL     1      -0.592  13.978  20.190  0.00  0.00    +0.000 C 
ATOM      2  C   UNL     1      -0.871  12.498  20.420  0.00  0.00    +0.000 C 
ATOM      3  N   UNL     1      -1.720  12.331  21.580  0.00  0.00    +0.000 N 
ATOM      4  C   UNL     1      -1.260  11.353  22.422  0.00  0.00    +0.000 C 
ATOM      5  O   UNL     1      -1.823  11.000  23.444  0.00  0.00    +0.000 OA
ATOM      6  N   UNL     1      -0.103  10.853  21.922  0.00  0.00    +0.000 N 
ATOM      7  C   UNL     1       0.347  11.681  20.931  0.00  0.00    +0.000 C 
ATOM      8  O   UNL     1       1.484  11.725  20.476  0.00  0.00    +0.000 OA
ATOM      9  H   UNL     1      -2.603  12.797  21.741  0.00  0.00    +0.000 HD
ENDROOT
BRANCH   2  10
ATOM     10  C   UNL     1      -1.390  11.788  19.165  0.00  0.00    +0.000 A 
ATOM     11  C   UNL     1      -0.629  10.742  18.604  0.00  0.00    +0.000 A 
ATOM     12  C   UNL     1      -1.108   9.996  17.526  0.00  0.00    +0.000 A 
ATOM     13  C   UNL     1      -2.357  10.284  16.991  0.00  0.00    +0.000 A 
ATOM     14 CL   UNL     1      -2.953   9.363  15.666  0.00  0.00    +0.000 Cl
ATOM     15  C   UNL     1      -3.133  11.308  17.530  0.00  0.00    +0.000 A 
ATOM     16  C   UNL     1      -2.653  12.056  18.611  0.00  0.00    +0.000 A 
ENDBRANCH   2  10
BRANCH   6  17
ATOM     17  C   UNL     1       0.642   9.754  22.498  0.00  0.00    +0.000 C 
BRANCH  17  18
ATOM     18  C   UNL     1       0.538   8.492  21.623  0.00  0.00    +0.000 C 
ATOM     19  O   UNL     1      -0.558   8.105  21.224  0.00  0.00    +0.000 OA
ATOM     20  N   UNL     1       1.759   7.890  21.336  0.00  0.00    +0.000 N 
ATOM     21  H   UNL     1       2.566   8.188  21.888  0.00  0.00    +0.000 HD
BRANCH  20  22
ATOM     22  C   UNL     1       1.991   6.821  20.441  0.00  0.00    +0.000 A 
ATOM     23  C   UNL     1       1.498   5.534  20.663  0.00  0.00    +0.000 A 
ATOM     24  C   UNL     1       1.699   4.524  19.722  0.00  0.00    +0.000 A 
ATOM     25  C   UNL     1       2.442   4.779  18.574  0.00  0.00    +0.000 A 
ATOM     26  C   UNL     1       2.965   6.052  18.346  0.00  0.00    +0.000 A 
ATOM     27  C   UNL     1       2.711   7.080  19.264  0.00  0.00    +0.000 A 
ATOM     28  O   UNL     1       3.640   6.374  17.198  0.00  0.00    +0.000 OA
ATOM     29  C   UNL     1       4.836   5.607  17.029  0.00  0.00    +0.000 C 
ATOM     30  C   UNL     1       4.591   4.209  16.475  0.00  0.00    +0.000 C 
ATOM     31  C   UNL     1       3.863   3.331  17.479  0.00  0.00    +0.000 C 
ATOM     32  O   UNL     1       2.517   3.762  17.663  0.00  0.00    +0.000 OA
ENDBRANCH  20  22
ENDBRANCH  17  18
ENDBRANCH   6  17
TORSDOF 4
ENDMDL
MODEL 5
REMARK VINA RESULT:      -8.1      3.582      8.510
REMARK  Name = 
REMARK  5 active torsions:
REMARK  status: ('A' for Active; 'I' for Inactive)
REMARK    1  A    between atoms: C_1  and  C_2
REMARK    2  A    between atoms: C_2  and  C_3
REMARK    3  A    between atoms: N_13  and  C_14
REMARK    4  A    between atoms: C_14  and  C_15
REMARK    5  A    between atoms: N_17  and  C_18
REMARK                            x       y       z     vdW  Elec       q    Type
REMARK                         _______ _______ _______ _____ _____    ______ ____
ROOT
ATOM      1  C   UNL     1       4.582   3.597  16.264  0.00  0.00    +0.000 C 
ATOM      2  C   UNL     1       4.870   4.056  17.688  0.00  0.00    +0.000 C 
ATOM      3  N   UNL     1       5.258   2.922  18.502  0.00  0.00    +0.000 N 
ATOM      4  C   UNL     1       4.601   2.899  19.704  0.00  0.00    +0.000 C 
ATOM      5  O   UNL     1       4.786   2.068  20.576  0.00  0.00    +0.000 OA
ATOM      6  N   UNL     1       3.740   3.945  19.754  0.00  0.00    +0.000 N 
ATOM      7  C   UNL     1       3.615   4.476  18.499  0.00  0.00    +0.000 C 
ATOM      8  O   UNL     1       2.716   5.209  18.103  0.00  0.00    +0.000 OA
ATOM      9  H   UNL     1       5.988   2.257  18.283  0.00  0.00    +0.000 HD
ENDROOT
BRANCH   2  10
ATOM     10  C   UNL     1       5.855   5.227  17.749  0.00  0.00    +0.000 A 
ATOM     11  C   UNL     1       5.578   6.396  17.010  0.00  0.00    +0.000 A 
ATOM     12  C   UNL     1       6.388   7.528  17.114  0.00  0.00    +0.000 A 
ATOM     13  C   UNL     1       7.490   7.509  17.960  0.00  0.00    +0.000 A 
ATOM     14 CL   UNL     1       8.487   8.904  18.095  0.00  0.00    +0.000 Cl
ATOM     15  C   UNL     1       7.783   6.371  18.706  0.00  0.00    +0.000 A 
ATOM     16  C   UNL     1       6.972   5.236  18.602  0.00  0.00    +0.000 A 
ENDBRANCH   2  10
BRANCH   6  17
ATOM     17  C   UNL     1       2.922   4.292  20.895  0.00  0.00    +0.000 C 
BRANCH  17  18
ATOM     18  C   UNL     1       1.870   5.353  20.525  0.00  0.00    +0.000 C 
ATOM     19  O   UNL     1       0.715   5.017  20.272  0.00  0.00    +0.000 OA
ATOM     20  N   UNL     1       2.346   6.660  20.532  0.00  0.00    +0.000 N 
ATOM     21  H   UNL     1       3.360   6.786  20.560  0.00  0.00    +0.000 HD
BRANCH  20  22
ATOM     22  C   UNL     1       1.587   7.843  20.386  0.00  0.00    +0.000 A 
ATOM     23  C   UNL     1       1.637   8.633  19.236  0.00  0.00    +0.000 A 
ATOM     24  C   UNL     1       0.824   9.758  19.111  0.00  0.00    +0.000 A 
ATOM     25  C   UNL     1      -0.011  10.135  20.158  0.00  0.00    +0.000 A 
ATOM     26  C   UNL     1      -0.058   9.374  21.325  0.00  0.00    +0.000 A 
ATOM     27  C   UNL     1       0.716   8.210  21.426  0.00  0.00    +0.000 A 
ATOM     28  O   UNL     1      -0.915   9.660  22.356  0.00  0.00    +0.000 OA
ATOM     29  C   UNL     1      -0.670  10.945  22.935  0.00  0.00    +0.000 C 
ATOM     30  C   UNL     1      -1.267  12.098  22.137  0.00  0.00    +0.000 C 
ATOM     31  C   UNL     1      -0.559  12.280  20.805  0.00  0.00    +0.000 C 
ATOM     32  O   UNL     1      -0.839  11.198  19.920  0.00  0.00    +0.000 OA
ENDBRANCH  20  22
ENDBRANCH  17  18
ENDBRANCH   6  17
TORSDOF 4
ENDMDL
MODEL 6
REMARK VINA RESULT:      -8.0      3.506      8.386
REMARK  Name = 
REMARK  5 active torsions:
REMARK  status: ('A' for Active; 'I' for Inactive)
REMARK    1  A    between atoms: C_1  and  C_2
REMARK    2  A    between atoms: C_2  and  C_3
REMARK    3  A    between atoms: N_13  and  C_14
REMARK    4  A    between atoms: C_14  and  C_15
REMARK    5  A    between atoms: N_17  and  C_18
REMARK                            x       y       z     vdW  Elec       q    Type
REMARK                         _______ _______ _______ _____ _____    ______ ____
ROOT
ATOM      1  C   UNL     1       4.380   3.633  16.330  0.00  0.00    +0.000 C 
ATOM      2  C   UNL     1       4.639   4.093  17.760  0.00  0.00    +0.000 C 
ATOM      3  N   UNL     1       5.119   2.982  18.555  0.00  0.00    +0.000 N 
ATOM      4  C   UNL     1       4.473   2.891  19.760  0.00  0.00    +0.000 C 
ATOM      5  O   UNL     1       4.728   2.065  20.618  0.00  0.00    +0.000 OA
ATOM      6  N   UNL     1       3.533   3.866  19.828  0.00  0.00    +0.000 N 
ATOM      7  C   UNL     1       3.360   4.403  18.582  0.00  0.00    +0.000 C 
ATOM      8  O   UNL     1       2.404   5.069  18.201  0.00  0.00    +0.000 OA
ATOM      9  H   UNL     1       5.897   2.380  18.322  0.00  0.00    +0.000 HD
ENDROOT
BRANCH   2  10
ATOM     10  C   UNL     1       5.530   5.337  17.832  0.00  0.00    +0.000 A 
ATOM     11  C   UNL     1       6.737   5.275  18.560  0.00  0.00    +0.000 A 
ATOM     12  C   UNL     1       7.632   6.346  18.570  0.00  0.00    +0.000 A 
ATOM     13  C   UNL     1       7.336   7.497  17.852  0.00  0.00    +0.000 A 
ATOM     14 CL   UNL     1       8.439   8.816  17.857  0.00  0.00    +0.000 Cl
ATOM     15  C   UNL     1       6.154   7.583  17.119  0.00  0.00    +0.000 A 
ATOM     16  C   UNL     1       5.256   6.510  17.109  0.00  0.00    +0.000 A 
ENDBRANCH   2  10
BRANCH   6  17
ATOM     17  C   UNL     1       2.698   4.132  20.979  0.00  0.00    +0.000 C 
BRANCH  17  18
ATOM     18  C   UNL     1       1.718   5.286  20.701  0.00  0.00    +0.000 C 
ATOM     19  O   UNL     1       0.526   5.052  20.511  0.00  0.00    +0.000 OA
ATOM     20  N   UNL     1       2.300   6.549  20.710  0.00  0.00    +0.000 N 
ATOM     21  H   UNL     1       3.321   6.591  20.678  0.00  0.00    +0.000 HD
BRANCH  20  22
ATOM     22  C   UNL     1       1.634   7.793  20.641  0.00  0.00    +0.000 A 
ATOM     23  C   UNL     1       1.291   8.528  21.777  0.00  0.00    +0.000 A 
ATOM     24  C   UNL     1       0.690   9.780  21.659  0.00  0.00    +0.000 A 
ATOM     25  C   UNL     1       0.379  10.289  20.402  0.00  0.00    +0.000 A 
ATOM     26  C   UNL     1       0.691   9.559  19.255  0.00  0.00    +0.000 A 
ATOM     27  C   UNL     1       1.348   8.328  19.374  0.00  0.00    +0.000 A 
ATOM     28  O   UNL     1       0.472  10.046  17.993  0.00  0.00    +0.000 OA
ATOM     29  C   UNL     1      -0.913  10.295  17.730  0.00  0.00    +0.000 C 
ATOM     30  C   UNL     1      -1.417  11.611  18.310  0.00  0.00    +0.000 C 
ATOM     31  C   UNL     1      -1.446  11.577  19.829  0.00  0.00    +0.000 C 
ATOM     32  O   UNL     1      -0.127  11.559  20.370  0.00  0.00    +0.000 OA
ENDBRANCH  20  22
ENDBRANCH  17  18
ENDBRANCH   6  17
TORSDOF 4
ENDMDL
MODEL 7
REMARK VINA RESULT:      -7.8      1.629      2.232
REMARK  Name = 
REMARK  5 active torsions:
REMARK  status: ('A' for Active; 'I' for Inactive)
REMARK    1  A    between atoms: C_1  and  C_2
REMARK    2  A    between atoms: C_2  and  C_3
REMARK    3  A    between atoms: N_13  and  C_14
REMARK    4  A    between atoms: C_14  and  C_15
REMARK    5  A    between atoms: N_17  and  C_18
REMARK                            x       y       z     vdW  Elec       q    Type
REMARK                         _______ _______ _______ _____ _____    ______ ____
ROOT
ATOM      1  C   UNL     1      -2.727  12.872  19.831  0.00  0.00    +0.000 C 
ATOM      2  C   UNL     1      -1.924  11.713  19.255  0.00  0.00    +0.000 C 
ATOM      3  N   UNL     1      -1.702  10.712  20.277  0.00  0.00    +0.000 N 
ATOM      4  C   UNL     1      -0.399  10.292  20.315  0.00  0.00    +0.000 C 
ATOM      5  O   UNL     1       0.027   9.428  21.062  0.00  0.00    +0.000 OA
ATOM      6  N   UNL     1       0.312  10.982  19.390  0.00  0.00    +0.000 N 
ATOM      7  C   UNL     1      -0.437  12.041  18.954  0.00  0.00    +0.000 C 
ATOM      8  O   UNL     1      -0.025  13.036  18.371  0.00  0.00    +0.000 OA
ATOM      9  H   UNL     1      -2.415  10.284  20.853  0.00  0.00    +0.000 HD
ENDROOT
BRANCH   2  10
ATOM     10  C   UNL     1      -2.529  11.154  17.963  0.00  0.00    +0.000 A 
ATOM     11  C   UNL     1      -3.765  11.657  17.510  0.00  0.00    +0.000 A 
ATOM     12  C   UNL     1      -4.306  11.257  16.287  0.00  0.00    +0.000 A 
ATOM     13  C   UNL     1      -3.618  10.346  15.496  0.00  0.00    +0.000 A 
ATOM     14 CL   UNL     1      -4.279   9.855  13.986  0.00  0.00    +0.000 Cl
ATOM     15  C   UNL     1      -2.392   9.837  15.916  0.00  0.00    +0.000 A 
ATOM     16  C   UNL     1      -1.849  10.238  17.142  0.00  0.00    +0.000 A 
ENDBRANCH   2  10
BRANCH   6  17
ATOM     17  C   UNL     1       1.710  10.764  19.086  0.00  0.00    +0.000 C 
BRANCH  17  18
ATOM     18  C   UNL     1       1.926   9.396  18.412  0.00  0.00    +0.000 C 
ATOM     19  O   UNL     1       1.882   9.296  17.188  0.00  0.00    +0.000 OA
ATOM     20  N   UNL     1       2.182   8.355  19.298  0.00  0.00    +0.000 N 
ATOM     21  H   UNL     1       1.992   8.527  20.287  0.00  0.00    +0.000 HD
BRANCH  20  22
ATOM     22  C   UNL     1       2.568   7.035  18.970  0.00  0.00    +0.000 A 
ATOM     23  C   UNL     1       3.464   6.747  17.939  0.00  0.00    +0.000 A 
ATOM     24  C   UNL     1       3.865   5.435  17.692  0.00  0.00    +0.000 A 
ATOM     25  C   UNL     1       3.331   4.390  18.440  0.00  0.00    +0.000 A 
ATOM     26  C   UNL     1       2.415   4.655  19.458  0.00  0.00    +0.000 A 
ATOM     27  C   UNL     1       2.060   5.979  19.744  0.00  0.00    +0.000 A 
ATOM     28  O   UNL     1       1.916   3.671  20.271  0.00  0.00    +0.000 OA
ATOM     29  C   UNL     1       1.171   2.685  19.550  0.00  0.00    +0.000 C 
ATOM     30  C   UNL     1       2.045   1.647  18.855  0.00  0.00    +0.000 C 
ATOM     31  C   UNL     1       2.834   2.260  17.710  0.00  0.00    +0.000 C 
ATOM     32  O   UNL     1       3.841   3.146  18.194  0.00  0.00    +0.000 OA
ENDBRANCH  20  22
ENDBRANCH  17  18
ENDBRANCH   6  17
TORSDOF 4
ENDMDL
MODEL 8
REMARK VINA RESULT:      -7.8      5.955      9.391
REMARK  Name = 
REMARK  5 active torsions:
REMARK  status: ('A' for Active; 'I' for Inactive)
REMARK    1  A    between atoms: C_1  and  C_2
REMARK    2  A    between atoms: C_2  and  C_3
REMARK    3  A    between atoms: N_13  and  C_14
REMARK    4  A    between atoms: C_14  and  C_15
REMARK    5  A    between atoms: N_17  and  C_18
REMARK                            x       y       z     vdW  Elec       q    Type
REMARK                         _______ _______ _______ _____ _____    ______ ____
ROOT
ATOM      1  C   UNL     1       3.262   3.268  19.046  0.00  0.00    +0.000 C 
ATOM      2  C   UNL     1       3.914   4.537  18.511  0.00  0.00    +0.000 C 
ATOM      3  N   UNL     1       4.072   4.442  17.075  0.00  0.00    +0.000 N 
ATOM      4  C   UNL     1       5.324   4.820  16.666  0.00  0.00    +0.000 C 
ATOM      5  O   UNL     1       5.686   4.863  15.503  0.00  0.00    +0.000 OA
ATOM      6  N   UNL     1       6.064   5.137  17.757  0.00  0.00    +0.000 N 
ATOM      7  C   UNL     1       5.413   4.700  18.878  0.00  0.00    +0.000 C 
ATOM      8  O   UNL     1       5.904   4.532  19.988  0.00  0.00    +0.000 OA
ATOM      9  H   UNL     1       3.342   4.217  16.412  0.00  0.00    +0.000 HD
ENDROOT
BRANCH   2  10
ATOM     10  C   UNL     1       3.200   5.812  18.972  0.00  0.00    +0.000 A 
ATOM     11  C   UNL     1       3.087   6.897  18.078  0.00  0.00    +0.000 A 
ATOM     12  C   UNL     1       2.358   8.039  18.413  0.00  0.00    +0.000 A 
ATOM     13  C   UNL     1       1.727   8.114  19.648  0.00  0.00    +0.000 A 
ATOM     14 CL   UNL     1       0.822   9.516  20.062  0.00  0.00    +0.000 Cl
ATOM     15  C   UNL     1       1.816   7.055  20.548  0.00  0.00    +0.000 A 
ATOM     16  C   UNL     1       2.549   5.910  20.213  0.00  0.00    +0.000 A 
ENDBRANCH   2  10
BRANCH   6  17
ATOM     17  C   UNL     1       7.417   5.649  17.720  0.00  0.00    +0.000 C 
BRANCH  17  18
ATOM     18  C   UNL     1       7.430   7.173  17.497  0.00  0.00    +0.000 C 
ATOM     19  O   UNL     1       6.618   7.693  16.735  0.00  0.00    +0.000 OA
ATOM     20  N   UNL     1       8.395   7.852  18.232  0.00  0.00    +0.000 N 
ATOM     21  H   UNL     1       9.130   7.290  18.667  0.00  0.00    +0.000 HD
BRANCH  20  22
ATOM     22  C   UNL     1       8.545   9.252  18.352  0.00  0.00    +0.000 A 
ATOM     23  C   UNL     1       7.952  10.151  17.464  0.00  0.00    +0.000 A 
ATOM     24  C   UNL     1       8.075  11.526  17.657  0.00  0.00    +0.000 A 
ATOM     25  C   UNL     1       8.839  12.017  18.712  0.00  0.00    +0.000 A 
ATOM     26  C   UNL     1       9.460  11.135  19.595  0.00  0.00    +0.000 A 
ATOM     27  C   UNL     1       9.286   9.754  19.435  0.00  0.00    +0.000 A 
ATOM     28  O   UNL     1      10.162  11.566  20.691  0.00  0.00    +0.000 OA
ATOM     29  C   UNL     1      11.294  12.367  20.341  0.00  0.00    +0.000 C 
ATOM     30  C   UNL     1      10.941  13.814  20.016  0.00  0.00    +0.000 C 
ATOM     31  C   UNL     1      10.145  13.917  18.726  0.00  0.00    +0.000 C 
ATOM     32  O   UNL     1       8.836  13.374  18.882  0.00  0.00    +0.000 OA
ENDBRANCH  20  22
ENDBRANCH  17  18
ENDBRANCH   6  17
TORSDOF 4
ENDMDL
MODEL 9
REMARK VINA RESULT:      -7.7      1.242      1.866
REMARK  Name = 
REMARK  5 active torsions:
REMARK  status: ('A' for Active; 'I' for Inactive)
REMARK    1  A    between atoms: C_1  and  C_2
REMARK    2  A    between atoms: C_2  and  C_3
REMARK    3  A    between atoms: N_13  and  C_14
REMARK    4  A    between atoms: C_14  and  C_15
REMARK    5  A    between atoms: N_17  and  C_18
REMARK                            x       y       z     vdW  Elec       q    Type
REMARK                         _______ _______ _______ _____ _____    ______ ____
ROOT
ATOM      1  C   UNL     1      -1.470  13.696  20.771  0.00  0.00    +0.000 C 
ATOM      2  C   UNL     1      -1.261  12.189  20.702  0.00  0.00    +0.000 C 
ATOM      3  N   UNL     1      -1.733  11.570  21.923  0.00  0.00    +0.000 N 
ATOM      4  C   UNL     1      -0.833  10.668  22.428  0.00  0.00    +0.000 C 
ATOM      5  O   UNL     1      -1.019   9.991  23.424  0.00  0.00    +0.000 OA
ATOM      6  N   UNL     1       0.267  10.656  21.635  0.00  0.00    +0.000 N 
ATOM      7  C   UNL     1       0.220  11.735  20.795  0.00  0.00    +0.000 C 
ATOM      8  O   UNL     1       1.160  12.217  20.173  0.00  0.00    +0.000 OA
ATOM      9  H   UNL     1      -2.648  11.695  22.336  0.00  0.00    +0.000 HD
ENDROOT
BRANCH   2  10
ATOM     10  C   UNL     1      -1.841  11.565  19.428  0.00  0.00    +0.000 A 
ATOM     11  C   UNL     1      -3.100  11.998  18.963  0.00  0.00    +0.000 A 
ATOM     12  C   UNL     1      -3.623  11.537  17.754  0.00  0.00    +0.000 A 
ATOM     13  C   UNL     1      -2.894  10.636  16.989  0.00  0.00    +0.000 A 
ATOM     14 CL   UNL     1      -3.533  10.071  15.495  0.00  0.00    +0.000 Cl
ATOM     15  C   UNL     1      -1.645  10.197  17.421  0.00  0.00    +0.000 A 
ATOM     16  C   UNL     1      -1.120  10.657  18.633  0.00  0.00    +0.000 A 
ENDBRANCH   2  10
BRANCH   6  17
ATOM     17  C   UNL     1       1.403   9.777  21.808  0.00  0.00    +0.000 C 
BRANCH  17  18
ATOM     18  C   UNL     1       1.467   8.723  20.688  0.00  0.00    +0.000 C 
ATOM     19  O   UNL     1       1.410   9.069  19.509  0.00  0.00    +0.000 OA
ATOM     20  N   UNL     1       1.609   7.415  21.138  0.00  0.00    +0.000 N 
ATOM     21  H   UNL     1       1.441   7.244  22.131  0.00  0.00    +0.000 HD
BRANCH  20  22
ATOM     22  C   UNL     1       1.847   6.266  20.351  0.00  0.00    +0.000 A 
ATOM     23  C   UNL     1       1.272   5.026  20.636  0.00  0.00    +0.000 A 
ATOM     24  C   UNL     1       1.486   3.933  19.797  0.00  0.00    +0.000 A 
ATOM     25  C   UNL     1       2.322   4.057  18.691  0.00  0.00    +0.000 A 
ATOM     26  C   UNL     1       2.926   5.280  18.403  0.00  0.00    +0.000 A 
ATOM     27  C   UNL     1       2.662   6.392  19.214  0.00  0.00    +0.000 A 
ATOM     28  O   UNL     1       3.698   5.474  17.287  0.00  0.00    +0.000 OA
ATOM     29  C   UNL     1       4.860   4.640  17.269  0.00  0.00    +0.000 C 
ATOM     30  C   UNL     1       4.581   3.214  16.812  0.00  0.00    +0.000 C 
ATOM     31  C   UNL     1       3.739   2.457  17.825  0.00  0.00    +0.000 C 
ATOM     32  O   UNL     1       2.408   2.965  17.872  0.00  0.00    +0.000 OA
ENDBRANCH  20  22
ENDBRANCH  17  18
ENDBRANCH   6  17
TORSDOF 4
ENDMDL
