MODEL 1
REMARK VINA RESULT:      -7.4      0.000      0.000
REMARK  Name = 
REMARK  5 active torsions:
REMARK  status: ('A' for Active; 'I' for Inactive)
REMARK    1  A    between atoms: C_1  and  N_2
REMARK    2  A    between atoms: C_6  and  C_7
REMARK    3  A    between atoms: C_7  and  C_8
REMARK    4  A    between atoms: C_12  and  N_13
REMARK    5  A    between atoms: C_19  and  C_20
REMARK                            x       y       z     vdW  Elec       q    Type
REMARK                         _______ _______ _______ _____ _____    ______ ____
ROOT
ATOM      1  N   UNL     1      -0.715  11.897  18.766  0.00  0.00    +0.000 N 
ATOM      2  C   UNL     1       0.425  11.038  19.170  0.00  0.00    +0.000 C 
ATOM      3  C   UNL     1       0.111  10.802  20.620  0.00  0.00    +0.000 A 
ATOM      4  C   UNL     1       0.154   9.616  21.328  0.00  0.00    +0.000 A 
ATOM      5  C   UNL     1      -0.510   9.570  22.555  0.00  0.00    +0.000 A 
ATOM      6  C   UNL     1      -1.154  10.710  23.075  0.00  0.00    +0.000 A 
ATOM      7  C   UNL     1      -1.197  11.922  22.354  0.00  0.00    +0.000 A 
ATOM      8  C   UNL     1      -0.589  11.909  21.102  0.00  0.00    +0.000 A 
ATOM      9  C   UNL     1      -0.960  12.718  19.903  0.00  0.00    +0.000 C 
ATOM     10  O   UNL     1      -1.530  13.789  19.956  0.00  0.00    +0.000 OA
ENDROOT
BRANCH   1  15
ATOM     11  C   UNL     1      -4.079  11.262  17.446  0.00  0.00    +0.000 A 
ATOM     12  C   UNL     1      -3.669  10.499  16.345  0.00  0.00    +0.000 A 
ATOM     13  C   UNL     1      -2.454   9.824  16.373  0.00  0.00    +0.000 A 
ATOM     14  C   UNL     1      -1.588  10.003  17.445  0.00  0.00    +0.000 A 
ATOM     15  C   UNL     1      -1.836  11.044  18.352  0.00  0.00    +0.000 A 
ATOM     16  C   UNL     1      -3.139  11.559  18.446  0.00  0.00    +0.000 A 
BRANCH  11  17
ATOM     17  C   UNL     1      -5.512  11.730  17.523  0.00  0.00    +0.000 C 
BRANCH  17  23
ATOM     18  C   UNL     1      -6.047  13.627  19.931  0.00  0.00    +0.000 C 
ATOM     19  N   UNL     1      -6.418  12.241  19.835  0.00  0.00    +0.000 N 
ATOM     20  C   UNL     1      -6.971  11.502  20.835  0.00  0.00    +0.000 A 
ATOM     21  N   UNL     1      -7.164  10.275  20.415  0.00  0.00    +0.000 NA
ATOM     22  N   UNL     1      -6.708  10.201  19.120  0.00  0.00    +0.000 NA
ATOM     23  C   UNL     1      -6.247  11.387  18.773  0.00  0.00    +0.000 A 
ENDBRANCH  17  23
ENDBRANCH  11  17
ENDBRANCH   1  15
BRANCH   7  24
ATOM     24  C   UNL     1      -1.917  13.124  22.881  0.00  0.00    +0.000 C 
ATOM     25  F   UNL     1      -2.268  12.982  24.195  0.00  0.00    +0.000 F 
ATOM     26  F   UNL     1      -1.153  14.252  22.841  0.00  0.00    +0.000 F 
ATOM     27  F   UNL     1      -3.078  13.399  22.236  0.00  0.00    +0.000 F 
ENDBRANCH   7  24
TORSDOF 4
ENDMDL
MODEL 2
REMARK VINA RESULT:      -7.4      0.720      1.012
REMARK  Name = 
REMARK  5 active torsions:
REMARK  status: ('A' for Active; 'I' for Inactive)
REMARK    1  A    between atoms: C_1  and  N_2
REMARK    2  A    between atoms: C_6  and  C_7
REMARK    3  A    between atoms: C_7  and  C_8
REMARK    4  A    between atoms: C_12  and  N_13
REMARK    5  A    between atoms: C_19  and  C_20
REMARK                            x       y       z     vdW  Elec       q    Type
REMARK                         _______ _______ _______ _____ _____    ______ ____
ROOT
ATOM      1  N   UNL     1      -0.499  11.446  18.385  0.00  0.00    +0.000 N 
ATOM      2  C   UNL     1       0.474  10.387  18.747  0.00  0.00    +0.000 C 
ATOM      3  C   UNL     1       0.254  10.284  20.230  0.00  0.00    +0.000 A 
ATOM      4  C   UNL     1       0.119   9.147  21.003  0.00  0.00    +0.000 A 
ATOM      5  C   UNL     1      -0.426   9.293  22.280  0.00  0.00    +0.000 A 
ATOM      6  C   UNL     1      -0.774  10.564  22.780  0.00  0.00    +0.000 A 
ATOM      7  C   UNL     1      -0.634  11.726  21.992  0.00  0.00    +0.000 A 
ATOM      8  C   UNL     1      -0.159  11.532  20.699  0.00  0.00    +0.000 A 
ATOM      9  C   UNL     1      -0.466  12.349  19.486  0.00  0.00    +0.000 C 
ATOM     10  O   UNL     1      -0.799  13.516  19.519  0.00  0.00    +0.000 OA
ENDROOT
BRANCH   1  15
ATOM     11  C   UNL     1      -4.099  11.490  17.679  0.00  0.00    +0.000 A 
ATOM     12  C   UNL     1      -4.022  10.814  16.454  0.00  0.00    +0.000 A 
ATOM     13  C   UNL     1      -2.953   9.965  16.188  0.00  0.00    +0.000 A 
ATOM     14  C   UNL     1      -1.897   9.880  17.086  0.00  0.00    +0.000 A 
ATOM     15  C   UNL     1      -1.803  10.829  18.116  0.00  0.00    +0.000 A 
ATOM     16  C   UNL     1      -2.963  11.518  18.504  0.00  0.00    +0.000 A 
BRANCH  11  17
ATOM     17  C   UNL     1      -5.397  12.155  18.071  0.00  0.00    +0.000 C 
BRANCH  17  23
ATOM     18  C   UNL     1      -7.150  13.241  20.401  0.00  0.00    +0.000 C 
ATOM     19  N   UNL     1      -7.026  11.868  19.992  0.00  0.00    +0.000 N 
ATOM     20  C   UNL     1      -7.576  10.802  20.633  0.00  0.00    +0.000 A 
ATOM     21  N   UNL     1      -7.250   9.698  20.004  0.00  0.00    +0.000 NA
ATOM     22  N   UNL     1      -6.450  10.045  18.941  0.00  0.00    +0.000 NA
ATOM     23  C   UNL     1      -6.306  11.357  18.940  0.00  0.00    +0.000 A 
ENDBRANCH  17  23
ENDBRANCH  11  17
ENDBRANCH   1  15
BRANCH   7  24
ATOM     24  C   UNL     1      -1.043  13.073  22.501  0.00  0.00    +0.000 C 
ATOM     25  F   UNL     1      -2.193  13.521  21.912  0.00  0.00    +0.000 F 
ATOM     26  F   UNL     1      -1.310  13.069  23.837  0.00  0.00    +0.000 F 
ATOM     27  F   UNL     1      -0.129  14.050  22.274  0.00  0.00    +0.000 F 
ENDBRANCH   7  24
TORSDOF 4
ENDMDL
MODEL 3
REMARK VINA RESULT:      -7.3      0.803      1.286
REMARK  Name = 
REMARK  5 active torsions:
REMARK  status: ('A' for Active; 'I' for Inactive)
REMARK    1  A    between atoms: C_1  and  N_2
REMARK    2  A    between atoms: C_6  and  C_7
REMARK    3  A    between atoms: C_7  and  C_8
REMARK    4  A    between atoms: C_12  and  N_13
REMARK    5  A    between atoms: C_19  and  C_20
REMARK                            x       y       z     vdW  Elec       q    Type
REMARK                         _______ _______ _______ _____ _____    ______ ____
ROOT
ATOM      1  N   UNL     1      -0.346  11.394  18.573  0.00  0.00    +0.000 N 
ATOM      2  C   UNL     1       0.589  10.324  18.999  0.00  0.00    +0.000 C 
ATOM      3  C   UNL     1       0.288  10.242  20.468  0.00  0.00    +0.000 A 
ATOM      4  C   UNL     1       0.094   9.116  21.245  0.00  0.00    +0.000 A 
ATOM      5  C   UNL     1      -0.516   9.284  22.489  0.00  0.00    +0.000 A 
ATOM      6  C   UNL     1      -0.871  10.566  22.956  0.00  0.00    +0.000 A 
ATOM      7  C   UNL     1      -0.671  11.717  22.165  0.00  0.00    +0.000 A 
ATOM      8  C   UNL     1      -0.130  11.501  20.901  0.00  0.00    +0.000 A 
ATOM      9  C   UNL     1      -0.359  12.309  19.665  0.00  0.00    +0.000 C 
ATOM     10  O   UNL     1      -0.675  13.481  19.668  0.00  0.00    +0.000 OA
ENDROOT
BRANCH   1  15
ATOM     11  C   UNL     1      -3.874  11.481  17.568  0.00  0.00    +0.000 A 
ATOM     12  C   UNL     1      -3.719  10.715  16.405  0.00  0.00    +0.000 A 
ATOM     13  C   UNL     1      -2.661   9.821  16.290  0.00  0.00    +0.000 A 
ATOM     14  C   UNL     1      -1.684   9.775  17.277  0.00  0.00    +0.000 A 
ATOM     15  C   UNL     1      -1.644  10.793  18.241  0.00  0.00    +0.000 A 
ATOM     16  C   UNL     1      -2.809  11.540  18.481  0.00  0.00    +0.000 A 
BRANCH  11  17
ATOM     17  C   UNL     1      -5.177  12.208  17.802  0.00  0.00    +0.000 C 
BRANCH  17  23
ATOM     18  C   UNL     1      -6.890   9.985  19.145  0.00  0.00    +0.000 C 
ATOM     19  N   UNL     1      -6.481  11.228  19.742  0.00  0.00    +0.000 N 
ATOM     20  C   UNL     1      -6.873  11.683  20.963  0.00  0.00    +0.000 A 
ATOM     21  N   UNL     1      -6.330  12.855  21.187  0.00  0.00    +0.000 NA
ATOM     22  N   UNL     1      -5.584  13.187  20.080  0.00  0.00    +0.000 NA
ATOM     23  C   UNL     1      -5.684  12.208  19.202  0.00  0.00    +0.000 A 
ENDBRANCH  17  23
ENDBRANCH  11  17
ENDBRANCH   1  15
BRANCH   7  24
ATOM     24  C   UNL     1      -1.085  13.076  22.637  0.00  0.00    +0.000 C 
ATOM     25  F   UNL     1      -1.374  13.093  23.973  0.00  0.00    +0.000 F 
ATOM     26  F   UNL     1      -0.104  14.008  22.477  0.00  0.00    +0.000 F 
ATOM     27  F   UNL     1      -2.201  13.555  22.031  0.00  0.00    +0.000 F 
ENDBRANCH   7  24
TORSDOF 4
ENDMDL
MODEL 4
REMARK VINA RESULT:      -7.2      7.146      8.881
REMARK  Name = 
REMARK  5 active torsions:
REMARK  status: ('A' for Active; 'I' for Inactive)
REMARK    1  A    between atoms: C_1  and  N_2
REMARK    2  A    between atoms: C_6  and  C_7
REMARK    3  A    between atoms: C_7  and  C_8
REMARK    4  A    between atoms: C_12  and  N_13
REMARK    5  A    between atoms: C_19  and  C_20
REMARK                            x       y       z     vdW  Elec       q    Type
REMARK                         _______ _______ _______ _____ _____    ______ ____
ROOT
ATOM      1  N   UNL     1       2.780   5.024  17.596  0.00  0.00    +0.000 N 
ATOM      2  C   UNL     1       1.386   4.535  17.734  0.00  0.00    +0.000 C 
ATOM      3  C   UNL     1       1.493   3.702  18.980  0.00  0.00    +0.000 A 
ATOM      4  C   UNL     1       0.640   3.669  20.067  0.00  0.00    +0.000 A 
ATOM      5  C   UNL     1       1.117   3.094  21.247  0.00  0.00    +0.000 A 
ATOM      6  C   UNL     1       2.404   2.522  21.306  0.00  0.00    +0.000 A 
ATOM      7  C   UNL     1       3.274   2.554  20.196  0.00  0.00    +0.000 A 
ATOM      8  C   UNL     1       2.792   3.200  19.062  0.00  0.00    +0.000 A 
ATOM      9  C   UNL     1       3.584   3.931  18.027  0.00  0.00    +0.000 C 
ATOM     10  O   UNL     1       4.750   3.703  17.778  0.00  0.00    +0.000 OA
ENDROOT
BRANCH   1  15
ATOM     11  C   UNL     1       1.942   8.474  18.524  0.00  0.00    +0.000 A 
ATOM     12  C   UNL     1       1.622   8.198  19.860  0.00  0.00    +0.000 A 
ATOM     13  C   UNL     1       2.165   7.087  20.496  0.00  0.00    +0.000 A 
ATOM     14  C   UNL     1       2.928   6.180  19.772  0.00  0.00    +0.000 A 
ATOM     15  C   UNL     1       2.933   6.261  18.371  0.00  0.00    +0.000 A 
ATOM     16  C   UNL     1       2.580   7.479  17.767  0.00  0.00    +0.000 A 
BRANCH  11  17
ATOM     17  C   UNL     1       1.598   9.827  17.950  0.00  0.00    +0.000 C 
BRANCH  17  23
ATOM     18  C   UNL     1       1.042  11.903  20.200  0.00  0.00    +0.000 C 
ATOM     19  N   UNL     1       0.061  11.261  19.367  0.00  0.00    +0.000 N 
ATOM     20  C   UNL     1      -1.288  11.377  19.505  0.00  0.00    +0.000 A 
ATOM     21  N   UNL     1      -1.884  10.647  18.594  0.00  0.00    +0.000 NA
ATOM     22  N   UNL     1      -0.906  10.018  17.857  0.00  0.00    +0.000 NA
ATOM     23  C   UNL     1       0.270  10.382  18.332  0.00  0.00    +0.000 A 
ENDBRANCH  17  23
ENDBRANCH  11  17
ENDBRANCH   1  15
BRANCH   7  24
ATOM     24  C   UNL     1       4.658   1.986  20.266  0.00  0.00    +0.000 C 
ATOM     25  F   UNL     1       4.859   1.000  19.342  0.00  0.00    +0.000 F 
ATOM     26  F   UNL     1       5.619   2.916  20.005  0.00  0.00    +0.000 F 
ATOM     27  F   UNL     1       4.960   1.415  21.460  0.00  0.00    +0.000 F 
ENDBRANCH   7  24
TORSDOF 4
ENDMDL
MODEL 5
REMARK VINA RESULT:      -7.1      7.909      9.786
REMARK  Name = 
REMARK  5 active torsions:
REMARK  status: ('A' for Active; 'I' for Inactive)
REMARK    1  A    between atoms: C_1  and  N_2
REMARK    2  A    between atoms: C_6  and  C_7
REMARK    3  A    between atoms: C_7  and  C_8
REMARK    4  A    between atoms: C_12  and  N_13
REMARK    5  A    between atoms: C_19  and  C_20
REMARK                            x       y       z     vdW  Elec       q    Type
REMARK                         _______ _______ _______ _____ _____    ______ ____
ROOT
ATOM      1  N   UNL     1       3.287   3.999  18.634  0.00  0.00    +0.000 N 
ATOM      2  C   UNL     1       4.305   4.065  19.710  0.00  0.00    +0.000 C 
ATOM      3  C   UNL     1       5.480   4.632  18.964  0.00  0.00    +0.000 A 
ATOM      4  C   UNL     1       6.336   5.646  19.350  0.00  0.00    +0.000 A 
ATOM      5  C   UNL     1       7.124   6.239  18.362  0.00  0.00    +0.000 A 
ATOM      6  C   UNL     1       7.085   5.780  17.030  0.00  0.00    +0.000 A 
ATOM      7  C   UNL     1       6.213   4.743  16.636  0.00  0.00    +0.000 A 
ATOM      8  C   UNL     1       5.389   4.228  17.632  0.00  0.00    +0.000 A 
ATOM      9  C   UNL     1       4.024   3.642  17.469  0.00  0.00    +0.000 C 
ATOM     10  O   UNL     1       3.622   3.132  16.443  0.00  0.00    +0.000 OA
ENDROOT
BRANCH   1  15
ATOM     11  C   UNL     1       2.110   7.209  19.965  0.00  0.00    +0.000 A 
ATOM     12  C   UNL     1       2.756   8.013  19.017  0.00  0.00    +0.000 A 
ATOM     13  C   UNL     1       3.080   7.499  17.766  0.00  0.00    +0.000 A 
ATOM     14  C   UNL     1       2.874   6.152  17.498  0.00  0.00    +0.000 A 
ATOM     15  C   UNL     1       2.581   5.284  18.561  0.00  0.00    +0.000 A 
ATOM     16  C   UNL     1       2.049   5.824  19.743  0.00  0.00    +0.000 A 
BRANCH  11  17
ATOM     17  C   UNL     1       1.498   7.857  21.184  0.00  0.00    +0.000 C 
BRANCH  17  23
ATOM     18  C   UNL     1      -0.003   9.543  23.326  0.00  0.00    +0.000 C 
ATOM     19  N   UNL     1       0.024   9.788  21.910  0.00  0.00    +0.000 N 
ATOM     20  C   UNL     1      -0.699  10.741  21.260  0.00  0.00    +0.000 A 
ATOM     21  N   UNL     1      -0.451  10.676  19.975  0.00  0.00    +0.000 NA
ATOM     22  N   UNL     1       0.436   9.644  19.772  0.00  0.00    +0.000 NA
ATOM     23  C   UNL     1       0.714   9.100  20.941  0.00  0.00    +0.000 A 
ENDBRANCH  17  23
ENDBRANCH  11  17
ENDBRANCH   1  15
BRANCH   7  24
ATOM     24  C   UNL     1       6.135   4.281  15.214  0.00  0.00    +0.000 C 
ATOM     25  F   UNL     1       7.226   4.665  14.485  0.00  0.00    +0.000 F 
ATOM     26  F   UNL     1       6.100   2.923  15.105  0.00  0.00    +0.000 F 
ATOM     27  F   UNL     1       5.068   4.769  14.532  0.00  0.00    +0.000 F 
ENDBRANCH   7  24
TORSDOF 4
ENDMDL
MODEL 6
REMARK VINA RESULT:      -7.1      7.157      8.984
REMARK  Name = 
REMARK  5 active torsions:
REMARK  status: ('A' for Active; 'I' for Inactive)
REMARK    1  A    between atoms: C_1  and  N_2
REMARK    2  A    between atoms: C_6  and  C_7
REMARK    3  A    between atoms: C_7  and  C_8
REMARK    4  A    between atoms: C_12  and  N_13
REMARK    5  A    between atoms: C_19  and  C_20
REMARK                            x       y       z     vdW  Elec       q    Type
REMARK                         _______ _______ _______ _____ _____    ______ ____
ROOT
ATOM      1  N   UNL     1       2.810   4.971  17.560  0.00  0.00    +0.000 N 
ATOM      2  C   UNL     1       1.414   4.492  17.702  0.00  0.00    +0.000 C 
ATOM      3  C   UNL     1       1.512   3.683  18.965  0.00  0.00    +0.000 A 
ATOM      4  C   UNL     1       0.655   3.676  20.050  0.00  0.00    +0.000 A 
ATOM      5  C   UNL     1       1.126   3.123  21.242  0.00  0.00    +0.000 A 
ATOM      6  C   UNL     1       2.409   2.544  21.317  0.00  0.00    +0.000 A 
ATOM      7  C   UNL     1       3.283   2.549  20.210  0.00  0.00    +0.000 A 
ATOM      8  C   UNL     1       2.808   3.176  19.062  0.00  0.00    +0.000 A 
ATOM      9  C   UNL     1       3.607   3.881  18.015  0.00  0.00    +0.000 C 
ATOM     10  O   UNL     1       4.773   3.642  17.774  0.00  0.00    +0.000 OA
ENDROOT
BRANCH   1  15
ATOM     11  C   UNL     1       1.967   8.431  18.441  0.00  0.00    +0.000 A 
ATOM     12  C   UNL     1       1.669   8.177  19.786  0.00  0.00    +0.000 A 
ATOM     13  C   UNL     1       2.229   7.080  20.433  0.00  0.00    +0.000 A 
ATOM     14  C   UNL     1       2.986   6.165  19.713  0.00  0.00    +0.000 A 
ATOM     15  C   UNL     1       2.968   6.222  18.311  0.00  0.00    +0.000 A 
ATOM     16  C   UNL     1       2.599   7.426  17.691  0.00  0.00    +0.000 A 
BRANCH  11  17
ATOM     17  C   UNL     1       1.605   9.772  17.848  0.00  0.00    +0.000 C 
BRANCH  17  23
ATOM     18  C   UNL     1      -1.484  10.058  17.617  0.00  0.00    +0.000 C 
ATOM     19  N   UNL     1      -0.624  10.778  18.516  0.00  0.00    +0.000 N 
ATOM     20  C   UNL     1      -1.013  11.788  19.341  0.00  0.00    +0.000 A 
ATOM     21  N   UNL     1       0.026  12.232  20.007  0.00  0.00    +0.000 NA
ATOM     22  N   UNL     1       1.124  11.515  19.594  0.00  0.00    +0.000 NA
ATOM     23  C   UNL     1       0.733  10.643  18.684  0.00  0.00    +0.000 A 
ENDBRANCH  17  23
ENDBRANCH  11  17
ENDBRANCH   1  15
BRANCH   7  24
ATOM     24  C   UNL     1       4.663   1.975  20.296  0.00  0.00    +0.000 C 
ATOM     25  F   UNL     1       4.868   0.983  19.378  0.00  0.00    +0.000 F 
ATOM     26  F   UNL     1       5.631   2.899  20.038  0.00  0.00    +0.000 F 
ATOM     27  F   UNL     1       4.952   1.410  21.495  0.00  0.00    +0.000 F 
ENDBRANCH   7  24
TORSDOF 4
ENDMDL
MODEL 7
REMARK VINA RESULT:      -7.0      1.756      2.378
REMARK  Name = 
REMARK  5 active torsions:
REMARK  status: ('A' for Active; 'I' for Inactive)
REMARK    1  A    between atoms: C_1  and  N_2
REMARK    2  A    between atoms: C_6  and  C_7
REMARK    3  A    between atoms: C_7  and  C_8
REMARK    4  A    between atoms: C_12  and  N_13
REMARK    5  A    between atoms: C_19  and  C_20
REMARK                            x       y       z     vdW  Elec       q    Type
REMARK                         _______ _______ _______ _____ _____    ______ ____
ROOT
ATOM      1  N   UNL     1      -1.562  12.296  19.165  0.00  0.00    +0.000 N 
ATOM      2  C   UNL     1      -0.288  12.346  18.406  0.00  0.00    +0.000 C 
ATOM      3  C   UNL     1       0.455  11.188  19.011  0.00  0.00    +0.000 A 
ATOM      4  C   UNL     1       1.174  10.198  18.369  0.00  0.00    +0.000 A 
ATOM      5  C   UNL     1       1.477   9.044  19.094  0.00  0.00    +0.000 A 
ATOM      6  C   UNL     1       1.107   8.920  20.448  0.00  0.00    +0.000 A 
ATOM      7  C   UNL     1       0.375   9.932  21.105  0.00  0.00    +0.000 A 
ATOM      8  C   UNL     1       0.027  11.033  20.330  0.00  0.00    +0.000 A 
ATOM      9  C   UNL     1      -1.177  11.906  20.479  0.00  0.00    +0.000 C 
ATOM     10  O   UNL     1      -1.776  12.063  21.523  0.00  0.00    +0.000 OA
ENDROOT
BRANCH   1  15
ATOM     11  C   UNL     1      -4.728  11.404  17.539  0.00  0.00    +0.000 A 
ATOM     12  C   UNL     1      -4.169  11.048  16.304  0.00  0.00    +0.000 A 
ATOM     13  C   UNL     1      -2.845  10.630  16.228  0.00  0.00    +0.000 A 
ATOM     14  C   UNL     1      -2.037  10.683  17.358  0.00  0.00    +0.000 A 
ATOM     15  C   UNL     1      -2.490  11.386  18.485  0.00  0.00    +0.000 A 
ATOM     16  C   UNL     1      -3.870  11.602  18.633  0.00  0.00    +0.000 A 
BRANCH  11  17
ATOM     17  C   UNL     1      -6.225  11.557  17.651  0.00  0.00    +0.000 C 
BRANCH  17  23
ATOM     18  C   UNL     1      -7.620  13.159  19.926  0.00  0.00    +0.000 C 
ATOM     19  N   UNL     1      -7.413  11.736  19.884  0.00  0.00    +0.000 N 
ATOM     20  C   UNL     1      -7.700  10.868  20.891  0.00  0.00    +0.000 A 
ATOM     21  N   UNL     1      -7.372   9.652  20.526  0.00  0.00    +0.000 NA
ATOM     22  N   UNL     1      -6.836   9.727  19.261  0.00  0.00    +0.000 NA
ATOM     23  C   UNL     1      -6.851  10.989  18.877  0.00  0.00    +0.000 A 
ENDBRANCH  17  23
ENDBRANCH  11  17
ENDBRANCH   1  15
BRANCH   7  24
ATOM     24  C   UNL     1      -0.058   9.787  22.531  0.00  0.00    +0.000 C 
ATOM     25  F   UNL     1      -1.140   8.961  22.661  0.00  0.00    +0.000 F 
ATOM     26  F   UNL     1       0.906   9.232  23.318  0.00  0.00    +0.000 F 
ATOM     27  F   UNL     1      -0.435  10.953  23.114  0.00  0.00    +0.000 F 
ENDBRANCH   7  24
TORSDOF 4
ENDMDL
MODEL 8
REMARK VINA RESULT:      -7.0      0.668      1.209
REMARK  Name = 
REMARK  5 active torsions:
REMARK  status: ('A' for Active; 'I' for Inactive)
REMARK    1  A    between atoms: C_1  and  N_2
REMARK    2  A    between atoms: C_6  and  C_7
REMARK    3  A    between atoms: C_7  and  C_8
REMARK    4  A    between atoms: C_12  and  N_13
REMARK    5  A    between atoms: C_19  and  C_20
REMARK                            x       y       z     vdW  Elec       q    Type
REMARK                         _______ _______ _______ _____ _____    ______ ____
ROOT
ATOM      1  N   UNL     1      -0.983  12.244  18.968  0.00  0.00    +0.000 N 
ATOM      2  C   UNL     1       0.274  11.553  19.346  0.00  0.00    +0.000 C 
ATOM      3  C   UNL     1      -0.008  11.201  20.779  0.00  0.00    +0.000 A 
ATOM      4  C   UNL     1       0.214  10.002  21.430  0.00  0.00    +0.000 A 
ATOM      5  C   UNL     1      -0.443   9.793  22.644  0.00  0.00    +0.000 A 
ATOM      6  C   UNL     1      -1.260  10.793  23.209  0.00  0.00    +0.000 A 
ATOM      7  C   UNL     1      -1.486  12.018  22.546  0.00  0.00    +0.000 A 
ATOM      8  C   UNL     1      -0.875  12.160  21.304  0.00  0.00    +0.000 A 
ATOM      9  C   UNL     1      -1.360  12.960  20.139  0.00  0.00    +0.000 C 
ATOM     10  O   UNL     1      -2.090  13.926  20.235  0.00  0.00    +0.000 OA
ENDROOT
BRANCH   1  15
ATOM     11  C   UNL     1      -4.182  11.163  17.531  0.00  0.00    +0.000 A 
ATOM     12  C   UNL     1      -3.634  10.502  16.423  0.00  0.00    +0.000 A 
ATOM     13  C   UNL     1      -2.335  10.011  16.471  0.00  0.00    +0.000 A 
ATOM     14  C   UNL     1      -1.533  10.283  17.573  0.00  0.00    +0.000 A 
ATOM     15  C   UNL     1      -1.955  11.249  18.499  0.00  0.00    +0.000 A 
ATOM     16  C   UNL     1      -3.322  11.565  18.566  0.00  0.00    +0.000 A 
BRANCH  11  17
ATOM     17  C   UNL     1      -5.670  11.414  17.576  0.00  0.00    +0.000 C 
BRANCH  17  23
ATOM     18  C   UNL     1      -6.987   9.346  19.492  0.00  0.00    +0.000 C 
ATOM     19  N   UNL     1      -6.864  10.762  19.715  0.00  0.00    +0.000 N 
ATOM     20  C   UNL     1      -7.406  11.445  20.759  0.00  0.00    +0.000 A 
ATOM     21  N   UNL     1      -7.116  12.719  20.645  0.00  0.00    +0.000 NA
ATOM     22  N   UNL     1      -6.388  12.879  19.488  0.00  0.00    +0.000 NA
ATOM     23  C   UNL     1      -6.245  11.696  18.921  0.00  0.00    +0.000 A 
ENDBRANCH  17  23
ENDBRANCH  11  17
ENDBRANCH   1  15
BRANCH   7  24
ATOM     24  C   UNL     1      -2.387  13.067  23.120  0.00  0.00    +0.000 C 
ATOM     25  F   UNL     1      -2.718  12.808  24.421  0.00  0.00    +0.000 F 
ATOM     26  F   UNL     1      -1.809  14.300  23.142  0.00  0.00    +0.000 F 
ATOM     27  F   UNL     1      -3.574  13.188  22.473  0.00  0.00    +0.000 F 
ENDBRANCH   7  24
TORSDOF 4
ENDMDL
MODEL 9
REMARK VINA RESULT:      -7.0      6.524      8.438
REMARK  Name = 
REMARK  5 active torsions:
REMARK  status: ('A' for Active; 'I' for Inactive)
REMARK    1  A    between atoms: C_1  and  N_2
REMARK    2  A    between atoms: C_6  and  C_7
REMARK    3  A    between atoms: C_7  and  C_8
REMARK    4  A    between atoms: C_12  and  N_13
REMARK    5  A    between atoms: C_19  and  C_20
REMARK                            x       y       z     vdW  Elec       q    Type
REMARK                         _______ _______ _______ _____ _____    ______ ____
ROOT
ATOM      1  N   UNL     1       3.332   6.350  19.945  0.00  0.00    +0.000 N 
ATOM      2  C   UNL     1       4.508   6.014  19.105  0.00  0.00    +0.000 C 
ATOM      3  C   UNL     1       4.028   4.764  18.422  0.00  0.00    +0.000 A 
ATOM      4  C   UNL     1       4.128   4.422  17.086  0.00  0.00    +0.000 A 
ATOM      5  C   UNL     1       3.311   3.390  16.620  0.00  0.00    +0.000 A 
ATOM      6  C   UNL     1       2.456   2.689  17.495  0.00  0.00    +0.000 A 
ATOM      7  C   UNL     1       2.356   3.037  18.859  0.00  0.00    +0.000 A 
ATOM      8  C   UNL     1       3.129   4.118  19.271  0.00  0.00    +0.000 A 
ATOM      9  C   UNL     1       2.825   5.088  20.366  0.00  0.00    +0.000 C 
ATOM     10  O   UNL     1       2.118   4.835  21.320  0.00  0.00    +0.000 OA
ENDROOT
BRANCH   1  15
ATOM     11  C   UNL     1       1.100   9.210  19.396  0.00  0.00    +0.000 A 
ATOM     12  C   UNL     1       1.794   9.735  18.298  0.00  0.00    +0.000 A 
ATOM     13  C   UNL     1       2.586   8.909  17.508  0.00  0.00    +0.000 A 
ATOM     14  C   UNL     1       2.788   7.585  17.878  0.00  0.00    +0.000 A 
ATOM     15  C   UNL     1       2.402   7.172  19.162  0.00  0.00    +0.000 A 
ATOM     16  C   UNL     1       1.432   7.922  19.847  0.00  0.00    +0.000 A 
BRANCH  11  17
ATOM     17  C   UNL     1       0.021  10.039  20.049  0.00  0.00    +0.000 C 
BRANCH  17  23
ATOM     18  C   UNL     1      -0.814  12.660  18.594  0.00  0.00    +0.000 C 
ATOM     19  N   UNL     1       0.055  12.555  19.735  0.00  0.00    +0.000 N 
ATOM     20  C   UNL     1       0.743  13.583  20.300  0.00  0.00    +0.000 A 
ATOM     21  N   UNL     1       1.450  13.134  21.308  0.00  0.00    +0.000 NA
ATOM     22  N   UNL     1       1.240  11.777  21.394  0.00  0.00    +0.000 NA
ATOM     23  C   UNL     1       0.404  11.426  20.435  0.00  0.00    +0.000 A 
ENDBRANCH  17  23
ENDBRANCH  11  17
ENDBRANCH   1  15
BRANCH   7  24
ATOM     24  C   UNL     1       1.418   2.325  19.784  0.00  0.00    +0.000 C 
ATOM     25  F   UNL     1       1.032   1.109  19.293  0.00  0.00    +0.000 F 
ATOM     26  F   UNL     1       1.981   2.054  20.994  0.00  0.00    +0.000 F 
ATOM     27  F   UNL     1       0.260   2.993  20.016  0.00  0.00    +0.000 F 
ENDBRANCH   7  24
TORSDOF 4
ENDMDL
