MODEL 1
REMARK VINA RESULT:      -8.8      0.000      0.000
REMARK  Name = 
REMARK  2 active torsions:
REMARK  status: ('A' for Active; 'I' for Inactive)
REMARK    1  A    between atoms: C_2  and  C_14
REMARK    2  A    between atoms: N_3  and  C_4
REMARK                            x       y       z     vdW  Elec       q    Type
REMARK                         _______ _______ _______ _____ _____    ______ ____
ROOT
ATOM      1  O   UNL     1       1.825   8.696  17.700  0.00  0.00    +0.000 OA
ATOM      2  C   UNL     1       1.953   8.228  18.826  0.00  0.00    +0.000 C 
ATOM      3  N   UNL     1       2.622   7.061  19.157  0.00  0.00    +0.000 N 
ATOM      4  H   UNL     1       2.455   6.668  20.075  0.00  0.00    +0.000 HD
ENDROOT
BRANCH   3   5
ATOM      5  C   UNL     1       3.358   6.271  18.236  0.00  0.00    +0.000 A 
ATOM      6  C   UNL     1       3.023   4.916  17.974  0.00  0.00    +0.000 A 
ATOM      7  C   UNL     1       3.759   4.119  17.091  0.00  0.00    +0.000 A 
ATOM      8  C   UNL     1       4.821   4.718  16.473  0.00  0.00    +0.000 A 
ATOM      9  N   UNL     1       5.723   4.186  15.562  0.00  0.00    +0.000 N 
ATOM     10  C   UNL     1       6.642   5.181  15.208  0.00  0.00    +0.000 A 
ATOM     11  O   UNL     1       7.573   5.067  14.432  0.00  0.00    +0.000 OA
ATOM     12  N   UNL     1       6.278   6.336  15.921  0.00  0.00    +0.000 N 
ATOM     13  C   UNL     1       5.156   6.051  16.698  0.00  0.00    +0.000 A 
ATOM     14  C   UNL     1       4.443   6.857  17.563  0.00  0.00    +0.000 A 
ATOM     15  H   UNL     1       5.742   3.245  15.203  0.00  0.00    +0.000 HD
ATOM     16  H   UNL     1       6.780   7.205  15.857  0.00  0.00    +0.000 HD
ENDBRANCH   3   5
BRANCH   2  17
ATOM     17  C   UNL     1       1.266   8.960  19.922  0.00  0.00    +0.000 A 
ATOM     18  C   UNL     1       1.319   8.380  21.196  0.00  0.00    +0.000 A 
ATOM     19  C   UNL     1       0.593   8.924  22.251  0.00  0.00    +0.000 A 
ATOM     20  C   UNL     1      -0.212  10.048  22.046  0.00  0.00    +0.000 A 
ATOM     21  C   UNL     1      -0.979  10.571  23.097  0.00  0.00    +0.000 A 
ATOM     22  C   UNL     1      -1.806  11.673  22.893  0.00  0.00    +0.000 A 
ATOM     23  C   UNL     1      -1.873  12.266  21.635  0.00  0.00    +0.000 A 
ATOM     24  C   UNL     1      -1.112  11.758  20.578  0.00  0.00    +0.000 A 
ATOM     25  C   UNL     1      -0.272  10.646  20.762  0.00  0.00    +0.000 A 
ATOM     26  C   UNL     1       0.479  10.096  19.704  0.00  0.00    +0.000 A 
ENDBRANCH   2  17
TORSDOF 2
ENDMDL
MODEL 2
REMARK VINA RESULT:      -8.6      0.710      1.583
REMARK  Name = 
REMARK  2 active torsions:
REMARK  status: ('A' for Active; 'I' for Inactive)
REMARK    1  A    between atoms: C_2  and  C_14
REMARK    2  A    between atoms: N_3  and  C_4
REMARK                            x       y       z     vdW  Elec       q    Type
REMARK                         _______ _______ _______ _____ _____    ______ ____
ROOT
ATOM      1  O   UNL     1       2.313   9.001  17.157  0.00  0.00    +0.000 OA
ATOM      2  C   UNL     1       2.013   8.533  18.249  0.00  0.00    +0.000 C 
ATOM      3  N   UNL     1       2.352   7.277  18.724  0.00  0.00    +0.000 N 
ATOM      4  H   UNL     1       1.852   6.929  19.533  0.00  0.00    +0.000 HD
ENDROOT
BRANCH   3   5
ATOM      5  C   UNL     1       3.198   6.365  18.041  0.00  0.00    +0.000 A 
ATOM      6  C   UNL     1       2.878   4.986  17.926  0.00  0.00    +0.000 A 
ATOM      7  C   UNL     1       3.718   4.072  17.282  0.00  0.00    +0.000 A 
ATOM      8  C   UNL     1       4.870   4.578  16.748  0.00  0.00    +0.000 A 
ATOM      9  N   UNL     1       5.885   3.922  16.063  0.00  0.00    +0.000 N 
ATOM     10  C   UNL     1       6.864   4.858  15.711  0.00  0.00    +0.000 A 
ATOM     11  O   UNL     1       7.896   4.636  15.103  0.00  0.00    +0.000 OA
ATOM     12  N   UNL     1       6.424   6.103  16.193  0.00  0.00    +0.000 N 
ATOM     13  C   UNL     1       5.196   5.930  16.829  0.00  0.00    +0.000 A 
ATOM     14  C   UNL     1       4.381   6.850  17.458  0.00  0.00    +0.000 A 
ATOM     15  H   UNL     1       5.937   2.940  15.846  0.00  0.00    +0.000 HD
ATOM     16  H   UNL     1       6.947   6.954  16.081  0.00  0.00    +0.000 HD
ENDBRANCH   3   5
BRANCH   2  17
ATOM     17  C   UNL     1       1.150   9.382  19.111  0.00  0.00    +0.000 A 
ATOM     18  C   UNL     1       0.893  10.682  18.659  0.00  0.00    +0.000 A 
ATOM     19  C   UNL     1       0.208  11.588  19.464  0.00  0.00    +0.000 A 
ATOM     20  C   UNL     1      -0.217  11.215  20.741  0.00  0.00    +0.000 A 
ATOM     21  C   UNL     1      -0.868  12.139  21.570  0.00  0.00    +0.000 A 
ATOM     22  C   UNL     1      -1.269  11.782  22.855  0.00  0.00    +0.000 A 
ATOM     23  C   UNL     1      -1.025  10.493  23.325  0.00  0.00    +0.000 A 
ATOM     24  C   UNL     1      -0.380   9.559  22.509  0.00  0.00    +0.000 A 
ATOM     25  C   UNL     1       0.034   9.900  21.210  0.00  0.00    +0.000 A 
ATOM     26  C   UNL     1       0.715   8.986  20.381  0.00  0.00    +0.000 A 
ENDBRANCH   2  17
TORSDOF 2
ENDMDL
MODEL 3
REMARK VINA RESULT:      -8.5      6.426      8.391
REMARK  Name = 
REMARK  2 active torsions:
REMARK  status: ('A' for Active; 'I' for Inactive)
REMARK    1  A    between atoms: C_2  and  C_14
REMARK    2  A    between atoms: N_3  and  C_4
REMARK                            x       y       z     vdW  Elec       q    Type
REMARK                         _______ _______ _______ _____ _____    ______ ____
ROOT
ATOM      1  O   UNL     1       7.279   9.422  17.481  0.00  0.00    +0.000 OA
ATOM      2  C   UNL     1       8.209   9.014  18.167  0.00  0.00    +0.000 C 
ATOM      3  N   UNL     1       8.395   7.712  18.604  0.00  0.00    +0.000 N 
ATOM      4  H   UNL     1       9.064   7.557  19.348  0.00  0.00    +0.000 HD
ENDROOT
BRANCH   3   5
ATOM      5  C   UNL     1       7.572   6.618  18.231  0.00  0.00    +0.000 A 
ATOM      6  C   UNL     1       7.420   6.222  16.875  0.00  0.00    +0.000 A 
ATOM      7  C   UNL     1       6.588   5.165  16.492  0.00  0.00    +0.000 A 
ATOM      8  C   UNL     1       5.931   4.513  17.497  0.00  0.00    +0.000 A 
ATOM      9  N   UNL     1       5.049   3.444  17.424  0.00  0.00    +0.000 N 
ATOM     10  C   UNL     1       4.629   3.120  18.719  0.00  0.00    +0.000 A 
ATOM     11  O   UNL     1       3.853   2.234  19.031  0.00  0.00    +0.000 OA
ATOM     12  N   UNL     1       5.277   4.014  19.588  0.00  0.00    +0.000 N 
ATOM     13  C   UNL     1       6.080   4.869  18.836  0.00  0.00    +0.000 A 
ATOM     14  C   UNL     1       6.898   5.907  19.238  0.00  0.00    +0.000 A 
ATOM     15  H   UNL     1       4.740   2.965  16.593  0.00  0.00    +0.000 HD
ATOM     16  H   UNL     1       5.148   4.006  20.585  0.00  0.00    +0.000 HD
ENDBRANCH   3   5
BRANCH   2  17
ATOM     17  C   UNL     1       9.189  10.035  18.619  0.00  0.00    +0.000 A 
ATOM     18  C   UNL     1       9.236  10.298  19.994  0.00  0.00    +0.000 A 
ATOM     19  C   UNL     1      10.026  11.331  20.490  0.00  0.00    +0.000 A 
ATOM     20  C   UNL     1      10.769  12.130  19.618  0.00  0.00    +0.000 A 
ATOM     21  C   UNL     1      11.531  13.199  20.112  0.00  0.00    +0.000 A 
ATOM     22  C   UNL     1      12.251  14.017  19.245  0.00  0.00    +0.000 A 
ATOM     23  C   UNL     1      12.221  13.773  17.874  0.00  0.00    +0.000 A 
ATOM     24  C   UNL     1      11.469  12.709  17.367  0.00  0.00    +0.000 A 
ATOM     25  C   UNL     1      10.734  11.873  18.224  0.00  0.00    +0.000 A 
ATOM     26  C   UNL     1       9.943  10.814  17.734  0.00  0.00    +0.000 A 
ENDBRANCH   2  17
TORSDOF 2
ENDMDL
MODEL 4
REMARK VINA RESULT:      -8.2      5.639      7.965
REMARK  Name = 
REMARK  2 active torsions:
REMARK  status: ('A' for Active; 'I' for Inactive)
REMARK    1  A    between atoms: C_2  and  C_14
REMARK    2  A    between atoms: N_3  and  C_4
REMARK                            x       y       z     vdW  Elec       q    Type
REMARK                         _______ _______ _______ _____ _____    ______ ____
ROOT
ATOM      1  O   UNL     1       8.682   7.580  18.997  0.00  0.00    +0.000 OA
ATOM      2  C   UNL     1       8.133   8.401  18.270  0.00  0.00    +0.000 C 
ATOM      3  N   UNL     1       7.154   8.134  17.326  0.00  0.00    +0.000 N 
ATOM      4  H   UNL     1       6.955   8.851  16.640  0.00  0.00    +0.000 HD
ENDROOT
BRANCH   3   5
ATOM      5  C   UNL     1       6.562   6.859  17.126  0.00  0.00    +0.000 A 
ATOM      6  C   UNL     1       7.283   5.778  16.554  0.00  0.00    +0.000 A 
ATOM      7  C   UNL     1       6.701   4.527  16.324  0.00  0.00    +0.000 A 
ATOM      8  C   UNL     1       5.393   4.388  16.694  0.00  0.00    +0.000 A 
ATOM      9  N   UNL     1       4.561   3.282  16.588  0.00  0.00    +0.000 N 
ATOM     10  C   UNL     1       3.302   3.618  17.099  0.00  0.00    +0.000 A 
ATOM     11  O   UNL     1       2.327   2.891  17.163  0.00  0.00    +0.000 OA
ATOM     12  N   UNL     1       3.384   4.955  17.524  0.00  0.00    +0.000 N 
ATOM     13  C   UNL     1       4.671   5.428  17.277  0.00  0.00    +0.000 A 
ATOM     14  C   UNL     1       5.226   6.670  17.515  0.00  0.00    +0.000 A 
ATOM     15  H   UNL     1       4.795   2.379  16.208  0.00  0.00    +0.000 HD
ATOM     16  H   UNL     1       2.610   5.454  17.929  0.00  0.00    +0.000 HD
ENDBRANCH   3   5
BRANCH   2  17
ATOM     17  C   UNL     1       8.616   9.802  18.379  0.00  0.00    +0.000 A 
ATOM     18  C   UNL     1       8.016  10.743  17.534  0.00  0.00    +0.000 A 
ATOM     19  C   UNL     1       8.497  12.047  17.473  0.00  0.00    +0.000 A 
ATOM     20  C   UNL     1       9.598  12.429  18.244  0.00  0.00    +0.000 A 
ATOM     21  C   UNL     1      10.112  13.730  18.151  0.00  0.00    +0.000 A 
ATOM     22  C   UNL     1      11.227  14.108  18.895  0.00  0.00    +0.000 A 
ATOM     23  C   UNL     1      11.838  13.189  19.745  0.00  0.00    +0.000 A 
ATOM     24  C   UNL     1      11.336  11.889  19.851  0.00  0.00    +0.000 A 
ATOM     25  C   UNL     1      10.213  11.487  19.107  0.00  0.00    +0.000 A 
ATOM     26  C   UNL     1       9.708  10.172  19.173  0.00  0.00    +0.000 A 
ENDBRANCH   2  17
TORSDOF 2
ENDMDL
MODEL 5
REMARK VINA RESULT:      -8.2      6.515      8.306
REMARK  Name = 
REMARK  2 active torsions:
REMARK  status: ('A' for Active; 'I' for Inactive)
REMARK    1  A    between atoms: C_2  and  C_14
REMARK    2  A    between atoms: N_3  and  C_4
REMARK                            x       y       z     vdW  Elec       q    Type
REMARK                         _______ _______ _______ _____ _____    ______ ____
ROOT
ATOM      1  O   UNL     1       9.084   9.614  19.691  0.00  0.00    +0.000 OA
ATOM      2  C   UNL     1       8.852   9.909  18.525  0.00  0.00    +0.000 C 
ATOM      3  N   UNL     1       8.251   9.096  17.577  0.00  0.00    +0.000 N 
ATOM      4  H   UNL     1       8.330   9.368  16.605  0.00  0.00    +0.000 HD
ENDROOT
BRANCH   3   5
ATOM      5  C   UNL     1       7.714   7.811  17.851  0.00  0.00    +0.000 A 
ATOM      6  C   UNL     1       8.304   6.938  18.804  0.00  0.00    +0.000 A 
ATOM      7  C   UNL     1       7.802   5.659  19.060  0.00  0.00    +0.000 A 
ATOM      8  C   UNL     1       6.694   5.288  18.352  0.00  0.00    +0.000 A 
ATOM      9  N   UNL     1       5.984   4.095  18.389  0.00  0.00    +0.000 N 
ATOM     10  C   UNL     1       4.921   4.178  17.482  0.00  0.00    +0.000 A 
ATOM     11  O   UNL     1       4.094   3.314  17.252  0.00  0.00    +0.000 OA
ATOM     12  N   UNL     1       4.995   5.450  16.891  0.00  0.00    +0.000 N 
ATOM     13  C   UNL     1       6.084   6.134  17.428  0.00  0.00    +0.000 A 
ATOM     14  C   UNL     1       6.561   7.402  17.161  0.00  0.00    +0.000 A 
ATOM     15  H   UNL     1       6.179   3.288  18.959  0.00  0.00    +0.000 HD
ATOM     16  H   UNL     1       4.349   5.772  16.190  0.00  0.00    +0.000 HD
ENDBRANCH   3   5
BRANCH   2  17
ATOM     17  C   UNL     1       9.324  11.247  18.080  0.00  0.00    +0.000 A 
ATOM     18  C   UNL     1      10.668  11.345  17.698  0.00  0.00    +0.000 A 
ATOM     19  C   UNL     1      11.228  12.583  17.396  0.00  0.00    +0.000 A 
ATOM     20  C   UNL     1      10.459  13.746  17.489  0.00  0.00    +0.000 A 
ATOM     21  C   UNL     1      11.033  14.998  17.228  0.00  0.00    +0.000 A 
ATOM     22  C   UNL     1      10.279  16.163  17.347  0.00  0.00    +0.000 A 
ATOM     23  C   UNL     1       8.940  16.088  17.724  0.00  0.00    +0.000 A 
ATOM     24  C   UNL     1       8.353  14.847  17.983  0.00  0.00    +0.000 A 
ATOM     25  C   UNL     1       9.096  13.659  17.871  0.00  0.00    +0.000 A 
ATOM     26  C   UNL     1       8.534  12.399  18.159  0.00  0.00    +0.000 A 
ENDBRANCH   2  17
TORSDOF 2
ENDMDL
MODEL 6
REMARK VINA RESULT:      -8.1      1.030      1.107
REMARK  Name = 
REMARK  2 active torsions:
REMARK  status: ('A' for Active; 'I' for Inactive)
REMARK    1  A    between atoms: C_2  and  C_14
REMARK    2  A    between atoms: N_3  and  C_4
REMARK                            x       y       z     vdW  Elec       q    Type
REMARK                         _______ _______ _______ _____ _____    ______ ____
ROOT
ATOM      1  O   UNL     1       1.867   6.566  20.821  0.00  0.00    +0.000 OA
ATOM      2  C   UNL     1       1.784   7.591  20.155  0.00  0.00    +0.000 C 
ATOM      3  N   UNL     1       2.369   7.816  18.919  0.00  0.00    +0.000 N 
ATOM      4  H   UNL     1       2.418   8.772  18.589  0.00  0.00    +0.000 HD
ENDROOT
BRANCH   3   5
ATOM      5  C   UNL     1       3.083   6.835  18.182  0.00  0.00    +0.000 A 
ATOM      6  C   UNL     1       2.624   5.496  18.074  0.00  0.00    +0.000 A 
ATOM      7  C   UNL     1       3.334   4.513  17.377  0.00  0.00    +0.000 A 
ATOM      8  C   UNL     1       4.500   4.912  16.784  0.00  0.00    +0.000 A 
ATOM      9  N   UNL     1       5.406   4.171  16.039  0.00  0.00    +0.000 N 
ATOM     10  C   UNL     1       6.452   5.012  15.640  0.00  0.00    +0.000 A 
ATOM     11  O   UNL     1       7.422   4.698  14.974  0.00  0.00    +0.000 OA
ATOM     12  N   UNL     1       6.162   6.286  16.156  0.00  0.00    +0.000 N 
ATOM     13  C   UNL     1       4.960   6.225  16.858  0.00  0.00    +0.000 A 
ATOM     14  C   UNL     1       4.274   7.211  17.539  0.00  0.00    +0.000 A 
ATOM     15  H   UNL     1       5.350   3.191  15.811  0.00  0.00    +0.000 HD
ATOM     16  H   UNL     1       6.759   7.084  16.022  0.00  0.00    +0.000 HD
ENDBRANCH   3   5
BRANCH   2  17
ATOM     17  C   UNL     1       1.033   8.715  20.772  0.00  0.00    +0.000 A 
ATOM     18  C   UNL     1       0.953   8.727  22.170  0.00  0.00    +0.000 A 
ATOM     19  C   UNL     1       0.160   9.664  22.826  0.00  0.00    +0.000 A 
ATOM     20  C   UNL     1      -0.580  10.595  22.094  0.00  0.00    +0.000 A 
ATOM     21  C   UNL     1      -1.414  11.511  22.750  0.00  0.00    +0.000 A 
ATOM     22  C   UNL     1      -2.177  12.424  22.025  0.00  0.00    +0.000 A 
ATOM     23  C   UNL     1      -2.112  12.432  20.634  0.00  0.00    +0.000 A 
ATOM     24  C   UNL     1      -1.283  11.527  19.965  0.00  0.00    +0.000 A 
ATOM     25  C   UNL     1      -0.506  10.597  20.678  0.00  0.00    +0.000 A 
ATOM     26  C   UNL     1       0.313   9.654  20.025  0.00  0.00    +0.000 A 
ENDBRANCH   2  17
TORSDOF 2
ENDMDL
MODEL 7
REMARK VINA RESULT:      -8.1      3.515      8.138
REMARK  Name = 
REMARK  2 active torsions:
REMARK  status: ('A' for Active; 'I' for Inactive)
REMARK    1  A    between atoms: C_2  and  C_14
REMARK    2  A    between atoms: N_3  and  C_4
REMARK                            x       y       z     vdW  Elec       q    Type
REMARK                         _______ _______ _______ _____ _____    ______ ____
ROOT
ATOM      1  O   UNL     1       2.311   8.982  17.264  0.00  0.00    +0.000 OA
ATOM      2  C   UNL     1       2.008   8.576  18.380  0.00  0.00    +0.000 C 
ATOM      3  N   UNL     1       1.278   9.267  19.333  0.00  0.00    +0.000 N 
ATOM      4  H   UNL     1       1.297   8.920  20.284  0.00  0.00    +0.000 HD
ENDROOT
BRANCH   3   5
ATOM      5  C   UNL     1       0.676  10.534  19.116  0.00  0.00    +0.000 A 
ATOM      6  C   UNL     1      -0.653  10.660  18.631  0.00  0.00    +0.000 A 
ATOM      7  C   UNL     1      -1.247  11.902  18.384  0.00  0.00    +0.000 A 
ATOM      8  C   UNL     1      -0.482  13.004  18.648  0.00  0.00    +0.000 A 
ATOM      9  N   UNL     1      -0.795  14.348  18.500  0.00  0.00    +0.000 N 
ATOM     10  C   UNL     1       0.309  15.112  18.898  0.00  0.00    +0.000 A 
ATOM     11  O   UNL     1       0.389  16.327  18.899  0.00  0.00    +0.000 OA
ATOM     12  N   UNL     1       1.304  14.203  19.296  0.00  0.00    +0.000 N 
ATOM     13  C   UNL     1       0.816  12.906  19.144  0.00  0.00    +0.000 A 
ATOM     14  C   UNL     1       1.421  11.691  19.398  0.00  0.00    +0.000 A 
ATOM     15  H   UNL     1      -1.660  14.738  18.162  0.00  0.00    +0.000 HD
ATOM     16  H   UNL     1       2.211  14.487  19.623  0.00  0.00    +0.000 HD
ENDBRANCH   3   5
BRANCH   2  17
ATOM     17  C   UNL     1       2.535   7.238  18.757  0.00  0.00    +0.000 A 
ATOM     18  C   UNL     1       3.419   6.633  17.855  0.00  0.00    +0.000 A 
ATOM     19  C   UNL     1       3.855   5.327  18.062  0.00  0.00    +0.000 A 
ATOM     20  C   UNL     1       3.402   4.599  19.164  0.00  0.00    +0.000 A 
ATOM     21  C   UNL     1       3.805   3.269  19.350  0.00  0.00    +0.000 A 
ATOM     22  C   UNL     1       3.334   2.528  20.431  0.00  0.00    +0.000 A 
ATOM     23  C   UNL     1       2.456   3.111  21.341  0.00  0.00    +0.000 A 
ATOM     24  C   UNL     1       2.047   4.437  21.171  0.00  0.00    +0.000 A 
ATOM     25  C   UNL     1       2.509   5.202  20.086  0.00  0.00    +0.000 A 
ATOM     26  C   UNL     1       2.086   6.529  19.877  0.00  0.00    +0.000 A 
ENDBRANCH   2  17
TORSDOF 2
ENDMDL
MODEL 8
REMARK VINA RESULT:      -8.1      1.051      1.748
REMARK  Name = 
REMARK  2 active torsions:
REMARK  status: ('A' for Active; 'I' for Inactive)
REMARK    1  A    between atoms: C_2  and  C_14
REMARK    2  A    between atoms: N_3  and  C_4
REMARK                            x       y       z     vdW  Elec       q    Type
REMARK                         _______ _______ _______ _____ _____    ______ ____
ROOT
ATOM      1  O   UNL     1       2.228   7.374  20.725  0.00  0.00    +0.000 OA
ATOM      2  C   UNL     1       1.768   7.991  19.771  0.00  0.00    +0.000 C 
ATOM      3  N   UNL     1       2.103   7.810  18.439  0.00  0.00    +0.000 N 
ATOM      4  H   UNL     1       1.832   8.532  17.783  0.00  0.00    +0.000 HD
ENDROOT
BRANCH   3   5
ATOM      5  C   UNL     1       2.972   6.793  17.964  0.00  0.00    +0.000 A 
ATOM      6  C   UNL     1       2.618   5.418  18.018  0.00  0.00    +0.000 A 
ATOM      7  C   UNL     1       3.478   4.405  17.581  0.00  0.00    +0.000 A 
ATOM      8  C   UNL     1       4.685   4.806  17.081  0.00  0.00    +0.000 A 
ATOM      9  N   UNL     1       5.729   4.040  16.583  0.00  0.00    +0.000 N 
ATOM     10  C   UNL     1       6.764   4.896  16.187  0.00  0.00    +0.000 A 
ATOM     11  O   UNL     1       7.834   4.568  15.706  0.00  0.00    +0.000 OA
ATOM     12  N   UNL     1       6.326   6.205  16.451  0.00  0.00    +0.000 N 
ATOM     13  C   UNL     1       5.046   6.149  16.999  0.00  0.00    +0.000 A 
ATOM     14  C   UNL     1       4.212   7.166  17.421  0.00  0.00    +0.000 A 
ATOM     15  H   UNL     1       5.767   3.036  16.511  0.00  0.00    +0.000 HD
ATOM     16  H   UNL     1       6.883   7.021  16.266  0.00  0.00    +0.000 HD
ENDBRANCH   3   5
BRANCH   2  17
ATOM     17  C   UNL     1       0.808   9.079  20.095  0.00  0.00    +0.000 A 
ATOM     18  C   UNL     1       0.528   9.996  19.074  0.00  0.00    +0.000 A 
ATOM     19  C   UNL     1      -0.253  11.119  19.328  0.00  0.00    +0.000 A 
ATOM     20  C   UNL     1      -0.753  11.354  20.611  0.00  0.00    +0.000 A 
ATOM     21  C   UNL     1      -1.503  12.509  20.879  0.00  0.00    +0.000 A 
ATOM     22  C   UNL     1      -1.980  12.763  22.162  0.00  0.00    +0.000 A 
ATOM     23  C   UNL     1      -1.715  11.864  23.192  0.00  0.00    +0.000 A 
ATOM     24  C   UNL     1      -0.972  10.707  22.940  0.00  0.00    +0.000 A 
ATOM     25  C   UNL     1      -0.480  10.432  21.653  0.00  0.00    +0.000 A 
ATOM     26  C   UNL     1       0.299   9.289  21.381  0.00  0.00    +0.000 A 
ENDBRANCH   2  17
TORSDOF 2
ENDMDL
MODEL 9
REMARK VINA RESULT:      -8.0      1.144      1.260
REMARK  Name = 
REMARK  2 active torsions:
REMARK  status: ('A' for Active; 'I' for Inactive)
REMARK    1  A    between atoms: C_2  and  C_14
REMARK    2  A    between atoms: N_3  and  C_4
REMARK                            x       y       z     vdW  Elec       q    Type
REMARK                         _______ _______ _______ _____ _____    ______ ____
ROOT
ATOM      1  O   UNL     1       1.993   8.549  18.518  0.00  0.00    +0.000 OA
ATOM      2  C   UNL     1       1.803   8.151  19.662  0.00  0.00    +0.000 C 
ATOM      3  N   UNL     1       2.180   6.920  20.174  0.00  0.00    +0.000 N 
ATOM      4  H   UNL     1       1.763   6.626  21.048  0.00  0.00    +0.000 HD
ENDROOT
BRANCH   3   5
ATOM      5  C   UNL     1       2.946   5.959  19.464  0.00  0.00    +0.000 A 
ATOM      6  C   UNL     1       3.113   4.631  19.942  0.00  0.00    +0.000 A 
ATOM      7  C   UNL     1       3.890   3.684  19.267  0.00  0.00    +0.000 A 
ATOM      8  C   UNL     1       4.478   4.097  18.105  0.00  0.00    +0.000 A 
ATOM      9  N   UNL     1       5.296   3.392  17.233  0.00  0.00    +0.000 N 
ATOM     10  C   UNL     1       5.659   4.235  16.176  0.00  0.00    +0.000 A 
ATOM     11  O   UNL     1       6.371   3.950  15.231  0.00  0.00    +0.000 OA
ATOM     12  N   UNL     1       5.040   5.474  16.420  0.00  0.00    +0.000 N 
ATOM     13  C   UNL     1       4.312   5.387  17.605  0.00  0.00    +0.000 A 
ATOM     14  C   UNL     1       3.547   6.338  18.253  0.00  0.00    +0.000 A 
ATOM     15  H   UNL     1       5.599   2.435  17.322  0.00  0.00    +0.000 HD
ATOM     16  H   UNL     1       5.140   6.270  15.814  0.00  0.00    +0.000 HD
ENDBRANCH   3   5
BRANCH   2  17
ATOM     17  C   UNL     1       1.038   9.060  20.554  0.00  0.00    +0.000 A 
ATOM     18  C   UNL     1       1.018   8.735  21.916  0.00  0.00    +0.000 A 
ATOM     19  C   UNL     1       0.218   9.451  22.802  0.00  0.00    +0.000 A 
ATOM     20  C   UNL     1      -0.586  10.495  22.339  0.00  0.00    +0.000 A 
ATOM     21  C   UNL     1      -1.425  11.189  23.222  0.00  0.00    +0.000 A 
ATOM     22  C   UNL     1      -2.252  12.211  22.762  0.00  0.00    +0.000 A 
ATOM     23  C   UNL     1      -2.246  12.552  21.412  0.00  0.00    +0.000 A 
ATOM     24  C   UNL     1      -1.413  11.872  20.519  0.00  0.00    +0.000 A 
ATOM     25  C   UNL     1      -0.573  10.836  20.963  0.00  0.00    +0.000 A 
ATOM     26  C   UNL     1       0.252  10.115  20.077  0.00  0.00    +0.000 A 
ENDBRANCH   2  17
TORSDOF 2
ENDMDL
