MODEL 1
REMARK VINA RESULT:      -9.0      0.000      0.000
REMARK  Name = 
REMARK  8 active torsions:
REMARK  status: ('A' for Active; 'I' for Inactive)
REMARK    1  A    between atoms: C_1  and  C_2
REMARK    2  A    between atoms: C_2  and  C_3
REMARK    3  A    between atoms: C_3  and  C_4
REMARK    4  A    between atoms: C_3  and  C_11
REMARK    5  A    between atoms: C_4  and  C_5
REMARK    6  A    between atoms: N_9  and  C_10
REMARK    7  A    between atoms: C_17  and  C_19
REMARK    8  A    between atoms: C_23  and  C_24
REMARK                            x       y       z     vdW  Elec       q    Type
REMARK                         _______ _______ _______ _____ _____    ______ ____
ROOT
ATOM      1  C   UNL     1       4.940   4.139  16.363  0.00  0.00    +0.000 A 
ATOM      2  C   UNL     1       4.664   2.988  17.108  0.00  0.00    +0.000 A 
ATOM      3  C   UNL     1       3.808   3.094  18.186  0.00  0.00    +0.000 A 
ATOM      4  N   UNL     1       3.210   4.241  18.549  0.00  0.00    +0.000 NA
ATOM      5  C   UNL     1       3.465   5.356  17.842  0.00  0.00    +0.000 A 
ATOM      6  N   UNL     1       2.929   6.585  18.261  0.00  0.00    +0.000 N 
ATOM      7  C   UNL     1       2.252   6.758  19.456  0.00  0.00    +0.000 C 
ATOM      8  O   UNL     1       2.050   5.896  20.311  0.00  0.00    +0.000 OA
ATOM      9  C   UNL     1       4.296   5.338  16.725  0.00  0.00    +0.000 A 
ATOM     10  H   UNL     1       3.163   7.397  17.707  0.00  0.00    +0.000 HD
ENDROOT
BRANCH   7  11
ATOM     11  C   UNL     1       1.729   8.126  19.761  0.00  0.00    +0.000 A 
ATOM     12  C   UNL     1       1.649   9.153  18.815  0.00  0.00    +0.000 A 
ATOM     13  C   UNL     1       1.058  10.374  19.161  0.00  0.00    +0.000 A 
ATOM     14  C   UNL     1       0.528  10.570  20.439  0.00  0.00    +0.000 A 
ATOM     15  C   UNL     1       0.593   9.551  21.397  0.00  0.00    +0.000 A 
ATOM     16  C   UNL     1       1.212   8.341  21.050  0.00  0.00    +0.000 A 
BRANCH  15  17
ATOM     17  C   UNL     1      -0.017   9.705  22.770  0.00  0.00    +0.000 C 
ATOM     18  F   UNL     1       0.851   9.433  23.782  0.00  0.00    +0.000 F 
ATOM     19  F   UNL     1      -0.472  10.968  22.999  0.00  0.00    +0.000 F 
ATOM     20  F   UNL     1      -1.085   8.881  22.961  0.00  0.00    +0.000 F 
ENDBRANCH  15  17
ENDBRANCH   7  11
BRANCH   1  21
ATOM     21  C   UNL     1       6.126   4.181  15.398  0.00  0.00    +0.000 C 
BRANCH  21  23
ATOM     22  C   UNL     1       5.996   3.510  12.888  0.00  0.00    +0.000 C 
ATOM     23  C   UNL     1       5.476   4.400  14.001  0.00  0.00    +0.000 C 
ENDBRANCH  21  23
BRANCH  21  24
ATOM     24  C   UNL     1       7.202   5.243  15.726  0.00  0.00    +0.000 C 
BRANCH  24  25
ATOM     25  C   UNL     1       7.452   5.427  17.194  0.00  0.00    +0.000 A 
ATOM     26  N   UNL     1       7.747   4.447  18.031  0.00  0.00    +0.000 NA
ATOM     27  N   UNL     1       8.059   4.992  19.250  0.00  0.00    +0.000 NA
ATOM     28  C   UNL     1       7.946   6.292  19.144  0.00  0.00    +0.000 A 
ATOM     29  N   UNL     1       7.550   6.612  17.878  0.00  0.00    +0.000 N 
ATOM     30  C   UNL     1       7.328   7.955  17.410  0.00  0.00    +0.000 C 
ENDBRANCH  24  25
ENDBRANCH  21  24
ENDBRANCH   1  21
TORSDOF 6
ENDMDL
MODEL 2
REMARK VINA RESULT:      -8.9      1.967      3.313
REMARK  Name = 
REMARK  8 active torsions:
REMARK  status: ('A' for Active; 'I' for Inactive)
REMARK    1  A    between atoms: C_1  and  C_2
REMARK    2  A    between atoms: C_2  and  C_3
REMARK    3  A    between atoms: C_3  and  C_4
REMARK    4  A    between atoms: C_3  and  C_11
REMARK    5  A    between atoms: C_4  and  C_5
REMARK    6  A    between atoms: N_9  and  C_10
REMARK    7  A    between atoms: C_17  and  C_19
REMARK    8  A    between atoms: C_23  and  C_24
REMARK                            x       y       z     vdW  Elec       q    Type
REMARK                         _______ _______ _______ _____ _____    ______ ____
ROOT
ATOM      1  C   UNL     1       4.574   5.253  17.648  0.00  0.00    +0.000 A 
ATOM      2  C   UNL     1       4.267   4.228  18.548  0.00  0.00    +0.000 A 
ATOM      3  C   UNL     1       3.318   4.473  19.521  0.00  0.00    +0.000 A 
ATOM      4  N   UNL     1       2.659   5.638  19.638  0.00  0.00    +0.000 NA
ATOM      5  C   UNL     1       2.942   6.632  18.779  0.00  0.00    +0.000 A 
ATOM      6  N   UNL     1       2.338   7.889  18.944  0.00  0.00    +0.000 N 
ATOM      7  C   UNL     1       1.556   8.227  20.034  0.00  0.00    +0.000 C 
ATOM      8  O   UNL     1       1.303   7.508  21.001  0.00  0.00    +0.000 OA
ATOM      9  C   UNL     1       3.868   6.466  17.752  0.00  0.00    +0.000 A 
ATOM     10  H   UNL     1       2.597   8.609  18.283  0.00  0.00    +0.000 HD
ENDROOT
BRANCH   7  11
ATOM     11  C   UNL     1       0.970   9.603  20.064  0.00  0.00    +0.000 A 
ATOM     12  C   UNL     1       1.018  10.488  18.982  0.00  0.00    +0.000 A 
ATOM     13  C   UNL     1       0.361  11.722  19.063  0.00  0.00    +0.000 A 
ATOM     14  C   UNL     1      -0.360  12.070  20.208  0.00  0.00    +0.000 A 
ATOM     15  C   UNL     1      -0.424  11.193  21.299  0.00  0.00    +0.000 A 
ATOM     16  C   UNL     1       0.259   9.972  21.219  0.00  0.00    +0.000 A 
BRANCH  15  17
ATOM     17  C   UNL     1      -1.238  11.510  22.530  0.00  0.00    +0.000 C 
ATOM     18  F   UNL     1      -1.230  10.513  23.457  0.00  0.00    +0.000 F 
ATOM     19  F   UNL     1      -0.793  12.622  23.177  0.00  0.00    +0.000 F 
ATOM     20  F   UNL     1      -2.549  11.743  22.242  0.00  0.00    +0.000 F 
ENDBRANCH  15  17
ENDBRANCH   7  11
BRANCH   1  21
ATOM     21  C   UNL     1       5.838   5.186  16.789  0.00  0.00    +0.000 C 
BRANCH  21  23
ATOM     22  C   UNL     1       7.613   5.891  18.554  0.00  0.00    +0.000 C 
ATOM     23  C   UNL     1       6.957   4.762  17.784  0.00  0.00    +0.000 C 
ENDBRANCH  21  23
BRANCH  21  24
ATOM     24  C   UNL     1       5.748   4.248  15.562  0.00  0.00    +0.000 C 
BRANCH  24  25
ATOM     25  C   UNL     1       6.590   4.681  14.397  0.00  0.00    +0.000 A 
ATOM     26  N   UNL     1       7.606   5.522  14.482  0.00  0.00    +0.000 NA
ATOM     27  N   UNL     1       8.236   5.570  13.264  0.00  0.00    +0.000 NA
ATOM     28  C   UNL     1       7.595   4.765  12.454  0.00  0.00    +0.000 A 
ATOM     29  N   UNL     1       6.544   4.198  13.114  0.00  0.00    +0.000 N 
ATOM     30  C   UNL     1       5.625   3.260  12.527  0.00  0.00    +0.000 C 
ENDBRANCH  24  25
ENDBRANCH  21  24
ENDBRANCH   1  21
TORSDOF 6
ENDMDL
MODEL 3
REMARK VINA RESULT:      -8.9      3.156      4.460
REMARK  Name = 
REMARK  8 active torsions:
REMARK  status: ('A' for Active; 'I' for Inactive)
REMARK    1  A    between atoms: C_1  and  C_2
REMARK    2  A    between atoms: C_2  and  C_3
REMARK    3  A    between atoms: C_3  and  C_4
REMARK    4  A    between atoms: C_3  and  C_11
REMARK    5  A    between atoms: C_4  and  C_5
REMARK    6  A    between atoms: N_9  and  C_10
REMARK    7  A    between atoms: C_17  and  C_19
REMARK    8  A    between atoms: C_23  and  C_24
REMARK                            x       y       z     vdW  Elec       q    Type
REMARK                         _______ _______ _______ _____ _____    ______ ____
ROOT
ATOM      1  C   UNL     1       4.779   6.022  17.458  0.00  0.00    +0.000 A 
ATOM      2  C   UNL     1       4.645   5.214  18.591  0.00  0.00    +0.000 A 
ATOM      3  C   UNL     1       3.679   5.544  19.521  0.00  0.00    +0.000 A 
ATOM      4  N   UNL     1       2.847   6.589  19.387  0.00  0.00    +0.000 NA
ATOM      5  C   UNL     1       2.962   7.374  18.302  0.00  0.00    +0.000 A 
ATOM      6  N   UNL     1       2.169   8.528  18.189  0.00  0.00    +0.000 N 
ATOM      7  C   UNL     1       1.354   9.001  19.203  0.00  0.00    +0.000 C 
ATOM      8  O   UNL     1       1.227   8.510  20.325  0.00  0.00    +0.000 OA
ATOM      9  C   UNL     1       3.891   7.104  17.302  0.00  0.00    +0.000 A 
ATOM     10  H   UNL     1       2.305   9.096  17.364  0.00  0.00    +0.000 HD
ENDROOT
BRANCH   7  11
ATOM     11  C   UNL     1       0.559  10.238  18.930  0.00  0.00    +0.000 A 
ATOM     12  C   UNL     1       1.001  11.527  19.246  0.00  0.00    +0.000 A 
ATOM     13  C   UNL     1       0.235  12.637  18.870  0.00  0.00    +0.000 A 
ATOM     14  C   UNL     1      -0.959  12.470  18.164  0.00  0.00    +0.000 A 
ATOM     15  C   UNL     1      -1.414  11.188  17.834  0.00  0.00    +0.000 A 
ATOM     16  C   UNL     1      -0.654  10.081  18.238  0.00  0.00    +0.000 A 
BRANCH  15  17
ATOM     17  C   UNL     1      -2.670  10.970  17.024  0.00  0.00    +0.000 C 
ATOM     18  F   UNL     1      -3.161   9.704  17.115  0.00  0.00    +0.000 F 
ATOM     19  F   UNL     1      -3.685  11.791  17.407  0.00  0.00    +0.000 F 
ATOM     20  F   UNL     1      -2.479  11.203  15.695  0.00  0.00    +0.000 F 
ENDBRANCH  15  17
ENDBRANCH   7  11
BRANCH   1  21
ATOM     21  C   UNL     1       6.029   5.938  16.580  0.00  0.00    +0.000 C 
BRANCH  21  23
ATOM     22  C   UNL     1       7.723   7.508  17.776  0.00  0.00    +0.000 C 
ATOM     23  C   UNL     1       7.212   6.094  17.580  0.00  0.00    +0.000 C 
ENDBRANCH  21  23
BRANCH  21  24
ATOM     24  C   UNL     1       6.142   4.656  15.722  0.00  0.00    +0.000 C 
BRANCH  24  25
ATOM     25  C   UNL     1       6.792   4.869  14.386  0.00  0.00    +0.000 A 
ATOM     26  N   UNL     1       7.872   5.605  14.189  0.00  0.00    +0.000 NA
ATOM     27  N   UNL     1       8.271   5.454  12.885  0.00  0.00    +0.000 NA
ATOM     28  C   UNL     1       7.431   4.635  12.305  0.00  0.00    +0.000 A 
ATOM     29  N   UNL     1       6.474   4.256  13.200  0.00  0.00    +0.000 N 
ATOM     30  C   UNL     1       5.390   3.358  12.902  0.00  0.00    +0.000 C 
ENDBRANCH  24  25
ENDBRANCH  21  24
ENDBRANCH   1  21
TORSDOF 6
ENDMDL
MODEL 4
REMARK VINA RESULT:      -8.7      2.464      3.833
REMARK  Name = 
REMARK  8 active torsions:
REMARK  status: ('A' for Active; 'I' for Inactive)
REMARK    1  A    between atoms: C_1  and  C_2
REMARK    2  A    between atoms: C_2  and  C_3
REMARK    3  A    between atoms: C_3  and  C_4
REMARK    4  A    between atoms: C_3  and  C_11
REMARK    5  A    between atoms: C_4  and  C_5
REMARK    6  A    between atoms: N_9  and  C_10
REMARK    7  A    between atoms: C_17  and  C_19
REMARK    8  A    between atoms: C_23  and  C_24
REMARK                            x       y       z     vdW  Elec       q    Type
REMARK                         _______ _______ _______ _____ _____    ______ ____
ROOT
ATOM      1  C   UNL     1       4.646   4.902  17.525  0.00  0.00    +0.000 A 
ATOM      2  C   UNL     1       4.305   3.731  18.209  0.00  0.00    +0.000 A 
ATOM      3  C   UNL     1       3.328   3.801  19.182  0.00  0.00    +0.000 A 
ATOM      4  N   UNL     1       2.671   4.930  19.494  0.00  0.00    +0.000 NA
ATOM      5  C   UNL     1       2.986   6.064  18.844  0.00  0.00    +0.000 A 
ATOM      6  N   UNL     1       2.384   7.276  19.221  0.00  0.00    +0.000 N 
ATOM      7  C   UNL     1       1.570   7.413  20.332  0.00  0.00    +0.000 C 
ATOM      8  O   UNL     1       1.284   6.530  21.140  0.00  0.00    +0.000 OA
ATOM      9  C   UNL     1       3.943   6.082  17.832  0.00  0.00    +0.000 A 
ATOM     10  H   UNL     1       2.667   8.103  18.715  0.00  0.00    +0.000 HD
ENDROOT
BRANCH   7  11
ATOM     11  C   UNL     1       0.990   8.765  20.600  0.00  0.00    +0.000 A 
ATOM     12  C   UNL     1       0.207   9.064  21.719  0.00  0.00    +0.000 A 
ATOM     13  C   UNL     1      -0.217  10.380  21.942  0.00  0.00    +0.000 A 
ATOM     14  C   UNL     1       0.152  11.403  21.065  0.00  0.00    +0.000 A 
ATOM     15  C   UNL     1       0.940  11.124  19.942  0.00  0.00    +0.000 A 
ATOM     16  C   UNL     1       1.337   9.799  19.712  0.00  0.00    +0.000 A 
BRANCH  15  17
ATOM     17  C   UNL     1       1.404  12.211  19.002  0.00  0.00    +0.000 C 
ATOM     18  F   UNL     1       2.133  11.745  17.952  0.00  0.00    +0.000 F 
ATOM     19  F   UNL     1       0.368  12.906  18.457  0.00  0.00    +0.000 F 
ATOM     20  F   UNL     1       2.190  13.135  19.622  0.00  0.00    +0.000 F 
ENDBRANCH  15  17
ENDBRANCH   7  11
BRANCH   1  21
ATOM     21  C   UNL     1       5.936   4.982  16.706  0.00  0.00    +0.000 C 
BRANCH  21  23
ATOM     22  C   UNL     1       7.686   5.876  18.410  0.00  0.00    +0.000 C 
ATOM     23  C   UNL     1       7.063   4.670  17.733  0.00  0.00    +0.000 C 
ENDBRANCH  21  23
BRANCH  21  24
ATOM     24  C   UNL     1       5.986   4.054  15.469  0.00  0.00    +0.000 C 
BRANCH  24  25
ATOM     25  C   UNL     1       6.742   4.625  14.306  0.00  0.00    +0.000 A 
ATOM     26  N   UNL     1       7.726   5.502  14.412  0.00  0.00    +0.000 NA
ATOM     27  N   UNL     1       8.283   5.685  13.172  0.00  0.00    +0.000 NA
ATOM     28  C   UNL     1       7.632   4.925  12.328  0.00  0.00    +0.000 A 
ATOM     29  N   UNL     1       6.644   4.255  12.988  0.00  0.00    +0.000 N 
ATOM     30  C   UNL     1       5.733   3.330  12.368  0.00  0.00    +0.000 C 
ENDBRANCH  24  25
ENDBRANCH  21  24
ENDBRANCH   1  21
TORSDOF 6
ENDMDL
MODEL 5
REMARK VINA RESULT:      -8.6      2.716      4.037
REMARK  Name = 
REMARK  8 active torsions:
REMARK  status: ('A' for Active; 'I' for Inactive)
REMARK    1  A    between atoms: C_1  and  C_2
REMARK    2  A    between atoms: C_2  and  C_3
REMARK    3  A    between atoms: C_3  and  C_4
REMARK    4  A    between atoms: C_3  and  C_11
REMARK    5  A    between atoms: C_4  and  C_5
REMARK    6  A    between atoms: N_9  and  C_10
REMARK    7  A    between atoms: C_17  and  C_19
REMARK    8  A    between atoms: C_23  and  C_24
REMARK                            x       y       z     vdW  Elec       q    Type
REMARK                         _______ _______ _______ _____ _____    ______ ____
ROOT
ATOM      1  C   UNL     1       4.527   5.774  17.670  0.00  0.00    +0.000 A 
ATOM      2  C   UNL     1       4.389   4.720  18.578  0.00  0.00    +0.000 A 
ATOM      3  C   UNL     1       3.467   4.850  19.598  0.00  0.00    +0.000 A 
ATOM      4  N   UNL     1       2.681   5.927  19.755  0.00  0.00    +0.000 NA
ATOM      5  C   UNL     1       2.801   6.948  18.889  0.00  0.00    +0.000 A 
ATOM      6  N   UNL     1       2.061   8.125  19.091  0.00  0.00    +0.000 N 
ATOM      7  C   UNL     1       1.299   8.367  20.220  0.00  0.00    +0.000 C 
ATOM      8  O   UNL     1       1.183   7.622  21.194  0.00  0.00    +0.000 OA
ATOM      9  C   UNL     1       3.688   6.895  17.817  0.00  0.00    +0.000 A 
ATOM     10  H   UNL     1       2.199   8.871  18.423  0.00  0.00    +0.000 HD
ENDROOT
BRANCH   7  11
ATOM     11  C   UNL     1       0.556   9.663  20.288  0.00  0.00    +0.000 A 
ATOM     12  C   UNL     1       0.903  10.710  21.147  0.00  0.00    +0.000 A 
ATOM     13  C   UNL     1       0.211  11.926  21.078  0.00  0.00    +0.000 A 
ATOM     14  C   UNL     1      -0.812  12.108  20.145  0.00  0.00    +0.000 A 
ATOM     15  C   UNL     1      -1.170  11.073  19.273  0.00  0.00    +0.000 A 
ATOM     16  C   UNL     1      -0.490   9.851  19.367  0.00  0.00    +0.000 A 
BRANCH  15  17
ATOM     17  C   UNL     1      -2.233  11.251  18.215  0.00  0.00    +0.000 C 
ATOM     18  F   UNL     1      -1.843  12.048  17.183  0.00  0.00    +0.000 F 
ATOM     19  F   UNL     1      -2.610  10.071  17.652  0.00  0.00    +0.000 F 
ATOM     20  F   UNL     1      -3.372  11.811  18.711  0.00  0.00    +0.000 F 
ENDBRANCH  15  17
ENDBRANCH   7  11
BRANCH   1  21
ATOM     21  C   UNL     1       5.746   5.859  16.749  0.00  0.00    +0.000 C 
BRANCH  21  23
ATOM     22  C   UNL     1       7.574   7.538  17.526  0.00  0.00    +0.000 C 
ATOM     23  C   UNL     1       6.931   6.176  17.707  0.00  0.00    +0.000 C 
ENDBRANCH  21  23
BRANCH  21  24
ATOM     24  C   UNL     1       6.003   4.602  15.884  0.00  0.00    +0.000 C 
BRANCH  24  25
ATOM     25  C   UNL     1       6.740   4.878  14.607  0.00  0.00    +0.000 A 
ATOM     26  N   UNL     1       7.842   5.604  14.522  0.00  0.00    +0.000 NA
ATOM     27  N   UNL     1       8.323   5.519  13.240  0.00  0.00    +0.000 NA
ATOM     28  C   UNL     1       7.510   4.750  12.561  0.00  0.00    +0.000 A 
ATOM     29  N   UNL     1       6.491   4.338  13.370  0.00  0.00    +0.000 N 
ATOM     30  C   UNL     1       5.415   3.480  12.952  0.00  0.00    +0.000 C 
ENDBRANCH  24  25
ENDBRANCH  21  24
ENDBRANCH   1  21
TORSDOF 6
ENDMDL
MODEL 6
REMARK VINA RESULT:      -8.5      1.796      2.292
REMARK  Name = 
REMARK  8 active torsions:
REMARK  status: ('A' for Active; 'I' for Inactive)
REMARK    1  A    between atoms: C_1  and  C_2
REMARK    2  A    between atoms: C_2  and  C_3
REMARK    3  A    between atoms: C_3  and  C_4
REMARK    4  A    between atoms: C_3  and  C_11
REMARK    5  A    between atoms: C_4  and  C_5
REMARK    6  A    between atoms: N_9  and  C_10
REMARK    7  A    between atoms: C_17  and  C_19
REMARK    8  A    between atoms: C_23  and  C_24
REMARK                            x       y       z     vdW  Elec       q    Type
REMARK                         _______ _______ _______ _____ _____    ______ ____
ROOT
ATOM      1  C   UNL     1       4.632   4.225  16.723  0.00  0.00    +0.000 A 
ATOM      2  C   UNL     1       4.289   3.017  17.338  0.00  0.00    +0.000 A 
ATOM      3  C   UNL     1       3.407   3.050  18.400  0.00  0.00    +0.000 A 
ATOM      4  N   UNL     1       2.844   4.178  18.862  0.00  0.00    +0.000 NA
ATOM      5  C   UNL     1       3.163   5.347  18.280  0.00  0.00    +0.000 A 
ATOM      6  N   UNL     1       2.664   6.549  18.809  0.00  0.00    +0.000 N 
ATOM      7  C   UNL     1       1.960   6.629  19.998  0.00  0.00    +0.000 C 
ATOM      8  O   UNL     1       1.699   5.694  20.755  0.00  0.00    +0.000 OA
ATOM      9  C   UNL     1       4.025   5.406  17.189  0.00  0.00    +0.000 A 
ATOM     10  H   UNL     1       2.947   7.402  18.347  0.00  0.00    +0.000 HD
ENDROOT
BRANCH   7  11
ATOM     11  C   UNL     1       1.482   7.979  20.427  0.00  0.00    +0.000 A 
ATOM     12  C   UNL     1       1.084   8.280  21.734  0.00  0.00    +0.000 A 
ATOM     13  C   UNL     1       0.741   9.595  22.072  0.00  0.00    +0.000 A 
ATOM     14  C   UNL     1       0.810  10.614  21.120  0.00  0.00    +0.000 A 
ATOM     15  C   UNL     1       1.212  10.334  19.808  0.00  0.00    +0.000 A 
ATOM     16  C   UNL     1       1.528   9.010  19.472  0.00  0.00    +0.000 A 
BRANCH  15  17
ATOM     17  C   UNL     1       1.353  11.418  18.766  0.00  0.00    +0.000 C 
ATOM     18  F   UNL     1       2.221  11.101  17.768  0.00  0.00    +0.000 F 
ATOM     19  F   UNL     1       0.172  11.709  18.155  0.00  0.00    +0.000 F 
ATOM     20  F   UNL     1       1.801  12.591  19.294  0.00  0.00    +0.000 F 
ENDBRANCH  15  17
ENDBRANCH   7  11
BRANCH   1  21
ATOM     21  C   UNL     1       5.847   4.313  15.797  0.00  0.00    +0.000 C 
BRANCH  21  23
ATOM     22  C   UNL     1       6.133   3.747  13.274  0.00  0.00    +0.000 C 
ATOM     23  C   UNL     1       5.239   4.306  14.364  0.00  0.00    +0.000 C 
ENDBRANCH  21  23
BRANCH  21  24
ATOM     24  C   UNL     1       6.772   5.528  16.043  0.00  0.00    +0.000 C 
BRANCH  24  25
ATOM     25  C   UNL     1       7.269   5.642  17.454  0.00  0.00    +0.000 A 
ATOM     26  N   UNL     1       7.485   4.614  18.256  0.00  0.00    +0.000 NA
ATOM     27  N   UNL     1       8.076   5.074  19.407  0.00  0.00    +0.000 NA
ATOM     28  C   UNL     1       8.206   6.371  19.294  0.00  0.00    +0.000 A 
ATOM     29  N   UNL     1       7.697   6.777  18.095  0.00  0.00    +0.000 N 
ATOM     30  C   UNL     1       7.675   8.142  17.640  0.00  0.00    +0.000 C 
ENDBRANCH  24  25
ENDBRANCH  21  24
ENDBRANCH   1  21
TORSDOF 6
ENDMDL
MODEL 7
REMARK VINA RESULT:      -8.5      4.422      8.450
REMARK  Name = 
REMARK  8 active torsions:
REMARK  status: ('A' for Active; 'I' for Inactive)
REMARK    1  A    between atoms: C_1  and  C_2
REMARK    2  A    between atoms: C_2  and  C_3
REMARK    3  A    between atoms: C_3  and  C_4
REMARK    4  A    between atoms: C_3  and  C_11
REMARK    5  A    between atoms: C_4  and  C_5
REMARK    6  A    between atoms: N_9  and  C_10
REMARK    7  A    between atoms: C_17  and  C_19
REMARK    8  A    between atoms: C_23  and  C_24
REMARK                            x       y       z     vdW  Elec       q    Type
REMARK                         _______ _______ _______ _____ _____    ______ ____
ROOT
ATOM      1  C   UNL     1       0.275  10.407  19.838  0.00  0.00    +0.000 A 
ATOM      2  C   UNL     1      -0.223  10.024  21.088  0.00  0.00    +0.000 A 
ATOM      3  C   UNL     1       0.200   8.823  21.621  0.00  0.00    +0.000 A 
ATOM      4  N   UNL     1       1.080   8.009  21.014  0.00  0.00    +0.000 NA
ATOM      5  C   UNL     1       1.568   8.365  19.813  0.00  0.00    +0.000 A 
ATOM      6  N   UNL     1       2.412   7.485  19.115  0.00  0.00    +0.000 N 
ATOM      7  C   UNL     1       2.675   6.189  19.523  0.00  0.00    +0.000 C 
ATOM      8  O   UNL     1       2.203   5.626  20.512  0.00  0.00    +0.000 OA
ATOM      9  C   UNL     1       1.216   9.569  19.210  0.00  0.00    +0.000 A 
ATOM     10  H   UNL     1       2.738   7.790  18.208  0.00  0.00    +0.000 HD
ENDROOT
BRANCH   7  11
ATOM     11  C   UNL     1       3.604   5.375  18.681  0.00  0.00    +0.000 A 
ATOM     12  C   UNL     1       3.175   4.507  17.672  0.00  0.00    +0.000 A 
ATOM     13  C   UNL     1       4.116   3.854  16.867  0.00  0.00    +0.000 A 
ATOM     14  C   UNL     1       5.483   4.076  17.051  0.00  0.00    +0.000 A 
ATOM     15  C   UNL     1       5.932   4.946  18.053  0.00  0.00    +0.000 A 
ATOM     16  C   UNL     1       4.983   5.574  18.871  0.00  0.00    +0.000 A 
BRANCH  15  17
ATOM     17  C   UNL     1       7.398   5.253  18.246  0.00  0.00    +0.000 C 
ATOM     18  F   UNL     1       7.741   5.462  19.546  0.00  0.00    +0.000 F 
ATOM     19  F   UNL     1       8.203   4.248  17.805  0.00  0.00    +0.000 F 
ATOM     20  F   UNL     1       7.789   6.371  17.572  0.00  0.00    +0.000 F 
ENDBRANCH  15  17
ENDBRANCH   7  11
BRANCH   1  21
ATOM     21  C   UNL     1      -0.401  11.521  19.036  0.00  0.00    +0.000 C 
BRANCH  21  23
ATOM     22  C   UNL     1      -1.948  10.079  17.522  0.00  0.00    +0.000 C 
ATOM     23  C   UNL     1      -1.827  10.971  18.742  0.00  0.00    +0.000 C 
ENDBRANCH  21  23
BRANCH  21  24
ATOM     24  C   UNL     1      -0.428  12.904  19.728  0.00  0.00    +0.000 C 
BRANCH  24  25
ATOM     25  C   UNL     1       0.908  13.358  20.240  0.00  0.00    +0.000 A 
ATOM     26  N   UNL     1       1.207  13.506  21.519  0.00  0.00    +0.000 NA
ATOM     27  N   UNL     1       2.547  13.783  21.625  0.00  0.00    +0.000 NA
ATOM     28  C   UNL     1       3.044  13.806  20.414  0.00  0.00    +0.000 A 
ATOM     29  N   UNL     1       2.052  13.563  19.510  0.00  0.00    +0.000 N 
ATOM     30  C   UNL     1       2.243  13.515  18.085  0.00  0.00    +0.000 C 
ENDBRANCH  24  25
ENDBRANCH  21  24
ENDBRANCH   1  21
TORSDOF 6
ENDMDL
MODEL 8
REMARK VINA RESULT:      -8.5      4.816      9.310
REMARK  Name = 
REMARK  8 active torsions:
REMARK  status: ('A' for Active; 'I' for Inactive)
REMARK    1  A    between atoms: C_1  and  C_2
REMARK    2  A    between atoms: C_2  and  C_3
REMARK    3  A    between atoms: C_3  and  C_4
REMARK    4  A    between atoms: C_3  and  C_11
REMARK    5  A    between atoms: C_4  and  C_5
REMARK    6  A    between atoms: N_9  and  C_10
REMARK    7  A    between atoms: C_17  and  C_19
REMARK    8  A    between atoms: C_23  and  C_24
REMARK                            x       y       z     vdW  Elec       q    Type
REMARK                         _______ _______ _______ _____ _____    ______ ____
ROOT
ATOM      1  C   UNL     1       0.191  10.376  20.015  0.00  0.00    +0.000 A 
ATOM      2  C   UNL     1      -0.123  10.054  21.339  0.00  0.00    +0.000 A 
ATOM      3  C   UNL     1       0.396   8.890  21.872  0.00  0.00    +0.000 A 
ATOM      4  N   UNL     1       1.203   8.059  21.192  0.00  0.00    +0.000 NA
ATOM      5  C   UNL     1       1.515   8.356  19.919  0.00  0.00    +0.000 A 
ATOM      6  N   UNL     1       2.276   7.452  19.158  0.00  0.00    +0.000 N 
ATOM      7  C   UNL     1       2.621   6.185  19.594  0.00  0.00    +0.000 C 
ATOM      8  O   UNL     1       2.302   5.670  20.666  0.00  0.00    +0.000 OA
ATOM      9  C   UNL     1       1.056   9.519  19.308  0.00  0.00    +0.000 A 
ATOM     10  H   UNL     1       2.468   7.712  18.201  0.00  0.00    +0.000 HD
ENDROOT
BRANCH   7  11
ATOM     11  C   UNL     1       3.446   5.340  18.676  0.00  0.00    +0.000 A 
ATOM     12  C   UNL     1       2.909   4.359  17.835  0.00  0.00    +0.000 A 
ATOM     13  C   UNL     1       3.741   3.679  16.938  0.00  0.00    +0.000 A 
ATOM     14  C   UNL     1       5.102   3.985  16.860  0.00  0.00    +0.000 A 
ATOM     15  C   UNL     1       5.656   4.968  17.689  0.00  0.00    +0.000 A 
ATOM     16  C   UNL     1       4.820   5.624  18.604  0.00  0.00    +0.000 A 
BRANCH  15  17
ATOM     17  C   UNL     1       7.110   5.365  17.596  0.00  0.00    +0.000 C 
ATOM     18  F   UNL     1       7.969   4.356  17.908  0.00  0.00    +0.000 F 
ATOM     19  F   UNL     1       7.459   5.777  16.347  0.00  0.00    +0.000 F 
ATOM     20  F   UNL     1       7.424   6.394  18.432  0.00  0.00    +0.000 F 
ENDBRANCH  15  17
ENDBRANCH   7  11
BRANCH   1  21
ATOM     21  C   UNL     1      -0.613  11.433  19.256  0.00  0.00    +0.000 C 
BRANCH  21  23
ATOM     22  C   UNL     1      -0.206  13.916  18.597  0.00  0.00    +0.000 C 
ATOM     23  C   UNL     1       0.399  12.594  19.028  0.00  0.00    +0.000 C 
ENDBRANCH  21  23
BRANCH  21  24
ATOM     24  C   UNL     1      -1.261  10.944  17.939  0.00  0.00    +0.000 C 
BRANCH  24  25
ATOM     25  C   UNL     1      -2.729  11.241  17.833  0.00  0.00    +0.000 A 
ATOM     26  N   UNL     1      -3.475  11.688  18.828  0.00  0.00    +0.000 NA
ATOM     27  N   UNL     1      -4.720  11.991  18.338  0.00  0.00    +0.000 NA
ATOM     28  C   UNL     1      -4.719  11.720  17.058  0.00  0.00    +0.000 A 
ATOM     29  N   UNL     1      -3.499  11.230  16.697  0.00  0.00    +0.000 N 
ATOM     30  C   UNL     1      -3.144  10.828  15.362  0.00  0.00    +0.000 C 
ENDBRANCH  24  25
ENDBRANCH  21  24
ENDBRANCH   1  21
TORSDOF 6
ENDMDL
MODEL 9
REMARK VINA RESULT:      -8.4      4.860      9.343
REMARK  Name = 
REMARK  8 active torsions:
REMARK  status: ('A' for Active; 'I' for Inactive)
REMARK    1  A    between atoms: C_1  and  C_2
REMARK    2  A    between atoms: C_2  and  C_3
REMARK    3  A    between atoms: C_3  and  C_4
REMARK    4  A    between atoms: C_3  and  C_11
REMARK    5  A    between atoms: C_4  and  C_5
REMARK    6  A    between atoms: N_9  and  C_10
REMARK    7  A    between atoms: C_17  and  C_19
REMARK    8  A    between atoms: C_23  and  C_24
REMARK                            x       y       z     vdW  Elec       q    Type
REMARK                         _______ _______ _______ _____ _____    ______ ____
ROOT
ATOM      1  C   UNL     1       0.171  10.562  20.114  0.00  0.00    +0.000 A 
ATOM      2  C   UNL     1      -0.126  10.286  21.452  0.00  0.00    +0.000 A 
ATOM      3  C   UNL     1       0.350   9.112  22.001  0.00  0.00    +0.000 A 
ATOM      4  N   UNL     1       1.102   8.228  21.325  0.00  0.00    +0.000 NA
ATOM      5  C   UNL     1       1.398   8.480  20.038  0.00  0.00    +0.000 A 
ATOM      6  N   UNL     1       2.098   7.525  19.283  0.00  0.00    +0.000 N 
ATOM      7  C   UNL     1       2.395   6.253  19.741  0.00  0.00    +0.000 C 
ATOM      8  O   UNL     1       2.077   5.779  20.832  0.00  0.00    +0.000 OA
ATOM      9  C   UNL     1       0.980   9.650  19.409  0.00  0.00    +0.000 A 
ATOM     10  H   UNL     1       2.281   7.753  18.316  0.00  0.00    +0.000 HD
ENDROOT
BRANCH   7  11
ATOM     11  C   UNL     1       3.158   5.350  18.826  0.00  0.00    +0.000 A 
ATOM     12  C   UNL     1       3.066   3.955  18.862  0.00  0.00    +0.000 A 
ATOM     13  C   UNL     1       3.743   3.187  17.906  0.00  0.00    +0.000 A 
ATOM     14  C   UNL     1       4.494   3.804  16.903  0.00  0.00    +0.000 A 
ATOM     15  C   UNL     1       4.593   5.200  16.847  0.00  0.00    +0.000 A 
ATOM     16  C   UNL     1       3.935   5.958  17.825  0.00  0.00    +0.000 A 
BRANCH  15  17
ATOM     17  C   UNL     1       5.351   5.903  15.747  0.00  0.00    +0.000 C 
ATOM     18  F   UNL     1       5.413   5.191  14.589  0.00  0.00    +0.000 F 
ATOM     19  F   UNL     1       4.796   7.102  15.417  0.00  0.00    +0.000 F 
ATOM     20  F   UNL     1       6.642   6.170  16.092  0.00  0.00    +0.000 F 
ENDBRANCH  15  17
ENDBRANCH   7  11
BRANCH   1  21
ATOM     21  C   UNL     1      -0.600  11.638  19.347  0.00  0.00    +0.000 C 
BRANCH  21  23
ATOM     22  C   UNL     1      -0.181  14.165  18.893  0.00  0.00    +0.000 C 
ATOM     23  C   UNL     1       0.419  12.805  19.194  0.00  0.00    +0.000 C 
ENDBRANCH  21  23
BRANCH  21  24
ATOM     24  C   UNL     1      -1.189  11.182  17.991  0.00  0.00    +0.000 C 
BRANCH  24  25
ATOM     25  C   UNL     1      -2.676  11.353  17.882  0.00  0.00    +0.000 A 
ATOM     26  N   UNL     1      -3.455  11.769  18.866  0.00  0.00    +0.000 NA
ATOM     27  N   UNL     1      -4.722  11.951  18.372  0.00  0.00    +0.000 NA
ATOM     28  C   UNL     1      -4.701  11.641  17.101  0.00  0.00    +0.000 A 
ATOM     29  N   UNL     1      -3.444  11.242  16.751  0.00  0.00    +0.000 N 
ATOM     30  C   UNL     1      -3.060  10.828  15.427  0.00  0.00    +0.000 C 
ENDBRANCH  24  25
ENDBRANCH  21  24
ENDBRANCH   1  21
TORSDOF 6
ENDMDL
