MODEL 1
REMARK VINA RESULT:      -9.2      0.000      0.000
REMARK  Name = 
REMARK  4 active torsions:
REMARK  status: ('A' for Active; 'I' for Inactive)
REMARK    1  A    between atoms: C_1  and  C_2
REMARK    2  A    between atoms: C_2  and  C_3
REMARK    3  A    between atoms: C_5  and  N_6
REMARK    4  A    between atoms: C_7  and  C_9
REMARK                            x       y       z     vdW  Elec       q    Type
REMARK                         _______ _______ _______ _____ _____    ______ ____
ROOT
ATOM      1  N   UNL     1       2.521   7.627  18.531  0.00  0.00    +0.000 N 
ATOM      2  C   UNL     1       1.879   8.044  19.678  0.00  0.00    +0.000 C 
ATOM      3  O   UNL     1       2.012   7.508  20.768  0.00  0.00    +0.000 OA
ATOM      4  H   UNL     1       2.299   8.092  17.658  0.00  0.00    +0.000 HD
ENDROOT
BRANCH   2   5
ATOM      5  C   UNL     1       0.938   9.242  19.491  0.00  0.00    +0.000 A 
ATOM      6  N   UNL     1       0.791   9.668  18.266  0.00  0.00    +0.000 NA
ATOM      7  N   UNL     1      -0.057  10.714  18.048  0.00  0.00    +0.000 N 
ATOM      8  C   UNL     1      -0.792  11.379  19.001  0.00  0.00    +0.000 A 
ATOM      9  O   UNL     1      -1.549  12.299  18.722  0.00  0.00    +0.000 OA
ATOM     10  C   UNL     1      -0.616  10.920  20.390  0.00  0.00    +0.000 A 
ATOM     11  C   UNL     1      -1.316  11.552  21.427  0.00  0.00    +0.000 A 
ATOM     12  C   UNL     1      -1.162  11.112  22.740  0.00  0.00    +0.000 A 
ATOM     13  C   UNL     1      -0.302  10.051  23.014  0.00  0.00    +0.000 A 
ATOM     14  C   UNL     1       0.409   9.431  21.979  0.00  0.00    +0.000 A 
ATOM     15  C   UNL     1       0.246   9.856  20.654  0.00  0.00    +0.000 A 
ATOM     16  H   UNL     1      -0.187  11.006  17.083  0.00  0.00    +0.000 HD
ENDBRANCH   2   5
BRANCH   1  21
ATOM     17  C   UNL     1       5.360   5.136  15.617  0.00  0.00    +0.000 C 
ATOM     18  C   UNL     1       4.999   5.235  17.103  0.00  0.00    +0.000 C 
ATOM     19  C   UNL     1       6.187   4.786  17.965  0.00  0.00    +0.000 C 
ATOM     20  C   UNL     1       4.544   6.674  17.466  0.00  0.00    +0.000 C 
ATOM     21  C   UNL     1       3.473   6.543  18.570  0.00  0.00    +0.000 C 
ATOM     22  C   UNL     1       2.886   5.199  18.255  0.00  0.00    +0.000 A 
ATOM     23  C   UNL     1       1.709   4.643  18.737  0.00  0.00    +0.000 A 
ATOM     24  C   UNL     1       1.397   3.328  18.387  0.00  0.00    +0.000 A 
ATOM     25  C   UNL     1       2.263   2.579  17.579  0.00  0.00    +0.000 A 
ATOM     26  C   UNL     1       3.455   3.135  17.111  0.00  0.00    +0.000 A 
ATOM     27  C   UNL     1       3.757   4.447  17.451  0.00  0.00    +0.000 A 
ENDBRANCH   1  21
TORSDOF 2
ENDMDL
MODEL 2
REMARK VINA RESULT:      -9.0      0.881      1.036
REMARK  Name = 
REMARK  4 active torsions:
REMARK  status: ('A' for Active; 'I' for Inactive)
REMARK    1  A    between atoms: C_1  and  C_2
REMARK    2  A    between atoms: C_2  and  C_3
REMARK    3  A    between atoms: C_5  and  N_6
REMARK    4  A    between atoms: C_7  and  C_9
REMARK                            x       y       z     vdW  Elec       q    Type
REMARK                         _______ _______ _______ _____ _____    ______ ____
ROOT
ATOM      1  N   UNL     1       2.147   7.435  19.097  0.00  0.00    +0.000 N 
ATOM      2  C   UNL     1       1.679   8.160  20.172  0.00  0.00    +0.000 C 
ATOM      3  O   UNL     1       1.923   7.889  21.338  0.00  0.00    +0.000 OA
ATOM      4  H   UNL     1       1.838   7.696  18.167  0.00  0.00    +0.000 HD
ENDROOT
BRANCH   2   5
ATOM      5  C   UNL     1       0.782   9.351  19.805  0.00  0.00    +0.000 A 
ATOM      6  N   UNL     1       0.758   9.681  18.542  0.00  0.00    +0.000 NA
ATOM      7  N   UNL     1      -0.046  10.715  18.164  0.00  0.00    +0.000 N 
ATOM      8  C   UNL     1      -0.853  11.462  18.989  0.00  0.00    +0.000 A 
ATOM      9  O   UNL     1      -1.563  12.366  18.570  0.00  0.00    +0.000 OA
ATOM     10  C   UNL     1      -0.817  11.112  20.420  0.00  0.00    +0.000 A 
ATOM     11  C   UNL     1      -1.599  11.833  21.334  0.00  0.00    +0.000 A 
ATOM     12  C   UNL     1      -1.576  11.495  22.686  0.00  0.00    +0.000 A 
ATOM     13  C   UNL     1      -0.766  10.449  23.121  0.00  0.00    +0.000 A 
ATOM     14  C   UNL     1       0.026   9.742  22.209  0.00  0.00    +0.000 A 
ATOM     15  C   UNL     1      -0.003  10.062  20.846  0.00  0.00    +0.000 A 
ATOM     16  H   UNL     1      -0.080  10.932  17.172  0.00  0.00    +0.000 HD
ENDBRANCH   2   5
BRANCH   1  21
ATOM     17  C   UNL     1       4.492   4.131  16.577  0.00  0.00    +0.000 C 
ATOM     18  C   UNL     1       4.315   4.596  18.027  0.00  0.00    +0.000 C 
ATOM     19  C   UNL     1       5.572   4.267  18.844  0.00  0.00    +0.000 C 
ATOM     20  C   UNL     1       3.979   6.110  18.085  0.00  0.00    +0.000 C 
ATOM     21  C   UNL     1       3.041   6.319  19.293  0.00  0.00    +0.000 C 
ATOM     22  C   UNL     1       2.354   4.987  19.367  0.00  0.00    +0.000 A 
ATOM     23  C   UNL     1       1.216   4.649  20.087  0.00  0.00    +0.000 A 
ATOM     24  C   UNL     1       0.799   3.316  20.092  0.00  0.00    +0.000 A 
ATOM     25  C   UNL     1       1.524   2.338  19.399  0.00  0.00    +0.000 A 
ATOM     26  C   UNL     1       2.678   2.679  18.692  0.00  0.00    +0.000 A 
ATOM     27  C   UNL     1       3.085   4.006  18.678  0.00  0.00    +0.000 A 
ENDBRANCH   1  21
TORSDOF 2
ENDMDL
MODEL 3
REMARK VINA RESULT:      -8.7      2.578      8.043
REMARK  Name = 
REMARK  4 active torsions:
REMARK  status: ('A' for Active; 'I' for Inactive)
REMARK    1  A    between atoms: C_1  and  C_2
REMARK    2  A    between atoms: C_2  and  C_3
REMARK    3  A    between atoms: C_5  and  N_6
REMARK    4  A    between atoms: C_7  and  C_9
REMARK                            x       y       z     vdW  Elec       q    Type
REMARK                         _______ _______ _______ _____ _____    ______ ____
ROOT
ATOM      1  N   UNL     1       3.082   7.588  18.630  0.00  0.00    +0.000 N 
ATOM      2  C   UNL     1       3.224   6.269  18.254  0.00  0.00    +0.000 C 
ATOM      3  O   UNL     1       2.290   5.536  17.966  0.00  0.00    +0.000 OA
ATOM      4  H   UNL     1       3.910   8.100  18.914  0.00  0.00    +0.000 HD
ENDROOT
BRANCH   2   5
ATOM      5  C   UNL     1       4.670   5.753  18.245  0.00  0.00    +0.000 A 
ATOM      6  N   UNL     1       5.229   5.596  19.414  0.00  0.00    +0.000 NA
ATOM      7  N   UNL     1       6.503   5.113  19.457  0.00  0.00    +0.000 N 
ATOM      8  C   UNL     1       7.278   4.765  18.376  0.00  0.00    +0.000 A 
ATOM      9  O   UNL     1       8.411   4.319  18.498  0.00  0.00    +0.000 OA
ATOM     10  C   UNL     1       6.665   4.959  17.050  0.00  0.00    +0.000 A 
ATOM     11  C   UNL     1       7.391   4.642  15.894  0.00  0.00    +0.000 A 
ATOM     12  C   UNL     1       6.809   4.813  14.639  0.00  0.00    +0.000 A 
ATOM     13  C   UNL     1       5.511   5.309  14.544  0.00  0.00    +0.000 A 
ATOM     14  C   UNL     1       4.794   5.640  15.700  0.00  0.00    +0.000 A 
ATOM     15  C   UNL     1       5.364   5.455  16.966  0.00  0.00    +0.000 A 
ATOM     16  H   UNL     1       6.907   4.962  20.377  0.00  0.00    +0.000 HD
ENDBRANCH   2   5
BRANCH   1  21
ATOM     17  C   UNL     1       1.115  11.928  18.403  0.00  0.00    +0.000 C 
ATOM     18  C   UNL     1       0.702  10.454  18.484  0.00  0.00    +0.000 C 
ATOM     19  C   UNL     1      -0.669  10.255  17.824  0.00  0.00    +0.000 C 
ATOM     20  C   UNL     1       1.781   9.543  17.841  0.00  0.00    +0.000 C 
ATOM     21  C   UNL     1       1.784   8.218  18.634  0.00  0.00    +0.000 C 
ATOM     22  C   UNL     1       1.332   8.683  19.987  0.00  0.00    +0.000 A 
ATOM     23  C   UNL     1       1.387   7.996  21.192  0.00  0.00    +0.000 A 
ATOM     24  C   UNL     1       0.817   8.582  22.323  0.00  0.00    +0.000 A 
ATOM     25  C   UNL     1       0.187   9.831  22.240  0.00  0.00    +0.000 A 
ATOM     26  C   UNL     1       0.117  10.511  21.023  0.00  0.00    +0.000 A 
ATOM     27  C   UNL     1       0.695   9.932  19.902  0.00  0.00    +0.000 A 
ENDBRANCH   1  21
TORSDOF 2
ENDMDL
MODEL 4
REMARK VINA RESULT:      -8.6      2.125      7.884
REMARK  Name = 
REMARK  4 active torsions:
REMARK  status: ('A' for Active; 'I' for Inactive)
REMARK    1  A    between atoms: C_1  and  C_2
REMARK    2  A    between atoms: C_2  and  C_3
REMARK    3  A    between atoms: C_5  and  N_6
REMARK    4  A    between atoms: C_7  and  C_9
REMARK                            x       y       z     vdW  Elec       q    Type
REMARK                         _______ _______ _______ _____ _____    ______ ____
ROOT
ATOM      1  N   UNL     1       1.213   9.205  19.329  0.00  0.00    +0.000 N 
ATOM      2  C   UNL     1       2.047   8.613  18.405  0.00  0.00    +0.000 C 
ATOM      3  O   UNL     1       2.329   9.108  17.324  0.00  0.00    +0.000 OA
ATOM      4  H   UNL     1       0.984   8.690  20.172  0.00  0.00    +0.000 HD
ENDROOT
BRANCH   2   5
ATOM      5  C   UNL     1       2.594   7.240  18.816  0.00  0.00    +0.000 A 
ATOM      6  N   UNL     1       2.108   6.737  19.919  0.00  0.00    +0.000 NA
ATOM      7  N   UNL     1       2.544   5.506  20.310  0.00  0.00    +0.000 N 
ATOM      8  C   UNL     1       3.459   4.719  19.650  0.00  0.00    +0.000 A 
ATOM      9  O   UNL     1       3.786   3.612  20.057  0.00  0.00    +0.000 OA
ATOM     10  C   UNL     1       4.030   5.286  18.416  0.00  0.00    +0.000 A 
ATOM     11  C   UNL     1       4.981   4.556  17.689  0.00  0.00    +0.000 A 
ATOM     12  C   UNL     1       5.512   5.085  16.514  0.00  0.00    +0.000 A 
ATOM     13  C   UNL     1       5.102   6.342  16.077  0.00  0.00    +0.000 A 
ATOM     14  C   UNL     1       4.165   7.076  16.814  0.00  0.00    +0.000 A 
ATOM     15  C   UNL     1       3.612   6.545  17.986  0.00  0.00    +0.000 A 
ATOM     16  H   UNL     1       2.126   5.116  21.150  0.00  0.00    +0.000 HD
ENDBRANCH   2   5
BRANCH   1  21
ATOM     17  C   UNL     1      -1.455  12.506  21.508  0.00  0.00    +0.000 C 
ATOM     18  C   UNL     1      -0.690  12.292  20.197  0.00  0.00    +0.000 C 
ATOM     19  C   UNL     1      -0.223  13.641  19.633  0.00  0.00    +0.000 C 
ATOM     20  C   UNL     1       0.502  11.320  20.406  0.00  0.00    +0.000 C 
ATOM     21  C   UNL     1       0.667  10.520  19.096  0.00  0.00    +0.000 C 
ATOM     22  C   UNL     1      -0.739  10.517  18.573  0.00  0.00    +0.000 A 
ATOM     23  C   UNL     1      -1.274   9.735  17.558  0.00  0.00    +0.000 A 
ATOM     24  C   UNL     1      -2.593   9.964  17.161  0.00  0.00    +0.000 A 
ATOM     25  C   UNL     1      -3.355  10.975  17.763  0.00  0.00    +0.000 A 
ATOM     26  C   UNL     1      -2.808  11.772  18.769  0.00  0.00    +0.000 A 
ATOM     27  C   UNL     1      -1.500  11.534  19.171  0.00  0.00    +0.000 A 
ENDBRANCH   1  21
TORSDOF 2
ENDMDL
MODEL 5
REMARK VINA RESULT:      -8.5      1.515      1.845
REMARK  Name = 
REMARK  4 active torsions:
REMARK  status: ('A' for Active; 'I' for Inactive)
REMARK    1  A    between atoms: C_1  and  C_2
REMARK    2  A    between atoms: C_2  and  C_3
REMARK    3  A    between atoms: C_5  and  N_6
REMARK    4  A    between atoms: C_7  and  C_9
REMARK                            x       y       z     vdW  Elec       q    Type
REMARK                         _______ _______ _______ _____ _____    ______ ____
ROOT
ATOM      1  N   UNL     1       2.050   7.191  19.499  0.00  0.00    +0.000 N 
ATOM      2  C   UNL     1       2.133   8.349  18.756  0.00  0.00    +0.000 C 
ATOM      3  O   UNL     1       3.029   8.589  17.962  0.00  0.00    +0.000 OA
ATOM      4  H   UNL     1       1.304   7.108  20.182  0.00  0.00    +0.000 HD
ENDROOT
BRANCH   2   5
ATOM      5  C   UNL     1       1.010   9.363  19.015  0.00  0.00    +0.000 A 
ATOM      6  N   UNL     1       0.504   9.939  17.958  0.00  0.00    +0.000 NA
ATOM      7  N   UNL     1      -0.515  10.827  18.136  0.00  0.00    +0.000 N 
ATOM      8  C   UNL     1      -1.082  11.185  19.337  0.00  0.00    +0.000 A 
ATOM      9  O   UNL     1      -2.011  11.978  19.413  0.00  0.00    +0.000 OA
ATOM     10  C   UNL     1      -0.504  10.557  20.538  0.00  0.00    +0.000 A 
ATOM     11  C   UNL     1      -1.014  10.877  21.805  0.00  0.00    +0.000 A 
ATOM     12  C   UNL     1      -0.478  10.274  22.941  0.00  0.00    +0.000 A 
ATOM     13  C   UNL     1       0.569   9.366  22.811  0.00  0.00    +0.000 A 
ATOM     14  C   UNL     1       1.086   9.060  21.546  0.00  0.00    +0.000 A 
ATOM     15  C   UNL     1       0.542   9.647  20.396  0.00  0.00    +0.000 A 
ATOM     16  H   UNL     1      -0.920  11.236  17.299  0.00  0.00    +0.000 HD
ENDBRANCH   2   5
BRANCH   1  21
ATOM     17  C   UNL     1       2.854   3.405  16.710  0.00  0.00    +0.000 C 
ATOM     18  C   UNL     1       3.499   4.164  17.875  0.00  0.00    +0.000 C 
ATOM     19  C   UNL     1       5.024   3.996  17.833  0.00  0.00    +0.000 C 
ATOM     20  C   UNL     1       3.090   5.661  17.852  0.00  0.00    +0.000 C 
ATOM     21  C   UNL     1       3.011   6.130  19.321  0.00  0.00    +0.000 C 
ATOM     22  C   UNL     1       2.650   4.851  20.019  0.00  0.00    +0.000 A 
ATOM     23  C   UNL     1       2.188   4.686  21.318  0.00  0.00    +0.000 A 
ATOM     24  C   UNL     1       2.005   3.389  21.803  0.00  0.00    +0.000 A 
ATOM     25  C   UNL     1       2.299   2.278  21.000  0.00  0.00    +0.000 A 
ATOM     26  C   UNL     1       2.782   2.449  19.702  0.00  0.00    +0.000 A 
ATOM     27  C   UNL     1       2.951   3.739  19.218  0.00  0.00    +0.000 A 
ENDBRANCH   1  21
TORSDOF 2
ENDMDL
MODEL 6
REMARK VINA RESULT:      -8.3      2.128      7.461
REMARK  Name = 
REMARK  4 active torsions:
REMARK  status: ('A' for Active; 'I' for Inactive)
REMARK    1  A    between atoms: C_1  and  C_2
REMARK    2  A    between atoms: C_2  and  C_3
REMARK    3  A    between atoms: C_5  and  N_6
REMARK    4  A    between atoms: C_7  and  C_9
REMARK                            x       y       z     vdW  Elec       q    Type
REMARK                         _______ _______ _______ _____ _____    ______ ____
ROOT
ATOM      1  N   UNL     1       1.856   8.448  19.379  0.00  0.00    +0.000 N 
ATOM      2  C   UNL     1       2.286   7.923  18.179  0.00  0.00    +0.000 C 
ATOM      3  O   UNL     1       1.843   8.255  17.090  0.00  0.00    +0.000 OA
ATOM      4  H   UNL     1       2.235   8.064  20.237  0.00  0.00    +0.000 HD
ENDROOT
BRANCH   2   5
ATOM      5  C   UNL     1       3.370   6.843  18.300  0.00  0.00    +0.000 A 
ATOM      6  N   UNL     1       4.501   7.098  17.701  0.00  0.00    +0.000 NA
ATOM      7  N   UNL     1       5.504   6.180  17.804  0.00  0.00    +0.000 N 
ATOM      8  C   UNL     1       5.449   4.989  18.489  0.00  0.00    +0.000 A 
ATOM      9  O   UNL     1       6.402   4.224  18.550  0.00  0.00    +0.000 OA
ATOM     10  C   UNL     1       4.169   4.681  19.150  0.00  0.00    +0.000 A 
ATOM     11  C   UNL     1       4.023   3.479  19.858  0.00  0.00    +0.000 A 
ATOM     12  C   UNL     1       2.817   3.191  20.495  0.00  0.00    +0.000 A 
ATOM     13  C   UNL     1       1.761   4.096  20.413  0.00  0.00    +0.000 A 
ATOM     14  C   UNL     1       1.905   5.287  19.692  0.00  0.00    +0.000 A 
ATOM     15  C   UNL     1       3.119   5.594  19.063  0.00  0.00    +0.000 A 
ATOM     16  H   UNL     1       6.389   6.415  17.363  0.00  0.00    +0.000 HD
ENDBRANCH   2   5
BRANCH   1  21
ATOM     17  C   UNL     1       1.553  13.135  20.219  0.00  0.00    +0.000 C 
ATOM     18  C   UNL     1       0.665  11.956  19.805  0.00  0.00    +0.000 C 
ATOM     19  C   UNL     1      -0.510  12.455  18.953  0.00  0.00    +0.000 C 
ATOM     20  C   UNL     1       1.493  10.878  19.056  0.00  0.00    +0.000 C 
ATOM     21  C   UNL     1       0.876   9.508  19.412  0.00  0.00    +0.000 C 
ATOM     22  C   UNL     1       0.315   9.782  20.776  0.00  0.00    +0.000 A 
ATOM     23  C   UNL     1      -0.133   8.866  21.718  0.00  0.00    +0.000 A 
ATOM     24  C   UNL     1      -0.713   9.346  22.895  0.00  0.00    +0.000 A 
ATOM     25  C   UNL     1      -0.854  10.723  23.112  0.00  0.00    +0.000 A 
ATOM     26  C   UNL     1      -0.419  11.640  22.154  0.00  0.00    +0.000 A 
ATOM     27  C   UNL     1       0.168  11.162  20.990  0.00  0.00    +0.000 A 
ENDBRANCH   1  21
TORSDOF 2
ENDMDL
MODEL 7
REMARK VINA RESULT:      -8.3      1.104      1.246
REMARK  Name = 
REMARK  4 active torsions:
REMARK  status: ('A' for Active; 'I' for Inactive)
REMARK    1  A    between atoms: C_1  and  C_2
REMARK    2  A    between atoms: C_2  and  C_3
REMARK    3  A    between atoms: C_5  and  N_6
REMARK    4  A    between atoms: C_7  and  C_9
REMARK                            x       y       z     vdW  Elec       q    Type
REMARK                         _______ _______ _______ _____ _____    ______ ____
ROOT
ATOM      1  N   UNL     1       2.107   7.120  19.771  0.00  0.00    +0.000 N 
ATOM      2  C   UNL     1       2.147   8.130  18.835  0.00  0.00    +0.000 C 
ATOM      3  O   UNL     1       2.951   8.179  17.916  0.00  0.00    +0.000 OA
ATOM      4  H   UNL     1       1.446   7.197  20.537  0.00  0.00    +0.000 HD
ENDROOT
BRANCH   2   5
ATOM      5  C   UNL     1       1.105   9.239  19.037  0.00  0.00    +0.000 A 
ATOM      6  N   UNL     1       0.690   9.838  17.954  0.00  0.00    +0.000 NA
ATOM      7  N   UNL     1      -0.257  10.811  18.081  0.00  0.00    +0.000 N 
ATOM      8  C   UNL     1      -0.835  11.235  19.254  0.00  0.00    +0.000 A 
ATOM      9  O   UNL     1      -1.696  12.104  19.285  0.00  0.00    +0.000 OA
ATOM     10  C   UNL     1      -0.358  10.580  20.485  0.00  0.00    +0.000 A 
ATOM     11  C   UNL     1      -0.885  10.963  21.727  0.00  0.00    +0.000 A 
ATOM     12  C   UNL     1      -0.445  10.335  22.891  0.00  0.00    +0.000 A 
ATOM     13  C   UNL     1       0.526   9.340  22.812  0.00  0.00    +0.000 A 
ATOM     14  C   UNL     1       1.061   8.971  21.573  0.00  0.00    +0.000 A 
ATOM     15  C   UNL     1       0.613   9.583  20.395  0.00  0.00    +0.000 A 
ATOM     16  H   UNL     1      -0.594  11.239  17.224  0.00  0.00    +0.000 HD
ENDBRANCH   2   5
BRANCH   1  21
ATOM     17  C   UNL     1       4.424   4.550  16.487  0.00  0.00    +0.000 C 
ATOM     18  C   UNL     1       4.256   4.634  18.008  0.00  0.00    +0.000 C 
ATOM     19  C   UNL     1       5.515   4.105  18.708  0.00  0.00    +0.000 C 
ATOM     20  C   UNL     1       3.928   6.086  18.448  0.00  0.00    +0.000 C 
ATOM     21  C   UNL     1       2.996   5.987  19.674  0.00  0.00    +0.000 C 
ATOM     22  C   UNL     1       2.302   4.683  19.414  0.00  0.00    +0.000 A 
ATOM     23  C   UNL     1       1.166   4.179  20.031  0.00  0.00    +0.000 A 
ATOM     24  C   UNL     1       0.741   2.890  19.702  0.00  0.00    +0.000 A 
ATOM     25  C   UNL     1       1.459   2.115  18.780  0.00  0.00    +0.000 A 
ATOM     26  C   UNL     1       2.612   2.618  18.176  0.00  0.00    +0.000 A 
ATOM     27  C   UNL     1       3.025   3.904  18.496  0.00  0.00    +0.000 A 
ENDBRANCH   1  21
TORSDOF 2
ENDMDL
MODEL 8
REMARK VINA RESULT:      -8.2      1.029      1.180
REMARK  Name = 
REMARK  4 active torsions:
REMARK  status: ('A' for Active; 'I' for Inactive)
REMARK    1  A    between atoms: C_1  and  C_2
REMARK    2  A    between atoms: C_2  and  C_3
REMARK    3  A    between atoms: C_5  and  N_6
REMARK    4  A    between atoms: C_7  and  C_9
REMARK                            x       y       z     vdW  Elec       q    Type
REMARK                         _______ _______ _______ _____ _____    ______ ____
ROOT
ATOM      1  N   UNL     1       1.986   8.014  17.994  0.00  0.00    +0.000 N 
ATOM      2  C   UNL     1       1.330   8.556  19.078  0.00  0.00    +0.000 C 
ATOM      3  O   UNL     1       1.599   8.296  20.241  0.00  0.00    +0.000 OA
ATOM      4  H   UNL     1       1.649   8.239  17.064  0.00  0.00    +0.000 HD
ENDROOT
BRANCH   2   5
ATOM      5  C   UNL     1       0.186   9.517  18.725  0.00  0.00    +0.000 A 
ATOM      6  N   UNL     1      -0.292   9.418  17.515  0.00  0.00    +0.000 NA
ATOM      7  N   UNL     1      -1.327  10.233  17.164  0.00  0.00    +0.000 N 
ATOM      8  C   UNL     1      -1.937  11.166  17.969  0.00  0.00    +0.000 A 
ATOM      9  O   UNL     1      -2.878  11.848  17.585  0.00  0.00    +0.000 OA
ATOM     10  C   UNL     1      -1.391  11.302  19.331  0.00  0.00    +0.000 A 
ATOM     11  C   UNL     1      -1.945  12.240  20.213  0.00  0.00    +0.000 A 
ATOM     12  C   UNL     1      -1.439  12.361  21.505  0.00  0.00    +0.000 A 
ATOM     13  C   UNL     1      -0.377  11.555  21.908  0.00  0.00    +0.000 A 
ATOM     14  C   UNL     1       0.184  10.630  21.020  0.00  0.00    +0.000 A 
ATOM     15  C   UNL     1      -0.329  10.489  19.724  0.00  0.00    +0.000 A 
ATOM     16  H   UNL     1      -1.710  10.114  16.230  0.00  0.00    +0.000 HD
ENDBRANCH   2   5
BRANCH   1  21
ATOM     17  C   UNL     1       5.443   5.907  15.471  0.00  0.00    +0.000 C 
ATOM     18  C   UNL     1       4.959   6.037  16.919  0.00  0.00    +0.000 C 
ATOM     19  C   UNL     1       6.141   5.879  17.886  0.00  0.00    +0.000 C 
ATOM     20  C   UNL     1       4.223   7.387  17.136  0.00  0.00    +0.000 C 
ATOM     21  C   UNL     1       3.114   7.133  18.179  0.00  0.00    +0.000 C 
ATOM     22  C   UNL     1       2.807   5.684  17.938  0.00  0.00    +0.000 A 
ATOM     23  C   UNL     1       1.719   4.952  18.392  0.00  0.00    +0.000 A 
ATOM     24  C   UNL     1       1.679   3.580  18.131  0.00  0.00    +0.000 A 
ATOM     25  C   UNL     1       2.726   2.954  17.441  0.00  0.00    +0.000 A 
ATOM     26  C   UNL     1       3.828   3.691  17.003  0.00  0.00    +0.000 A 
ATOM     27  C   UNL     1       3.859   5.056  17.253  0.00  0.00    +0.000 A 
ENDBRANCH   1  21
TORSDOF 2
ENDMDL
MODEL 9
REMARK VINA RESULT:      -8.2      2.082      7.733
REMARK  Name = 
REMARK  4 active torsions:
REMARK  status: ('A' for Active; 'I' for Inactive)
REMARK    1  A    between atoms: C_1  and  C_2
REMARK    2  A    between atoms: C_2  and  C_3
REMARK    3  A    between atoms: C_5  and  N_6
REMARK    4  A    between atoms: C_7  and  C_9
REMARK                            x       y       z     vdW  Elec       q    Type
REMARK                         _______ _______ _______ _____ _____    ______ ____
ROOT
ATOM      1  N   UNL     1       1.402   9.026  19.079  0.00  0.00    +0.000 N 
ATOM      2  C   UNL     1       1.844   7.955  19.825  0.00  0.00    +0.000 C 
ATOM      3  O   UNL     1       1.758   7.888  21.042  0.00  0.00    +0.000 OA
ATOM      4  H   UNL     1       1.575   9.022  18.079  0.00  0.00    +0.000 HD
ENDROOT
BRANCH   2   5
ATOM      5  C   UNL     1       2.495   6.827  19.012  0.00  0.00    +0.000 A 
ATOM      6  N   UNL     1       3.316   7.202  18.069  0.00  0.00    +0.000 NA
ATOM      7  N   UNL     1       3.940   6.235  17.339  0.00  0.00    +0.000 N 
ATOM      8  C   UNL     1       3.796   4.876  17.495  0.00  0.00    +0.000 A 
ATOM      9  O   UNL     1       4.408   4.068  16.810  0.00  0.00    +0.000 OA
ATOM     10  C   UNL     1       2.854   4.442  18.542  0.00  0.00    +0.000 A 
ATOM     11  C   UNL     1       2.636   3.074  18.760  0.00  0.00    +0.000 A 
ATOM     12  C   UNL     1       1.757   2.661  19.758  0.00  0.00    +0.000 A 
ATOM     13  C   UNL     1       1.091   3.612  20.527  0.00  0.00    +0.000 A 
ATOM     14  C   UNL     1       1.299   4.978  20.297  0.00  0.00    +0.000 A 
ATOM     15  C   UNL     1       2.194   5.403  19.308  0.00  0.00    +0.000 A 
ATOM     16  H   UNL     1       4.604   6.546  16.635  0.00  0.00    +0.000 HD
ENDBRANCH   2   5
BRANCH   1  21
ATOM     17  C   UNL     1      -2.566  11.634  18.617  0.00  0.00    +0.000 C 
ATOM     18  C   UNL     1      -1.346  11.504  19.536  0.00  0.00    +0.000 C 
ATOM     19  C   UNL     1      -1.702  11.973  20.954  0.00  0.00    +0.000 C 
ATOM     20  C   UNL     1      -0.808  10.048  19.536  0.00  0.00    +0.000 C 
ATOM     21  C   UNL     1       0.724  10.134  19.707  0.00  0.00    +0.000 C 
ATOM     22  C   UNL     1       1.017  11.467  19.082  0.00  0.00    +0.000 A 
ATOM     23  C   UNL     1       2.249  11.984  18.704  0.00  0.00    +0.000 A 
ATOM     24  C   UNL     1       2.306  13.295  18.227  0.00  0.00    +0.000 A 
ATOM     25  C   UNL     1       1.147  14.078  18.149  0.00  0.00    +0.000 A 
ATOM     26  C   UNL     1      -0.087  13.561  18.548  0.00  0.00    +0.000 A 
ATOM     27  C   UNL     1      -0.143  12.253  19.011  0.00  0.00    +0.000 A 
ENDBRANCH   1  21
TORSDOF 2
ENDMDL
