MODEL 1
REMARK VINA RESULT:      -9.1      0.000      0.000
REMARK  Name = 
REMARK  4 active torsions:
REMARK  status: ('A' for Active; 'I' for Inactive)
REMARK    1  A    between atoms: C_1  and  N_2
REMARK    2  A    between atoms: C_9  and  C_10
REMARK    3  A    between atoms: C_14  and  C_15
REMARK    4  A    between atoms: C_21  and  C_22
REMARK                            x       y       z     vdW  Elec       q    Type
REMARK                         _______ _______ _______ _____ _____    ______ ____
ROOT
ATOM      1  C   UNL     1       0.154   9.788  20.253  0.00  0.00    +0.000 A 
ATOM      2  C   UNL     1       0.515   9.772  21.610  0.00  0.00    +0.000 A 
ATOM      3  C   UNL     1       1.449   8.859  22.098  0.00  0.00    +0.000 A 
ATOM      4  C   UNL     1       2.049   7.946  21.234  0.00  0.00    +0.000 A 
ATOM      5  C   UNL     1       1.835   8.030  19.857  0.00  0.00    +0.000 A 
ATOM      6  C   UNL     1       0.872   8.938  19.385  0.00  0.00    +0.000 A 
ENDROOT
BRANCH   1  15
ATOM      7  C   UNL     1      -3.395  10.019  15.980  0.00  0.00    +0.000 C 
ATOM      8  N   UNL     1      -3.577  10.914  17.086  0.00  0.00    +0.000 N 
ATOM      9  C   UNL     1      -4.598  11.869  17.233  0.00  0.00    +0.000 A 
ATOM     10  O   UNL     1      -5.516  12.103  16.465  0.00  0.00    +0.000 OA
ATOM     11  N   UNL     1      -4.361  12.524  18.448  0.00  0.00    +0.000 N 
ATOM     12  C   UNL     1      -3.225  11.994  19.037  0.00  0.00    +0.000 A 
ATOM     13  N   UNL     1      -2.681  12.357  20.198  0.00  0.00    +0.000 NA
ATOM     14  C   UNL     1      -1.568  11.642  20.529  0.00  0.00    +0.000 A 
ATOM     15  C   UNL     1      -0.995  10.589  19.773  0.00  0.00    +0.000 A 
ATOM     16  C   UNL     1      -1.627  10.274  18.554  0.00  0.00    +0.000 A 
ATOM     17  C   UNL     1      -2.743  10.996  18.203  0.00  0.00    +0.000 A 
ATOM     18  H   UNL     1      -4.924  13.261  18.835  0.00  0.00    +0.000 HD
ENDBRANCH   1  15
BRANCH   5  19
ATOM     19  C   UNL     1       2.520   7.148  18.862  0.00  0.00    +0.000 C 
ATOM     20  O   UNL     1       3.289   7.667  18.049  0.00  0.00    +0.000 OA
ATOM     21  N   UNL     1       2.351   5.766  18.870  0.00  0.00    +0.000 N 
ATOM     22  C   UNL     1       1.843   4.946  19.976  0.00  0.00    +0.000 C 
ATOM     23  C   UNL     1       2.843   3.860  20.378  0.00  0.00    +0.000 C 
ATOM     24  O   UNL     1       3.295   3.093  19.259  0.00  0.00    +0.000 OA
ATOM     25  C   UNL     1       3.865   3.899  18.203  0.00  0.00    +0.000 C 
ATOM     26  C   UNL     1       2.856   4.965  17.742  0.00  0.00    +0.000 C 
BRANCH  25  27
ATOM     27  C   UNL     1       5.195   4.424  18.631  0.00  0.00    +0.000 A 
ATOM     28  N   UNL     1       5.454   5.257  19.624  0.00  0.00    +0.000 NA
ATOM     29  N   UNL     1       6.817   5.412  19.650  0.00  0.00    +0.000 NA
ATOM     30  N   UNL     1       7.394   4.687  18.703  0.00  0.00    +0.000 NA
ATOM     31  N   UNL     1       6.392   4.069  18.071  0.00  0.00    +0.000 N 
ATOM     32  H   UNL     1       6.592   3.448  17.289  0.00  0.00    +0.000 HD
ENDBRANCH  25  27
ENDBRANCH   5  19
TORSDOF 3
ENDMDL
MODEL 2
REMARK VINA RESULT:      -8.8      2.563      3.282
REMARK  Name = 
REMARK  4 active torsions:
REMARK  status: ('A' for Active; 'I' for Inactive)
REMARK    1  A    between atoms: C_1  and  N_2
REMARK    2  A    between atoms: C_9  and  C_10
REMARK    3  A    between atoms: C_14  and  C_15
REMARK    4  A    between atoms: C_21  and  C_22
REMARK                            x       y       z     vdW  Elec       q    Type
REMARK                         _______ _______ _______ _____ _____    ______ ____
ROOT
ATOM      1  C   UNL     1       0.912   9.804  20.069  0.00  0.00    +0.000 A 
ATOM      2  C   UNL     1       0.479   9.235  21.277  0.00  0.00    +0.000 A 
ATOM      3  C   UNL     1       0.733   7.897  21.576  0.00  0.00    +0.000 A 
ATOM      4  C   UNL     1       1.434   7.100  20.673  0.00  0.00    +0.000 A 
ATOM      5  C   UNL     1       2.013   7.665  19.536  0.00  0.00    +0.000 A 
ATOM      6  C   UNL     1       1.727   9.008  19.236  0.00  0.00    +0.000 A 
ENDROOT
BRANCH   1  15
ATOM      7  C   UNL     1       2.216  15.168  20.729  0.00  0.00    +0.000 C 
ATOM      8  N   UNL     1       1.164  14.814  19.821  0.00  0.00    +0.000 N 
ATOM      9  C   UNL     1       0.405  15.695  19.032  0.00  0.00    +0.000 A 
ATOM     10  O   UNL     1       0.505  16.909  18.962  0.00  0.00    +0.000 OA
ATOM     11  N   UNL     1      -0.517  14.909  18.328  0.00  0.00    +0.000 N 
ATOM     12  C   UNL     1      -0.337  13.579  18.672  0.00  0.00    +0.000 A 
ATOM     13  N   UNL     1      -1.023  12.534  18.213  0.00  0.00    +0.000 NA
ATOM     14  C   UNL     1      -0.608  11.339  18.723  0.00  0.00    +0.000 A 
ATOM     15  C   UNL     1       0.452  11.146  19.643  0.00  0.00    +0.000 A 
ATOM     16  C   UNL     1       1.120  12.305  20.085  0.00  0.00    +0.000 A 
ATOM     17  C   UNL     1       0.704  13.516  19.587  0.00  0.00    +0.000 A 
ATOM     18  H   UNL     1      -1.200  15.251  17.676  0.00  0.00    +0.000 HD
ENDBRANCH   1  15
BRANCH   5  19
ATOM     19  C   UNL     1       2.860   6.893  18.573  0.00  0.00    +0.000 C 
ATOM     20  O   UNL     1       3.665   7.512  17.872  0.00  0.00    +0.000 OA
ATOM     21  N   UNL     1       2.798   5.504  18.494  0.00  0.00    +0.000 N 
ATOM     22  C   UNL     1       2.246   4.588  19.499  0.00  0.00    +0.000 C 
ATOM     23  C   UNL     1       3.282   3.555  19.948  0.00  0.00    +0.000 C 
ATOM     24  O   UNL     1       3.901   2.887  18.844  0.00  0.00    +0.000 OA
ATOM     25  C   UNL     1       4.510   3.792  17.896  0.00  0.00    +0.000 C 
ATOM     26  C   UNL     1       3.474   4.809  17.386  0.00  0.00    +0.000 C 
BRANCH  25  27
ATOM     27  C   UNL     1       5.746   4.386  18.486  0.00  0.00    +0.000 A 
ATOM     28  N   UNL     1       5.855   5.077  19.606  0.00  0.00    +0.000 NA
ATOM     29  N   UNL     1       7.188   5.372  19.746  0.00  0.00    +0.000 NA
ATOM     30  N   UNL     1       7.893   4.870  18.743  0.00  0.00    +0.000 NA
ATOM     31  N   UNL     1       7.003   4.253  17.961  0.00  0.00    +0.000 N 
ATOM     32  H   UNL     1       7.313   3.787  17.110  0.00  0.00    +0.000 HD
ENDBRANCH  25  27
ENDBRANCH   5  19
TORSDOF 3
ENDMDL
MODEL 3
REMARK VINA RESULT:      -8.8      2.904      4.133
REMARK  Name = 
REMARK  4 active torsions:
REMARK  status: ('A' for Active; 'I' for Inactive)
REMARK    1  A    between atoms: C_1  and  N_2
REMARK    2  A    between atoms: C_9  and  C_10
REMARK    3  A    between atoms: C_14  and  C_15
REMARK    4  A    between atoms: C_21  and  C_22
REMARK                            x       y       z     vdW  Elec       q    Type
REMARK                         _______ _______ _______ _____ _____    ______ ____
ROOT
ATOM      1  C   UNL     1       1.428   8.941  19.477  0.00  0.00    +0.000 A 
ATOM      2  C   UNL     1       1.666   9.658  18.293  0.00  0.00    +0.000 A 
ATOM      3  C   UNL     1       2.551   9.181  17.327  0.00  0.00    +0.000 A 
ATOM      4  C   UNL     1       3.213   7.972  17.521  0.00  0.00    +0.000 A 
ATOM      5  C   UNL     1       2.890   7.157  18.608  0.00  0.00    +0.000 A 
ATOM      6  C   UNL     1       2.015   7.662  19.585  0.00  0.00    +0.000 A 
ENDROOT
BRANCH   1  15
ATOM      7  C   UNL     1      -2.248  12.992  20.466  0.00  0.00    +0.000 C 
ATOM      8  N   UNL     1      -1.872  12.116  21.538  0.00  0.00    +0.000 N 
ATOM      9  C   UNL     1      -2.355  12.149  22.857  0.00  0.00    +0.000 A 
ATOM     10  O   UNL     1      -3.184  12.910  23.329  0.00  0.00    +0.000 OA
ATOM     11  N   UNL     1      -1.691  11.130  23.552  0.00  0.00    +0.000 N 
ATOM     12  C   UNL     1      -0.820  10.484  22.690  0.00  0.00    +0.000 A 
ATOM     13  N   UNL     1      -0.014   9.464  22.982  0.00  0.00    +0.000 NA
ATOM     14  C   UNL     1       0.721   9.026  21.920  0.00  0.00    +0.000 A 
ATOM     15  C   UNL     1       0.676   9.542  20.602  0.00  0.00    +0.000 A 
ATOM     16  C   UNL     1      -0.196  10.627  20.381  0.00  0.00    +0.000 A 
ATOM     17  C   UNL     1      -0.933  11.086  21.445  0.00  0.00    +0.000 A 
ATOM     18  H   UNL     1      -1.825  10.900  24.520  0.00  0.00    +0.000 HD
ENDBRANCH   1  15
BRANCH   5  19
ATOM     19  C   UNL     1       3.487   5.803  18.828  0.00  0.00    +0.000 C 
ATOM     20  O   UNL     1       4.367   5.682  19.685  0.00  0.00    +0.000 OA
ATOM     21  N   UNL     1       3.038   4.683  18.134  0.00  0.00    +0.000 N 
ATOM     22  C   UNL     1       1.765   4.541  17.418  0.00  0.00    +0.000 C 
ATOM     23  C   UNL     1       0.956   3.350  17.939  0.00  0.00    +0.000 C 
ATOM     24  O   UNL     1       1.725   2.145  17.982  0.00  0.00    +0.000 OA
ATOM     25  C   UNL     1       2.942   2.268  18.752  0.00  0.00    +0.000 C 
ATOM     26  C   UNL     1       3.800   3.425  18.213  0.00  0.00    +0.000 C 
BRANCH  25  27
ATOM     27  C   UNL     1       2.614   2.344  20.206  0.00  0.00    +0.000 A 
ATOM     28  N   UNL     1       3.456   2.421  21.222  0.00  0.00    +0.000 NA
ATOM     29  N   UNL     1       2.684   2.510  22.353  0.00  0.00    +0.000 NA
ATOM     30  N   UNL     1       1.394   2.498  22.051  0.00  0.00    +0.000 NA
ATOM     31  N   UNL     1       1.346   2.399  20.719  0.00  0.00    +0.000 N 
ATOM     32  H   UNL     1       0.445   2.367  20.245  0.00  0.00    +0.000 HD
ENDBRANCH  25  27
ENDBRANCH   5  19
TORSDOF 3
ENDMDL
MODEL 4
REMARK VINA RESULT:      -8.8      1.151      1.931
REMARK  Name = 
REMARK  4 active torsions:
REMARK  status: ('A' for Active; 'I' for Inactive)
REMARK    1  A    between atoms: C_1  and  N_2
REMARK    2  A    between atoms: C_9  and  C_10
REMARK    3  A    between atoms: C_14  and  C_15
REMARK    4  A    between atoms: C_21  and  C_22
REMARK                            x       y       z     vdW  Elec       q    Type
REMARK                         _______ _______ _______ _____ _____    ______ ____
ROOT
ATOM      1  C   UNL     1      -0.257   9.733  18.762  0.00  0.00    +0.000 A 
ATOM      2  C   UNL     1       0.032  10.139  20.076  0.00  0.00    +0.000 A 
ATOM      3  C   UNL     1       1.100   9.588  20.783  0.00  0.00    +0.000 A 
ATOM      4  C   UNL     1       1.908   8.623  20.187  0.00  0.00    +0.000 A 
ATOM      5  C   UNL     1       1.751   8.306  18.836  0.00  0.00    +0.000 A 
ATOM      6  C   UNL     1       0.656   8.851  18.145  0.00  0.00    +0.000 A 
ENDROOT
BRANCH   1  15
ATOM      7  C   UNL     1      -4.910  12.595  19.792  0.00  0.00    +0.000 C 
ATOM      8  N   UNL     1      -4.681  12.091  18.469  0.00  0.00    +0.000 N 
ATOM      9  C   UNL     1      -5.517  12.258  17.351  0.00  0.00    +0.000 A 
ATOM     10  O   UNL     1      -6.573  12.864  17.294  0.00  0.00    +0.000 OA
ATOM     11  N   UNL     1      -4.906  11.577  16.290  0.00  0.00    +0.000 N 
ATOM     12  C   UNL     1      -3.726  11.003  16.736  0.00  0.00    +0.000 A 
ATOM     13  N   UNL     1      -2.869  10.277  16.020  0.00  0.00    +0.000 NA
ATOM     14  C   UNL     1      -1.783   9.857  16.729  0.00  0.00    +0.000 A 
ATOM     15  C   UNL     1      -1.513  10.137  18.092  0.00  0.00    +0.000 A 
ATOM     16  C   UNL     1      -2.476  10.904  18.778  0.00  0.00    +0.000 A 
ATOM     17  C   UNL     1      -3.581  11.324  18.078  0.00  0.00    +0.000 A 
ATOM     18  H   UNL     1      -5.262  11.515  15.353  0.00  0.00    +0.000 HD
ENDBRANCH   1  15
BRANCH   5  19
ATOM     19  C   UNL     1       2.644   7.354  18.105  0.00  0.00    +0.000 C 
ATOM     20  O   UNL     1       3.478   7.815  17.321  0.00  0.00    +0.000 OA
ATOM     21  N   UNL     1       2.589   5.981  18.328  0.00  0.00    +0.000 N 
ATOM     22  C   UNL     1       1.994   5.299  19.483  0.00  0.00    +0.000 C 
ATOM     23  C   UNL     1       3.011   4.401  20.192  0.00  0.00    +0.000 C 
ATOM     24  O   UNL     1       3.683   3.517  19.290  0.00  0.00    +0.000 OA
ATOM     25  C   UNL     1       4.332   4.201  18.195  0.00  0.00    +0.000 C 
ATOM     26  C   UNL     1       3.317   5.069  17.430  0.00  0.00    +0.000 C 
BRANCH  25  27
ATOM     27  C   UNL     1       5.538   4.925  18.694  0.00  0.00    +0.000 A 
ATOM     28  N   UNL     1       6.246   4.663  19.779  0.00  0.00    +0.000 NA
ATOM     29  N   UNL     1       7.275   5.571  19.793  0.00  0.00    +0.000 NA
ATOM     30  N   UNL     1       7.215   6.373  18.741  0.00  0.00    +0.000 NA
ATOM     31  N   UNL     1       6.141   5.972  18.054  0.00  0.00    +0.000 N 
ATOM     32  H   UNL     1       5.884   6.450  17.191  0.00  0.00    +0.000 HD
ENDBRANCH  25  27
ENDBRANCH   5  19
TORSDOF 3
ENDMDL
MODEL 5
REMARK VINA RESULT:      -8.7      2.591      3.833
REMARK  Name = 
REMARK  4 active torsions:
REMARK  status: ('A' for Active; 'I' for Inactive)
REMARK    1  A    between atoms: C_1  and  N_2
REMARK    2  A    between atoms: C_9  and  C_10
REMARK    3  A    between atoms: C_14  and  C_15
REMARK    4  A    between atoms: C_21  and  C_22
REMARK                            x       y       z     vdW  Elec       q    Type
REMARK                         _______ _______ _______ _____ _____    ______ ____
ROOT
ATOM      1  C   UNL     1       1.465   7.480  20.594  0.00  0.00    +0.000 A 
ATOM      2  C   UNL     1       0.933   6.250  21.014  0.00  0.00    +0.000 A 
ATOM      3  C   UNL     1       1.315   5.054  20.409  0.00  0.00    +0.000 A 
ATOM      4  C   UNL     1       2.245   5.062  19.372  0.00  0.00    +0.000 A 
ATOM      5  C   UNL     1       2.910   6.241  19.029  0.00  0.00    +0.000 A 
ATOM      6  C   UNL     1       2.496   7.441  19.631  0.00  0.00    +0.000 A 
ENDROOT
BRANCH   1  15
ATOM      7  C   UNL     1      -1.449  11.817  18.694  0.00  0.00    +0.000 C 
ATOM      8  N   UNL     1      -1.139  11.745  20.093  0.00  0.00    +0.000 N 
ATOM      9  C   UNL     1      -1.515  12.668  21.084  0.00  0.00    +0.000 A 
ATOM     10  O   UNL     1      -2.177  13.683  20.945  0.00  0.00    +0.000 OA
ATOM     11  N   UNL     1      -0.970  12.205  22.288  0.00  0.00    +0.000 N 
ATOM     12  C   UNL     1      -0.276  11.030  22.052  0.00  0.00    +0.000 A 
ATOM     13  N   UNL     1       0.379  10.294  22.949  0.00  0.00    +0.000 NA
ATOM     14  C   UNL     1       0.957   9.177  22.422  0.00  0.00    +0.000 A 
ATOM     15  C   UNL     1       0.899   8.764  21.068  0.00  0.00    +0.000 A 
ATOM     16  C   UNL     1       0.195   9.605  20.184  0.00  0.00    +0.000 A 
ATOM     17  C   UNL     1      -0.383  10.740  20.700  0.00  0.00    +0.000 A 
ATOM     18  H   UNL     1      -1.069  12.650  23.183  0.00  0.00    +0.000 HD
ENDBRANCH   1  15
BRANCH   5  19
ATOM     19  C   UNL     1       3.989   6.307  17.994  0.00  0.00    +0.000 C 
ATOM     20  O   UNL     1       3.944   7.210  17.156  0.00  0.00    +0.000 OA
ATOM     21  N   UNL     1       5.057   5.413  17.993  0.00  0.00    +0.000 N 
ATOM     22  C   UNL     1       5.505   4.574  19.110  0.00  0.00    +0.000 C 
ATOM     23  C   UNL     1       6.973   4.833  19.456  0.00  0.00    +0.000 C 
ATOM     24  O   UNL     1       7.826   4.762  18.309  0.00  0.00    +0.000 OA
ATOM     25  C   UNL     1       7.424   5.648  17.241  0.00  0.00    +0.000 C 
ATOM     26  C   UNL     1       5.966   5.369  16.836  0.00  0.00    +0.000 C 
BRANCH  25  27
ATOM     27  C   UNL     1       7.719   7.062  17.618  0.00  0.00    +0.000 A 
ATOM     28  N   UNL     1       7.259   8.163  17.049  0.00  0.00    +0.000 NA
ATOM     29  N   UNL     1       7.778   9.210  17.769  0.00  0.00    +0.000 NA
ATOM     30  N   UNL     1       8.534   8.774  18.765  0.00  0.00    +0.000 NA
ATOM     31  N   UNL     1       8.497   7.441  18.678  0.00  0.00    +0.000 N 
ATOM     32  H   UNL     1       9.015   6.874  19.347  0.00  0.00    +0.000 HD
ENDBRANCH  25  27
ENDBRANCH   5  19
TORSDOF 3
ENDMDL
MODEL 6
REMARK VINA RESULT:      -8.6      1.500      1.665
REMARK  Name = 
REMARK  4 active torsions:
REMARK  status: ('A' for Active; 'I' for Inactive)
REMARK    1  A    between atoms: C_1  and  N_2
REMARK    2  A    between atoms: C_9  and  C_10
REMARK    3  A    between atoms: C_14  and  C_15
REMARK    4  A    between atoms: C_21  and  C_22
REMARK                            x       y       z     vdW  Elec       q    Type
REMARK                         _______ _______ _______ _____ _____    ______ ____
ROOT
ATOM      1  C   UNL     1       0.226   9.465  19.880  0.00  0.00    +0.000 A 
ATOM      2  C   UNL     1       0.392   9.036  21.207  0.00  0.00    +0.000 A 
ATOM      3  C   UNL     1       1.322   8.050  21.535  0.00  0.00    +0.000 A 
ATOM      4  C   UNL     1       2.113   7.477  20.541  0.00  0.00    +0.000 A 
ATOM      5  C   UNL     1       2.088   7.983  19.240  0.00  0.00    +0.000 A 
ATOM      6  C   UNL     1       1.128   8.958  18.920  0.00  0.00    +0.000 A 
ENDROOT
BRANCH   1  15
ATOM      7  C   UNL     1      -3.510  10.030  15.803  0.00  0.00    +0.000 C 
ATOM      8  N   UNL     1      -3.598  10.885  16.951  0.00  0.00    +0.000 N 
ATOM      9  C   UNL     1      -4.567  11.876  17.187  0.00  0.00    +0.000 A 
ATOM     10  O   UNL     1      -5.509  12.182  16.476  0.00  0.00    +0.000 OA
ATOM     11  N   UNL     1      -4.241  12.469  18.414  0.00  0.00    +0.000 N 
ATOM     12  C   UNL     1      -3.103  11.865  18.923  0.00  0.00    +0.000 A 
ATOM     13  N   UNL     1      -2.488  12.156  20.069  0.00  0.00    +0.000 NA
ATOM     14  C   UNL     1      -1.394  11.379  20.315  0.00  0.00    +0.000 A 
ATOM     15  C   UNL     1      -0.907  10.335  19.490  0.00  0.00    +0.000 A 
ATOM     16  C   UNL     1      -1.611  10.100  18.293  0.00  0.00    +0.000 A 
ATOM     17  C   UNL     1      -2.708  10.883  18.027  0.00  0.00    +0.000 A 
ATOM     18  H   UNL     1      -4.750  13.212  18.857  0.00  0.00    +0.000 HD
ENDBRANCH   1  15
BRANCH   5  19
ATOM     19  C   UNL     1       2.978   7.484  18.146  0.00  0.00    +0.000 C 
ATOM     20  O   UNL     1       3.319   8.273  17.261  0.00  0.00    +0.000 OA
ATOM     21  N   UNL     1       3.466   6.180  18.137  0.00  0.00    +0.000 N 
ATOM     22  C   UNL     1       3.529   5.254  19.273  0.00  0.00    +0.000 C 
ATOM     23  C   UNL     1       4.957   4.763  19.522  0.00  0.00    +0.000 C 
ATOM     24  O   UNL     1       5.574   4.255  18.336  0.00  0.00    +0.000 OA
ATOM     25  C   UNL     1       5.579   5.199  17.242  0.00  0.00    +0.000 C 
ATOM     26  C   UNL     1       4.145   5.667  16.935  0.00  0.00    +0.000 C 
BRANCH  25  27
ATOM     27  C   UNL     1       6.557   6.291  17.521  0.00  0.00    +0.000 A 
ATOM     28  N   UNL     1       7.617   6.245  18.310  0.00  0.00    +0.000 NA
ATOM     29  N   UNL     1       8.222   7.473  18.210  0.00  0.00    +0.000 NA
ATOM     30  N   UNL     1       7.562   8.261  17.374  0.00  0.00    +0.000 NA
ATOM     31  N   UNL     1       6.531   7.530  16.941  0.00  0.00    +0.000 N 
ATOM     32  H   UNL     1       5.868   7.931  16.279  0.00  0.00    +0.000 HD
ENDBRANCH  25  27
ENDBRANCH   5  19
TORSDOF 3
ENDMDL
MODEL 7
REMARK VINA RESULT:      -8.6      2.921      4.793
REMARK  Name = 
REMARK  4 active torsions:
REMARK  status: ('A' for Active; 'I' for Inactive)
REMARK    1  A    between atoms: C_1  and  N_2
REMARK    2  A    between atoms: C_9  and  C_10
REMARK    3  A    between atoms: C_14  and  C_15
REMARK    4  A    between atoms: C_21  and  C_22
REMARK                            x       y       z     vdW  Elec       q    Type
REMARK                         _______ _______ _______ _____ _____    ______ ____
ROOT
ATOM      1  C   UNL     1       2.264   6.777  19.713  0.00  0.00    +0.000 A 
ATOM      2  C   UNL     1       1.530   5.998  20.622  0.00  0.00    +0.000 A 
ATOM      3  C   UNL     1       1.838   4.654  20.832  0.00  0.00    +0.000 A 
ATOM      4  C   UNL     1       2.894   4.063  20.142  0.00  0.00    +0.000 A 
ATOM      5  C   UNL     1       3.742   4.839  19.350  0.00  0.00    +0.000 A 
ATOM      6  C   UNL     1       3.403   6.185  19.128  0.00  0.00    +0.000 A 
ENDROOT
BRANCH   1  15
ATOM      7  C   UNL     1      -0.437  11.159  21.814  0.00  0.00    +0.000 C 
ATOM      8  N   UNL     1       0.120  11.251  20.495  0.00  0.00    +0.000 N 
ATOM      9  C   UNL     1       0.079  12.368  19.644  0.00  0.00    +0.000 A 
ATOM     10  O   UNL     1      -0.419  13.459  19.867  0.00  0.00    +0.000 OA
ATOM     11  N   UNL     1       0.723  11.990  18.458  0.00  0.00    +0.000 N 
ATOM     12  C   UNL     1       1.150  10.677  18.570  0.00  0.00    +0.000 A 
ATOM     13  N   UNL     1       1.800   9.966  17.650  0.00  0.00    +0.000 NA
ATOM     14  C   UNL     1       2.104   8.699  18.052  0.00  0.00    +0.000 A 
ATOM     15  C   UNL     1       1.805   8.127  19.314  0.00  0.00    +0.000 A 
ATOM     16  C   UNL     1       1.108   8.945  20.225  0.00  0.00    +0.000 A 
ATOM     17  C   UNL     1       0.785  10.220  19.828  0.00  0.00    +0.000 A 
ATOM     18  H   UNL     1       0.858  12.577  17.654  0.00  0.00    +0.000 HD
ENDBRANCH   1  15
BRANCH   5  19
ATOM     19  C   UNL     1       4.951   4.293  18.658  0.00  0.00    +0.000 C 
ATOM     20  O   UNL     1       4.928   3.121  18.273  0.00  0.00    +0.000 OA
ATOM     21  N   UNL     1       6.065   5.086  18.396  0.00  0.00    +0.000 N 
ATOM     22  C   UNL     1       6.120   6.552  18.385  0.00  0.00    +0.000 C 
ATOM     23  C   UNL     1       6.622   7.087  17.042  0.00  0.00    +0.000 C 
ATOM     24  O   UNL     1       7.842   6.466  16.628  0.00  0.00    +0.000 OA
ATOM     25  C   UNL     1       7.760   5.024  16.567  0.00  0.00    +0.000 C 
ATOM     26  C   UNL     1       7.310   4.457  17.925  0.00  0.00    +0.000 C 
BRANCH  25  27
ATOM     27  C   UNL     1       6.925   4.615  15.399  0.00  0.00    +0.000 A 
ATOM     28  N   UNL     1       7.005   5.054  14.155  0.00  0.00    +0.000 NA
ATOM     29  N   UNL     1       6.062   4.357  13.442  0.00  0.00    +0.000 NA
ATOM     30  N   UNL     1       5.417   3.500  14.219  0.00  0.00    +0.000 NA
ATOM     31  N   UNL     1       5.952   3.654  15.433  0.00  0.00    +0.000 N 
ATOM     32  H   UNL     1       5.610   3.094  16.213  0.00  0.00    +0.000 HD
ENDBRANCH  25  27
ENDBRANCH   5  19
TORSDOF 3
ENDMDL
MODEL 8
REMARK VINA RESULT:      -8.6      2.764      3.946
REMARK  Name = 
REMARK  4 active torsions:
REMARK  status: ('A' for Active; 'I' for Inactive)
REMARK    1  A    between atoms: C_1  and  N_2
REMARK    2  A    between atoms: C_9  and  C_10
REMARK    3  A    between atoms: C_14  and  C_15
REMARK    4  A    between atoms: C_21  and  C_22
REMARK                            x       y       z     vdW  Elec       q    Type
REMARK                         _______ _______ _______ _____ _____    ______ ____
ROOT
ATOM      1  C   UNL     1       0.649   9.660  19.889  0.00  0.00    +0.000 A 
ATOM      2  C   UNL     1       0.827  10.187  18.599  0.00  0.00    +0.000 A 
ATOM      3  C   UNL     1       1.701   9.591  17.691  0.00  0.00    +0.000 A 
ATOM      4  C   UNL     1       2.411   8.449  18.052  0.00  0.00    +0.000 A 
ATOM      5  C   UNL     1       2.148   7.807  19.264  0.00  0.00    +0.000 A 
ATOM      6  C   UNL     1       1.284   8.434  20.178  0.00  0.00    +0.000 A 
ENDROOT
BRANCH   1  15
ATOM      7  C   UNL     1      -3.385  13.458  20.351  0.00  0.00    +0.000 C 
ATOM      8  N   UNL     1      -2.845  12.866  21.541  0.00  0.00    +0.000 N 
ATOM      9  C   UNL     1      -3.245  13.128  22.863  0.00  0.00    +0.000 A 
ATOM     10  O   UNL     1      -4.121  13.888  23.241  0.00  0.00    +0.000 OA
ATOM     11  N   UNL     1      -2.428  12.346  23.690  0.00  0.00    +0.000 N 
ATOM     12  C   UNL     1      -1.547  11.621  22.905  0.00  0.00    +0.000 A 
ATOM     13  N   UNL     1      -0.616  10.766  23.326  0.00  0.00    +0.000 NA
ATOM     14  C   UNL     1       0.094  10.187  22.316  0.00  0.00    +0.000 A 
ATOM     15  C   UNL     1      -0.092  10.409  20.929  0.00  0.00    +0.000 A 
ATOM     16  C   UNL     1      -1.091  11.335  20.569  0.00  0.00    +0.000 A 
ATOM     17  C   UNL     1      -1.806  11.934  21.578  0.00  0.00    +0.000 A 
ATOM     18  H   UNL     1      -2.473  12.312  24.693  0.00  0.00    +0.000 HD
ENDBRANCH   1  15
BRANCH   5  19
ATOM     19  C   UNL     1       2.800   6.524  19.675  0.00  0.00    +0.000 C 
ATOM     20  O   UNL     1       2.281   5.866  20.580  0.00  0.00    +0.000 OA
ATOM     21  N   UNL     1       3.933   6.039  19.028  0.00  0.00    +0.000 N 
ATOM     22  C   UNL     1       4.430   6.433  17.705  0.00  0.00    +0.000 C 
ATOM     23  C   UNL     1       4.558   5.229  16.769  0.00  0.00    +0.000 C 
ATOM     24  O   UNL     1       5.295   4.155  17.359  0.00  0.00    +0.000 OA
ATOM     25  C   UNL     1       4.756   3.718  18.627  0.00  0.00    +0.000 C 
ATOM     26  C   UNL     1       4.669   4.902  19.606  0.00  0.00    +0.000 C 
BRANCH  25  27
ATOM     27  C   UNL     1       3.477   2.981  18.406  0.00  0.00    +0.000 A 
ATOM     28  N   UNL     1       3.159   2.201  17.388  0.00  0.00    +0.000 NA
ATOM     29  N   UNL     1       1.901   1.721  17.651  0.00  0.00    +0.000 NA
ATOM     30  N   UNL     1       1.449   2.183  18.807  0.00  0.00    +0.000 NA
ATOM     31  N   UNL     1       2.426   2.962  19.282  0.00  0.00    +0.000 N 
ATOM     32  H   UNL     1       2.306   3.439  20.174  0.00  0.00    +0.000 HD
ENDBRANCH  25  27
ENDBRANCH   5  19
TORSDOF 3
ENDMDL
MODEL 9
REMARK VINA RESULT:      -8.6      2.602      9.640
REMARK  Name = 
REMARK  4 active torsions:
REMARK  status: ('A' for Active; 'I' for Inactive)
REMARK    1  A    between atoms: C_1  and  N_2
REMARK    2  A    between atoms: C_9  and  C_10
REMARK    3  A    between atoms: C_14  and  C_15
REMARK    4  A    between atoms: C_21  and  C_22
REMARK                            x       y       z     vdW  Elec       q    Type
REMARK                         _______ _______ _______ _____ _____    ______ ____
ROOT
ATOM      1  C   UNL     1       0.193  10.548  19.748  0.00  0.00    +0.000 A 
ATOM      2  C   UNL     1       0.619  11.525  20.662  0.00  0.00    +0.000 A 
ATOM      3  C   UNL     1      -0.197  12.604  20.998  0.00  0.00    +0.000 A 
ATOM      4  C   UNL     1      -1.463  12.726  20.430  0.00  0.00    +0.000 A 
ATOM      5  C   UNL     1      -1.983  11.701  19.639  0.00  0.00    +0.000 A 
ATOM      6  C   UNL     1      -1.140  10.632  19.290  0.00  0.00    +0.000 A 
ENDROOT
BRANCH   1  15
ATOM      7  C   UNL     1       2.063   5.442  20.902  0.00  0.00    +0.000 C 
ATOM      8  N   UNL     1       2.477   6.077  19.684  0.00  0.00    +0.000 N 
ATOM      9  C   UNL     1       3.318   5.532  18.698  0.00  0.00    +0.000 A 
ATOM     10  O   UNL     1       3.837   4.428  18.687  0.00  0.00    +0.000 OA
ATOM     11  N   UNL     1       3.464   6.514  17.710  0.00  0.00    +0.000 N 
ATOM     12  C   UNL     1       2.736   7.636  18.072  0.00  0.00    +0.000 A 
ATOM     13  N   UNL     1       2.628   8.775  17.389  0.00  0.00    +0.000 NA
ATOM     14  C   UNL     1       1.827   9.699  17.990  0.00  0.00    +0.000 A 
ATOM     15  C   UNL     1       1.130   9.534  19.213  0.00  0.00    +0.000 A 
ATOM     16  C   UNL     1       1.306   8.304  19.875  0.00  0.00    +0.000 A 
ATOM     17  C   UNL     1       2.121   7.367  19.286  0.00  0.00    +0.000 A 
ATOM     18  H   UNL     1       4.007   6.422  16.870  0.00  0.00    +0.000 HD
ENDBRANCH   1  15
BRANCH   5  19
ATOM     19  C   UNL     1      -3.370  11.718  19.076  0.00  0.00    +0.000 C 
ATOM     20  O   UNL     1      -3.639  10.942  18.155  0.00  0.00    +0.000 OA
ATOM     21  N   UNL     1      -4.362  12.541  19.600  0.00  0.00    +0.000 N 
ATOM     22  C   UNL     1      -4.364  13.192  20.915  0.00  0.00    +0.000 C 
ATOM     23  C   UNL     1      -5.598  12.805  21.734  0.00  0.00    +0.000 C 
ATOM     24  O   UNL     1      -6.815  12.986  21.005  0.00  0.00    +0.000 OA
ATOM     25  C   UNL     1      -6.839  12.279  19.744  0.00  0.00    +0.000 C 
ATOM     26  C   UNL     1      -5.636  12.693  18.878  0.00  0.00    +0.000 C 
BRANCH  25  27
ATOM     27  C   UNL     1      -6.971  10.813  19.988  0.00  0.00    +0.000 A 
ATOM     28  N   UNL     1      -7.518  10.213  21.032  0.00  0.00    +0.000 NA
ATOM     29  N   UNL     1      -7.439   8.866  20.784  0.00  0.00    +0.000 NA
ATOM     30  N   UNL     1      -6.866   8.632  19.613  0.00  0.00    +0.000 NA
ATOM     31  N   UNL     1      -6.578   9.837  19.114  0.00  0.00    +0.000 N 
ATOM     32  H   UNL     1      -6.121   9.914  18.206  0.00  0.00    +0.000 HD
ENDBRANCH  25  27
ENDBRANCH   5  19
TORSDOF 3
ENDMDL
