MODEL 1
REMARK VINA RESULT:      -9.0      0.000      0.000
REMARK  Name = 
REMARK  6 active torsions:
REMARK  status: ('A' for Active; 'I' for Inactive)
REMARK    1  A    between atoms: C_2  and  N_3
REMARK    2  A    between atoms: C_2  and  C_10
REMARK    3  A    between atoms: N_8  and  C_9
REMARK    4  A    between atoms: C_14  and  N_15
REMARK    5  A    between atoms: C_20  and  C_21
REMARK    6  A    between atoms: C_23  and  C_24
REMARK                            x       y       z     vdW  Elec       q    Type
REMARK                         _______ _______ _______ _____ _____    ______ ____
ROOT
ATOM      1  C   UNL     1       2.518   4.199  18.749  0.00  0.00    +0.000 A 
ATOM      2  C   UNL     1       2.256   3.764  20.054  0.00  0.00    +0.000 A 
ATOM      3  C   UNL     1       1.689   4.636  20.978  0.00  0.00    +0.000 A 
ATOM      4  C   UNL     1       1.486   5.969  20.638  0.00  0.00    +0.000 A 
ATOM      5  C   UNL     1       1.983   6.457  19.419  0.00  0.00    +0.000 A 
ATOM      6  C   UNL     1       2.347   5.548  18.421  0.00  0.00    +0.000 A 
ENDROOT
BRANCH   5   7
ATOM      7  N   UNL     1       2.570   7.787  19.373  0.00  0.00    +0.000 N 
ATOM      8  C   UNL     1       2.187   8.563  20.577  0.00  0.00    +0.000 C 
ATOM      9  C   UNL     1       0.979   9.311  20.105  0.00  0.00    +0.000 A 
ATOM     10  C   UNL     1       1.091   9.454  18.720  0.00  0.00    +0.000 A 
ATOM     11  C   UNL     1       0.097  10.015  17.938  0.00  0.00    +0.000 A 
ATOM     12  C   UNL     1      -1.070  10.442  18.580  0.00  0.00    +0.000 A 
ATOM     13  C   UNL     1      -2.216  11.010  17.793  0.00  0.00    +0.000 C 
ATOM     14  C   UNL     1      -1.203  10.271  19.978  0.00  0.00    +0.000 A 
ATOM     15  C   UNL     1      -0.182   9.698  20.766  0.00  0.00    +0.000 A 
ATOM     16  C   UNL     1       2.201   8.589  18.263  0.00  0.00    +0.000 C 
ATOM     17  O   UNL     1       2.541   8.474  17.098  0.00  0.00    +0.000 OA
BRANCH  15  18
ATOM     18  C   UNL     1      -0.436   9.445  22.231  0.00  0.00    +0.000 C 
ATOM     19  F   UNL     1      -1.320  10.307  22.801  0.00  0.00    +0.000 F 
ATOM     20  F   UNL     1      -0.936   8.200  22.458  0.00  0.00    +0.000 F 
ATOM     21  F   UNL     1       0.700   9.533  22.975  0.00  0.00    +0.000 F 
ENDBRANCH  15  18
ENDBRANCH   5   7
BRANCH   1  23
ATOM     22  C   UNL     1       2.509   2.045  17.695  0.00  0.00    +0.000 C 
ATOM     23  C   UNL     1       3.069   3.264  17.751  0.00  0.00    +0.000 C 
BRANCH  23  24
ATOM     24  N   UNL     1       4.089   3.772  16.980  0.00  0.00    +0.000 N 
ATOM     25  C   UNL     1       5.346   4.092  17.384  0.00  0.00    +0.000 A 
ATOM     26  N   UNL     1       5.871   4.091  18.593  0.00  0.00    +0.000 NA
ATOM     27  N   UNL     1       7.176   4.510  18.513  0.00  0.00    +0.000 NA
ATOM     28  C   UNL     1       7.426   4.755  17.251  0.00  0.00    +0.000 A 
ATOM     29  N   UNL     1       6.314   4.513  16.506  0.00  0.00    +0.000 N 
ATOM     30  C   UNL     1       6.221   4.644  15.079  0.00  0.00    +0.000 C 
ATOM     31  H   UNL     1       3.787   4.022  16.045  0.00  0.00    +0.000 HD
ENDBRANCH  23  24
ENDBRANCH   1  23
TORSDOF 4
ENDMDL
MODEL 2
REMARK VINA RESULT:      -8.8      3.747      8.133
REMARK  Name = 
REMARK  6 active torsions:
REMARK  status: ('A' for Active; 'I' for Inactive)
REMARK    1  A    between atoms: C_2  and  N_3
REMARK    2  A    between atoms: C_2  and  C_10
REMARK    3  A    between atoms: N_8  and  C_9
REMARK    4  A    between atoms: C_14  and  N_15
REMARK    5  A    between atoms: C_20  and  C_21
REMARK    6  A    between atoms: C_23  and  C_24
REMARK                            x       y       z     vdW  Elec       q    Type
REMARK                         _______ _______ _______ _____ _____    ______ ____
ROOT
ATOM      1  C   UNL     1       1.783   8.153  19.655  0.00  0.00    +0.000 A 
ATOM      2  C   UNL     1       2.269   8.866  18.552  0.00  0.00    +0.000 A 
ATOM      3  C   UNL     1       2.846   8.188  17.484  0.00  0.00    +0.000 A 
ATOM      4  C   UNL     1       3.041   6.813  17.560  0.00  0.00    +0.000 A 
ATOM      5  C   UNL     1       2.786   6.143  18.767  0.00  0.00    +0.000 A 
ATOM      6  C   UNL     1       2.014   6.776  19.746  0.00  0.00    +0.000 A 
ENDROOT
BRANCH   5   7
ATOM      7  N   UNL     1       3.682   5.080  19.193  0.00  0.00    +0.000 N 
ATOM      8  C   UNL     1       5.071   5.590  19.305  0.00  0.00    +0.000 C 
ATOM      9  C   UNL     1       5.646   5.250  17.965  0.00  0.00    +0.000 A 
ATOM     10  C   UNL     1       4.936   4.152  17.472  0.00  0.00    +0.000 A 
ATOM     11  C   UNL     1       5.139   3.630  16.207  0.00  0.00    +0.000 A 
ATOM     12  C   UNL     1       6.094   4.250  15.395  0.00  0.00    +0.000 A 
ATOM     13  C   UNL     1       6.333   3.776  13.990  0.00  0.00    +0.000 C 
ATOM     14  C   UNL     1       6.794   5.381  15.877  0.00  0.00    +0.000 A 
ATOM     15  C   UNL     1       6.579   5.905  17.170  0.00  0.00    +0.000 A 
ATOM     16  C   UNL     1       3.754   3.950  18.339  0.00  0.00    +0.000 C 
ATOM     17  O   UNL     1       2.918   3.079  18.162  0.00  0.00    +0.000 OA
BRANCH  15  18
ATOM     18  C   UNL     1       7.279   7.178  17.574  0.00  0.00    +0.000 C 
ATOM     19  F   UNL     1       8.174   7.638  16.660  0.00  0.00    +0.000 F 
ATOM     20  F   UNL     1       6.405   8.201  17.782  0.00  0.00    +0.000 F 
ATOM     21  F   UNL     1       7.975   7.038  18.736  0.00  0.00    +0.000 F 
ENDBRANCH  15  18
ENDBRANCH   5   7
BRANCH   1  23
ATOM     22  C   UNL     1       1.478   8.498  22.008  0.00  0.00    +0.000 C 
ATOM     23  C   UNL     1       1.122   8.863  20.766  0.00  0.00    +0.000 C 
BRANCH  23  24
ATOM     24  N   UNL     1       0.227   9.836  20.384  0.00  0.00    +0.000 N 
ATOM     25  C   UNL     1       0.266  11.158  20.696  0.00  0.00    +0.000 A 
ATOM     26  N   UNL     1       1.083  11.815  21.494  0.00  0.00    +0.000 NA
ATOM     27  N   UNL     1       0.722  13.139  21.512  0.00  0.00    +0.000 NA
ATOM     28  C   UNL     1      -0.311  13.268  20.716  0.00  0.00    +0.000 A 
ATOM     29  N   UNL     1      -0.636  12.058  20.186  0.00  0.00    +0.000 N 
ATOM     30  C   UNL     1      -1.696  11.817  19.248  0.00  0.00    +0.000 C 
ATOM     31  H   UNL     1      -0.588   9.458  19.917  0.00  0.00    +0.000 HD
ENDBRANCH  23  24
ENDBRANCH   1  23
TORSDOF 4
ENDMDL
MODEL 3
REMARK VINA RESULT:      -8.6      0.602      1.393
REMARK  Name = 
REMARK  6 active torsions:
REMARK  status: ('A' for Active; 'I' for Inactive)
REMARK    1  A    between atoms: C_2  and  N_3
REMARK    2  A    between atoms: C_2  and  C_10
REMARK    3  A    between atoms: N_8  and  C_9
REMARK    4  A    between atoms: C_14  and  N_15
REMARK    5  A    between atoms: C_20  and  C_21
REMARK    6  A    between atoms: C_23  and  C_24
REMARK                            x       y       z     vdW  Elec       q    Type
REMARK                         _______ _______ _______ _____ _____    ______ ____
ROOT
ATOM      1  C   UNL     1       2.848   4.188  18.960  0.00  0.00    +0.000 A 
ATOM      2  C   UNL     1       2.355   3.835  20.222  0.00  0.00    +0.000 A 
ATOM      3  C   UNL     1       1.587   4.739  20.948  0.00  0.00    +0.000 A 
ATOM      4  C   UNL     1       1.403   6.032  20.469  0.00  0.00    +0.000 A 
ATOM      5  C   UNL     1       2.108   6.458  19.332  0.00  0.00    +0.000 A 
ATOM      6  C   UNL     1       2.693   5.500  18.498  0.00  0.00    +0.000 A 
ENDROOT
BRANCH   5   7
ATOM      7  N   UNL     1       2.642   7.809  19.292  0.00  0.00    +0.000 N 
ATOM      8  C   UNL     1       2.236   8.561  20.504  0.00  0.00    +0.000 C 
ATOM      9  C   UNL     1       0.996   9.264  20.045  0.00  0.00    +0.000 A 
ATOM     10  C   UNL     1       1.094   9.422  18.660  0.00  0.00    +0.000 A 
ATOM     11  C   UNL     1       0.073   9.948  17.888  0.00  0.00    +0.000 A 
ATOM     12  C   UNL     1      -1.106  10.324  18.540  0.00  0.00    +0.000 A 
ATOM     13  C   UNL     1      -2.278  10.852  17.765  0.00  0.00    +0.000 C 
ATOM     14  C   UNL     1      -1.222  10.138  19.938  0.00  0.00    +0.000 A 
ATOM     15  C   UNL     1      -0.174   9.600  20.716  0.00  0.00    +0.000 A 
ATOM     16  C   UNL     1       2.235   8.604  18.190  0.00  0.00    +0.000 C 
ATOM     17  O   UNL     1       2.571   8.511  17.022  0.00  0.00    +0.000 OA
BRANCH  15  18
ATOM     18  C   UNL     1      -0.409   9.328  22.180  0.00  0.00    +0.000 C 
ATOM     19  F   UNL     1       0.721   9.323  22.936  0.00  0.00    +0.000 F 
ATOM     20  F   UNL     1      -1.230  10.251  22.750  0.00  0.00    +0.000 F 
ATOM     21  F   UNL     1      -1.001   8.119  22.392  0.00  0.00    +0.000 F 
ENDBRANCH  15  18
ENDBRANCH   5   7
BRANCH   1  23
ATOM     22  C   UNL     1       2.964   2.111  17.767  0.00  0.00    +0.000 C 
ATOM     23  C   UNL     1       3.618   3.215  18.163  0.00  0.00    +0.000 C 
BRANCH  23  24
ATOM     24  N   UNL     1       4.921   3.575  17.907  0.00  0.00    +0.000 N 
ATOM     25  C   UNL     1       5.433   4.029  16.733  0.00  0.00    +0.000 A 
ATOM     26  N   UNL     1       4.862   4.148  15.551  0.00  0.00    +0.000 NA
ATOM     27  N   UNL     1       5.783   4.637  14.657  0.00  0.00    +0.000 NA
ATOM     28  C   UNL     1       6.902   4.812  15.314  0.00  0.00    +0.000 A 
ATOM     29  N   UNL     1       6.736   4.444  16.613  0.00  0.00    +0.000 N 
ATOM     30  C   UNL     1       7.739   4.525  17.638  0.00  0.00    +0.000 C 
ATOM     31  H   UNL     1       5.547   3.354  18.671  0.00  0.00    +0.000 HD
ENDBRANCH  23  24
ENDBRANCH   1  23
TORSDOF 4
ENDMDL
MODEL 4
REMARK VINA RESULT:      -8.6      3.725      8.110
REMARK  Name = 
REMARK  6 active torsions:
REMARK  status: ('A' for Active; 'I' for Inactive)
REMARK    1  A    between atoms: C_2  and  N_3
REMARK    2  A    between atoms: C_2  and  C_10
REMARK    3  A    between atoms: N_8  and  C_9
REMARK    4  A    between atoms: C_14  and  N_15
REMARK    5  A    between atoms: C_20  and  C_21
REMARK    6  A    between atoms: C_23  and  C_24
REMARK                            x       y       z     vdW  Elec       q    Type
REMARK                         _______ _______ _______ _____ _____    ______ ____
ROOT
ATOM      1  C   UNL     1       1.827   8.153  19.639  0.00  0.00    +0.000 A 
ATOM      2  C   UNL     1       2.300   8.846  18.519  0.00  0.00    +0.000 A 
ATOM      3  C   UNL     1       2.851   8.149  17.449  0.00  0.00    +0.000 A 
ATOM      4  C   UNL     1       3.034   6.773  17.540  0.00  0.00    +0.000 A 
ATOM      5  C   UNL     1       2.794   6.121  18.760  0.00  0.00    +0.000 A 
ATOM      6  C   UNL     1       2.046   6.775  19.744  0.00  0.00    +0.000 A 
ENDROOT
BRANCH   5   7
ATOM      7  N   UNL     1       3.687   5.055  19.184  0.00  0.00    +0.000 N 
ATOM      8  C   UNL     1       5.076   5.562  19.301  0.00  0.00    +0.000 C 
ATOM      9  C   UNL     1       5.654   5.227  17.962  0.00  0.00    +0.000 A 
ATOM     10  C   UNL     1       4.944   4.132  17.462  0.00  0.00    +0.000 A 
ATOM     11  C   UNL     1       5.150   3.615  16.196  0.00  0.00    +0.000 A 
ATOM     12  C   UNL     1       6.109   4.237  15.389  0.00  0.00    +0.000 A 
ATOM     13  C   UNL     1       6.350   3.769  13.983  0.00  0.00    +0.000 C 
ATOM     14  C   UNL     1       6.809   5.365  15.877  0.00  0.00    +0.000 A 
ATOM     15  C   UNL     1       6.591   5.884  17.173  0.00  0.00    +0.000 A 
ATOM     16  C   UNL     1       3.759   3.929  18.325  0.00  0.00    +0.000 C 
ATOM     17  O   UNL     1       2.923   3.060  18.142  0.00  0.00    +0.000 OA
BRANCH  15  18
ATOM     18  C   UNL     1       7.292   7.154  17.584  0.00  0.00    +0.000 C 
ATOM     19  F   UNL     1       8.003   7.051  18.739  0.00  0.00    +0.000 F 
ATOM     20  F   UNL     1       8.177   7.581  16.643  0.00  0.00    +0.000 F 
ATOM     21  F   UNL     1       6.422   8.184  17.776  0.00  0.00    +0.000 F 
ENDBRANCH  15  18
ENDBRANCH   5   7
BRANCH   1  23
ATOM     22  C   UNL     1       0.878   8.164  21.841  0.00  0.00    +0.000 C 
ATOM     23  C   UNL     1       1.193   8.883  20.752  0.00  0.00    +0.000 C 
BRANCH  23  24
ATOM     24  N   UNL     1       1.021  10.232  20.540  0.00  0.00    +0.000 N 
ATOM     25  C   UNL     1      -0.038  10.843  19.947  0.00  0.00    +0.000 A 
ATOM     26  N   UNL     1      -1.093  10.320  19.355  0.00  0.00    +0.000 NA
ATOM     27  N   UNL     1      -1.890  11.334  18.885  0.00  0.00    +0.000 NA
ATOM     28  C   UNL     1      -1.306  12.463  19.204  0.00  0.00    +0.000 A 
ATOM     29  N   UNL     1      -0.145  12.209  19.865  0.00  0.00    +0.000 N 
ATOM     30  C   UNL     1       0.748  13.202  20.394  0.00  0.00    +0.000 C 
ATOM     31  H   UNL     1       1.847  10.773  20.765  0.00  0.00    +0.000 HD
ENDBRANCH  23  24
ENDBRANCH   1  23
TORSDOF 4
ENDMDL
MODEL 5
REMARK VINA RESULT:      -8.5      5.828      9.153
REMARK  Name = 
REMARK  6 active torsions:
REMARK  status: ('A' for Active; 'I' for Inactive)
REMARK    1  A    between atoms: C_2  and  N_3
REMARK    2  A    between atoms: C_2  and  C_10
REMARK    3  A    between atoms: N_8  and  C_9
REMARK    4  A    between atoms: C_14  and  N_15
REMARK    5  A    between atoms: C_20  and  C_21
REMARK    6  A    between atoms: C_23  and  C_24
REMARK                            x       y       z     vdW  Elec       q    Type
REMARK                         _______ _______ _______ _____ _____    ______ ____
ROOT
ATOM      1  C   UNL     1      -3.985  11.305  17.795  0.00  0.00    +0.000 A 
ATOM      2  C   UNL     1      -4.003  10.674  16.546  0.00  0.00    +0.000 A 
ATOM      3  C   UNL     1      -2.926   9.891  16.145  0.00  0.00    +0.000 A 
ATOM      4  C   UNL     1      -1.785   9.826  16.937  0.00  0.00    +0.000 A 
ATOM      5  C   UNL     1      -1.673  10.660  18.061  0.00  0.00    +0.000 A 
ATOM      6  C   UNL     1      -2.823  11.269  18.573  0.00  0.00    +0.000 A 
ENDROOT
BRANCH   5   7
ATOM      7  N   UNL     1      -0.389  11.270  18.368  0.00  0.00    +0.000 N 
ATOM      8  C   UNL     1       0.337  10.464  19.379  0.00  0.00    +0.000 C 
ATOM      9  C   UNL     1      -0.049  11.134  20.661  0.00  0.00    +0.000 A 
ATOM     10  C   UNL     1      -0.359  12.463  20.361  0.00  0.00    +0.000 A 
ATOM     11  C   UNL     1      -0.851  13.352  21.299  0.00  0.00    +0.000 A 
ATOM     12  C   UNL     1      -1.052  12.877  22.600  0.00  0.00    +0.000 A 
ATOM     13  C   UNL     1      -1.635  13.766  23.661  0.00  0.00    +0.000 C 
ATOM     14  C   UNL     1      -0.769  11.525  22.903  0.00  0.00    +0.000 A 
ATOM     15  C   UNL     1      -0.266  10.626  21.937  0.00  0.00    +0.000 A 
ATOM     16  C   UNL     1      -0.438  12.588  18.888  0.00  0.00    +0.000 C 
ATOM     17  O   UNL     1      -0.712  13.624  18.306  0.00  0.00    +0.000 OA
BRANCH  15  18
ATOM     18  C   UNL     1      -0.094   9.173  22.302  0.00  0.00    +0.000 C 
ATOM     19  F   UNL     1      -0.924   8.327  21.635  0.00  0.00    +0.000 F 
ATOM     20  F   UNL     1       1.167   8.726  22.052  0.00  0.00    +0.000 F 
ATOM     21  F   UNL     1      -0.317   8.944  23.625  0.00  0.00    +0.000 F 
ENDBRANCH  15  18
ENDBRANCH   5   7
BRANCH   1  23
ATOM     22  C   UNL     1      -6.334  11.780  17.702  0.00  0.00    +0.000 C 
ATOM     23  C   UNL     1      -5.147  12.093  18.247  0.00  0.00    +0.000 C 
BRANCH  23  24
ATOM     24  N   UNL     1      -4.867  13.048  19.196  0.00  0.00    +0.000 N 
ATOM     25  C   UNL     1      -5.127  12.985  20.529  0.00  0.00    +0.000 A 
ATOM     26  N   UNL     1      -5.776  12.070  21.221  0.00  0.00    +0.000 NA
ATOM     27  N   UNL     1      -5.802  12.445  22.542  0.00  0.00    +0.000 NA
ATOM     28  C   UNL     1      -5.161  13.584  22.632  0.00  0.00    +0.000 A 
ATOM     29  N   UNL     1      -4.724  13.964  21.402  0.00  0.00    +0.000 N 
ATOM     30  C   UNL     1      -3.958  15.146  21.117  0.00  0.00    +0.000 C 
ATOM     31  H   UNL     1      -4.536  13.917  18.794  0.00  0.00    +0.000 HD
ENDBRANCH  23  24
ENDBRANCH   1  23
TORSDOF 4
ENDMDL
MODEL 6
REMARK VINA RESULT:      -8.4      2.587      3.562
REMARK  Name = 
REMARK  6 active torsions:
REMARK  status: ('A' for Active; 'I' for Inactive)
REMARK    1  A    between atoms: C_2  and  N_3
REMARK    2  A    between atoms: C_2  and  C_10
REMARK    3  A    between atoms: N_8  and  C_9
REMARK    4  A    between atoms: C_14  and  N_15
REMARK    5  A    between atoms: C_20  and  C_21
REMARK    6  A    between atoms: C_23  and  C_24
REMARK                            x       y       z     vdW  Elec       q    Type
REMARK                         _______ _______ _______ _____ _____    ______ ____
ROOT
ATOM      1  C   UNL     1       2.697   6.541  19.158  0.00  0.00    +0.000 A 
ATOM      2  C   UNL     1       2.560   7.190  17.926  0.00  0.00    +0.000 A 
ATOM      3  C   UNL     1       2.088   8.498  17.875  0.00  0.00    +0.000 A 
ATOM      4  C   UNL     1       1.647   9.119  19.038  0.00  0.00    +0.000 A 
ATOM      5  C   UNL     1       1.548   8.378  20.227  0.00  0.00    +0.000 A 
ATOM      6  C   UNL     1       2.218   7.154  20.321  0.00  0.00    +0.000 A 
ENDROOT
BRANCH   5   7
ATOM      7  N   UNL     1       0.417   8.602  21.112  0.00  0.00    +0.000 N 
ATOM      8  C   UNL     1      -0.811   8.868  20.324  0.00  0.00    +0.000 C 
ATOM      9  C   UNL     1      -0.835  10.363  20.261  0.00  0.00    +0.000 A 
ATOM     10  C   UNL     1      -0.148  10.840  21.380  0.00  0.00    +0.000 A 
ATOM     11  C   UNL     1       0.109  12.183  21.590  0.00  0.00    +0.000 A 
ATOM     12  C   UNL     1      -0.338  13.088  20.622  0.00  0.00    +0.000 A 
ATOM     13  C   UNL     1      -0.051  14.556  20.752  0.00  0.00    +0.000 C 
ATOM     14  C   UNL     1      -1.008  12.609  19.472  0.00  0.00    +0.000 A 
ATOM     15  C   UNL     1      -1.265  11.236  19.267  0.00  0.00    +0.000 A 
ATOM     16  C   UNL     1       0.541   9.692  22.012  0.00  0.00    +0.000 C 
ATOM     17  O   UNL     1       1.245   9.781  23.003  0.00  0.00    +0.000 OA
BRANCH  15  18
ATOM     18  C   UNL     1      -1.882  10.788  17.967  0.00  0.00    +0.000 C 
ATOM     19  F   UNL     1      -1.120   9.913  17.258  0.00  0.00    +0.000 F 
ATOM     20  F   UNL     1      -3.079  10.167  18.153  0.00  0.00    +0.000 F 
ATOM     21  F   UNL     1      -2.128  11.831  17.126  0.00  0.00    +0.000 F 
ENDBRANCH  15  18
ENDBRANCH   5   7
BRANCH   1  23
ATOM     22  C   UNL     1       2.797   4.390  20.214  0.00  0.00    +0.000 C 
ATOM     23  C   UNL     1       3.247   5.174  19.221  0.00  0.00    +0.000 C 
BRANCH  23  24
ATOM     24  N   UNL     1       4.149   4.864  18.229  0.00  0.00    +0.000 N 
ATOM     25  C   UNL     1       5.504   4.858  18.323  0.00  0.00    +0.000 A 
ATOM     26  N   UNL     1       6.285   5.226  19.319  0.00  0.00    +0.000 NA
ATOM     27  N   UNL     1       7.595   5.060  18.945  0.00  0.00    +0.000 NA
ATOM     28  C   UNL     1       7.590   4.586  17.723  0.00  0.00    +0.000 A 
ATOM     29  N   UNL     1       6.309   4.446  17.290  0.00  0.00    +0.000 N 
ATOM     30  C   UNL     1       5.913   3.927  16.010  0.00  0.00    +0.000 C 
ATOM     31  H   UNL     1       3.711   4.744  17.324  0.00  0.00    +0.000 HD
ENDBRANCH  23  24
ENDBRANCH   1  23
TORSDOF 4
ENDMDL
MODEL 7
REMARK VINA RESULT:      -8.3      3.229      7.720
REMARK  Name = 
REMARK  6 active torsions:
REMARK  status: ('A' for Active; 'I' for Inactive)
REMARK    1  A    between atoms: C_2  and  N_3
REMARK    2  A    between atoms: C_2  and  C_10
REMARK    3  A    between atoms: N_8  and  C_9
REMARK    4  A    between atoms: C_14  and  N_15
REMARK    5  A    between atoms: C_20  and  C_21
REMARK    6  A    between atoms: C_23  and  C_24
REMARK                            x       y       z     vdW  Elec       q    Type
REMARK                         _______ _______ _______ _____ _____    ______ ____
ROOT
ATOM      1  C   UNL     1       1.490   9.161  18.973  0.00  0.00    +0.000 A 
ATOM      2  C   UNL     1       1.131   8.680  20.238  0.00  0.00    +0.000 A 
ATOM      3  C   UNL     1       1.715   7.518  20.733  0.00  0.00    +0.000 A 
ATOM      4  C   UNL     1       2.570   6.775  19.926  0.00  0.00    +0.000 A 
ATOM      5  C   UNL     1       2.728   7.125  18.576  0.00  0.00    +0.000 A 
ATOM      6  C   UNL     1       2.322   8.393  18.150  0.00  0.00    +0.000 A 
ENDROOT
BRANCH   5   7
ATOM      7  N   UNL     1       2.823   6.073  17.576  0.00  0.00    +0.000 N 
ATOM      8  C   UNL     1       1.780   5.044  17.809  0.00  0.00    +0.000 C 
ATOM      9  C   UNL     1       2.507   4.031  18.637  0.00  0.00    +0.000 A 
ATOM     10  C   UNL     1       3.866   4.139  18.332  0.00  0.00    +0.000 A 
ATOM     11  C   UNL     1       4.846   3.416  18.989  0.00  0.00    +0.000 A 
ATOM     12  C   UNL     1       4.439   2.551  20.010  0.00  0.00    +0.000 A 
ATOM     13  C   UNL     1       5.447   1.773  20.806  0.00  0.00    +0.000 C 
ATOM     14  C   UNL     1       3.067   2.460  20.345  0.00  0.00    +0.000 A 
ATOM     15  C   UNL     1       2.076   3.202  19.667  0.00  0.00    +0.000 A 
ATOM     16  C   UNL     1       4.054   5.370  17.532  0.00  0.00    +0.000 C 
ATOM     17  O   UNL     1       5.135   5.760  17.123  0.00  0.00    +0.000 OA
BRANCH  15  18
ATOM     18  C   UNL     1       0.650   3.139  20.151  0.00  0.00    +0.000 C 
ATOM     19  F   UNL     1       0.061   4.354  20.316  0.00  0.00    +0.000 F 
ATOM     20  F   UNL     1      -0.155   2.453  19.294  0.00  0.00    +0.000 F 
ATOM     21  F   UNL     1       0.539   2.509  21.353  0.00  0.00    +0.000 F 
ENDBRANCH  15  18
ENDBRANCH   5   7
BRANCH   1  23
ATOM     22  C   UNL     1       1.587  11.547  18.751  0.00  0.00    +0.000 C 
ATOM     23  C   UNL     1       0.915  10.420  18.466  0.00  0.00    +0.000 C 
BRANCH  23  24
ATOM     24  N   UNL     1      -0.244  10.277  17.738  0.00  0.00    +0.000 N 
ATOM     25  C   UNL     1      -1.465  10.803  18.023  0.00  0.00    +0.000 A 
ATOM     26  N   UNL     1      -1.868  11.480  19.079  0.00  0.00    +0.000 NA
ATOM     27  N   UNL     1      -3.198  11.789  18.931  0.00  0.00    +0.000 NA
ATOM     28  C   UNL     1      -3.582  11.296  17.779  0.00  0.00    +0.000 A 
ATOM     29  N   UNL     1      -2.537  10.668  17.176  0.00  0.00    +0.000 N 
ATOM     30  C   UNL     1      -2.575  10.034  15.888  0.00  0.00    +0.000 C 
ATOM     31  H   UNL     1      -0.154   9.610  16.982  0.00  0.00    +0.000 HD
ENDBRANCH  23  24
ENDBRANCH   1  23
TORSDOF 4
ENDMDL
MODEL 8
REMARK VINA RESULT:      -8.3      3.486      7.363
REMARK  Name = 
REMARK  6 active torsions:
REMARK  status: ('A' for Active; 'I' for Inactive)
REMARK    1  A    between atoms: C_2  and  N_3
REMARK    2  A    between atoms: C_2  and  C_10
REMARK    3  A    between atoms: N_8  and  C_9
REMARK    4  A    between atoms: C_14  and  N_15
REMARK    5  A    between atoms: C_20  and  C_21
REMARK    6  A    between atoms: C_23  and  C_24
REMARK                            x       y       z     vdW  Elec       q    Type
REMARK                         _______ _______ _______ _____ _____    ______ ____
ROOT
ATOM      1  C   UNL     1       2.240   5.730  20.125  0.00  0.00    +0.000 A 
ATOM      2  C   UNL     1       1.098   5.076  20.601  0.00  0.00    +0.000 A 
ATOM      3  C   UNL     1       1.165   3.738  20.974  0.00  0.00    +0.000 A 
ATOM      4  C   UNL     1       2.339   3.021  20.769  0.00  0.00    +0.000 A 
ATOM      5  C   UNL     1       3.397   3.611  20.060  0.00  0.00    +0.000 A 
ATOM      6  C   UNL     1       3.408   4.998  19.885  0.00  0.00    +0.000 A 
ENDROOT
BRANCH   5   7
ATOM      7  N   UNL     1       4.162   2.804  19.122  0.00  0.00    +0.000 N 
ATOM      8  C   UNL     1       5.600   3.160  19.188  0.00  0.00    +0.000 C 
ATOM      9  C   UNL     1       5.730   4.173  18.094  0.00  0.00    +0.000 A 
ATOM     10  C   UNL     1       4.726   3.910  17.159  0.00  0.00    +0.000 A 
ATOM     11  C   UNL     1       4.489   4.717  16.061  0.00  0.00    +0.000 A 
ATOM     12  C   UNL     1       5.295   5.849  15.901  0.00  0.00    +0.000 A 
ATOM     13  C   UNL     1       5.064   6.803  14.765  0.00  0.00    +0.000 C 
ATOM     14  C   UNL     1       6.294   6.138  16.861  0.00  0.00    +0.000 A 
ATOM     15  C   UNL     1       6.527   5.307  17.978  0.00  0.00    +0.000 A 
ATOM     16  C   UNL     1       3.796   2.926  17.758  0.00  0.00    +0.000 C 
ATOM     17  O   UNL     1       2.798   2.504  17.199  0.00  0.00    +0.000 OA
BRANCH  15  18
ATOM     18  C   UNL     1       7.531   5.736  19.018  0.00  0.00    +0.000 C 
ATOM     19  F   UNL     1       7.041   5.773  20.286  0.00  0.00    +0.000 F 
ATOM     20  F   UNL     1       8.610   4.908  19.063  0.00  0.00    +0.000 F 
ATOM     21  F   UNL     1       8.025   6.981  18.776  0.00  0.00    +0.000 F 
ENDBRANCH  15  18
ENDBRANCH   5   7
BRANCH   1  23
ATOM     22  C   UNL     1       2.681   7.510  18.580  0.00  0.00    +0.000 C 
ATOM     23  C   UNL     1       2.187   7.163  19.779  0.00  0.00    +0.000 C 
BRANCH  23  24
ATOM     24  N   UNL     1       1.612   7.970  20.733  0.00  0.00    +0.000 N 
ATOM     25  C   UNL     1       0.808   9.046  20.525  0.00  0.00    +0.000 A 
ATOM     26  N   UNL     1       0.459   9.636  19.399  0.00  0.00    +0.000 NA
ATOM     27  N   UNL     1      -0.356  10.702  19.688  0.00  0.00    +0.000 NA
ATOM     28  C   UNL     1      -0.494  10.741  20.990  0.00  0.00    +0.000 A 
ATOM     29  N   UNL     1       0.216   9.730  21.558  0.00  0.00    +0.000 N 
ATOM     30  C   UNL     1       0.279   9.442  22.964  0.00  0.00    +0.000 C 
ATOM     31  H   UNL     1       1.943   7.769  21.669  0.00  0.00    +0.000 HD
ENDBRANCH  23  24
ENDBRANCH   1  23
TORSDOF 4
ENDMDL
MODEL 9
REMARK VINA RESULT:      -8.3      2.818      3.923
REMARK  Name = 
REMARK  6 active torsions:
REMARK  status: ('A' for Active; 'I' for Inactive)
REMARK    1  A    between atoms: C_2  and  N_3
REMARK    2  A    between atoms: C_2  and  C_10
REMARK    3  A    between atoms: N_8  and  C_9
REMARK    4  A    between atoms: C_14  and  N_15
REMARK    5  A    between atoms: C_20  and  C_21
REMARK    6  A    between atoms: C_23  and  C_24
REMARK                            x       y       z     vdW  Elec       q    Type
REMARK                         _______ _______ _______ _____ _____    ______ ____
ROOT
ATOM      1  C   UNL     1       2.470   6.969  19.314  0.00  0.00    +0.000 A 
ATOM      2  C   UNL     1       2.431   7.587  18.059  0.00  0.00    +0.000 A 
ATOM      3  C   UNL     1       1.959   8.890  17.937  0.00  0.00    +0.000 A 
ATOM      4  C   UNL     1       1.423   9.537  19.045  0.00  0.00    +0.000 A 
ATOM      5  C   UNL     1       1.231   8.825  20.240  0.00  0.00    +0.000 A 
ATOM      6  C   UNL     1       1.896   7.608  20.419  0.00  0.00    +0.000 A 
ENDROOT
BRANCH   5   7
ATOM      7  N   UNL     1       0.031   9.064  21.025  0.00  0.00    +0.000 N 
ATOM      8  C   UNL     1      -1.066   9.555  20.155  0.00  0.00    +0.000 C 
ATOM      9  C   UNL     1      -0.939  11.040  20.286  0.00  0.00    +0.000 A 
ATOM     10  C   UNL     1      -0.345  11.302  21.523  0.00  0.00    +0.000 A 
ATOM     11  C   UNL     1       0.013  12.574  21.934  0.00  0.00    +0.000 A 
ATOM     12  C   UNL     1      -0.230  13.632  21.052  0.00  0.00    +0.000 A 
ATOM     13  C   UNL     1       0.180  15.033  21.403  0.00  0.00    +0.000 C 
ATOM     14  C   UNL     1      -0.803  13.370  19.785  0.00  0.00    +0.000 A 
ATOM     15  C   UNL     1      -1.164  12.068  19.377  0.00  0.00    +0.000 A 
ATOM     16  C   UNL     1       0.152  10.018  22.067  0.00  0.00    +0.000 C 
ATOM     17  O   UNL     1       0.742   9.910  23.129  0.00  0.00    +0.000 OA
BRANCH  15  18
ATOM     18  C   UNL     1      -1.666  11.850  17.972  0.00  0.00    +0.000 C 
ATOM     19  F   UNL     1      -3.019  11.898  17.848  0.00  0.00    +0.000 F 
ATOM     20  F   UNL     1      -1.182  12.779  17.103  0.00  0.00    +0.000 F 
ATOM     21  F   UNL     1      -1.291  10.640  17.472  0.00  0.00    +0.000 F 
ENDBRANCH  15  18
ENDBRANCH   5   7
BRANCH   1  23
ATOM     22  C   UNL     1       2.593   4.894  20.511  0.00  0.00    +0.000 C 
ATOM     23  C   UNL     1       3.019   5.608  19.456  0.00  0.00    +0.000 C 
BRANCH  23  24
ATOM     24  N   UNL     1       3.895   5.228  18.465  0.00  0.00    +0.000 N 
ATOM     25  C   UNL     1       5.247   5.127  18.557  0.00  0.00    +0.000 A 
ATOM     26  N   UNL     1       6.054   5.446  19.549  0.00  0.00    +0.000 NA
ATOM     27  N   UNL     1       7.348   5.185  19.174  0.00  0.00    +0.000 NA
ATOM     28  C   UNL     1       7.308   4.705  17.956  0.00  0.00    +0.000 A 
ATOM     29  N   UNL     1       6.019   4.652  17.526  0.00  0.00    +0.000 N 
ATOM     30  C   UNL     1       5.585   4.154  16.250  0.00  0.00    +0.000 C 
ATOM     31  H   UNL     1       3.448   5.133  17.561  0.00  0.00    +0.000 HD
ENDBRANCH  23  24
ENDBRANCH   1  23
TORSDOF 4
ENDMDL
