MODEL 1
REMARK VINA RESULT:      -9.2      0.000      0.000
REMARK  Name = 
REMARK  6 active torsions:
REMARK  status: ('A' for Active; 'I' for Inactive)
REMARK    1  A    between atoms: C_1  and  C_2
REMARK    2  A    between atoms: C_2  and  C_3
REMARK    3  A    between atoms: C_7  and  C_8
REMARK    4  A    between atoms: N_10  and  C_11
REMARK    5  A    between atoms: C_11  and  C_12
REMARK    6  A    between atoms: C_18  and  C_19
REMARK                            x       y       z     vdW  Elec       q    Type
REMARK                         _______ _______ _______ _____ _____    ______ ____
ROOT
ATOM      1  C   UNL     1       1.900   5.667  20.065  0.00  0.00    +0.000 C 
ATOM      2  O   UNL     1       1.145   5.055  20.808  0.00  0.00    +0.000 OA
ATOM      3  N   UNL     1       2.132   7.024  20.142  0.00  0.00    +0.000 N 
ATOM      4  H   UNL     1       2.656   7.474  19.403  0.00  0.00    +0.000 HD
ENDROOT
BRANCH   1   9
ATOM      5  C   UNL     1       4.392   4.966  17.310  0.00  0.00    +0.000 A 
ATOM      6  C   UNL     1       3.967   3.693  16.890  0.00  0.00    +0.000 A 
ATOM      7  C   UNL     1       2.873   3.063  17.489  0.00  0.00    +0.000 A 
ATOM      8  C   UNL     1       2.178   3.693  18.519  0.00  0.00    +0.000 A 
ATOM      9  C   UNL     1       2.569   4.968  18.937  0.00  0.00    +0.000 A 
ATOM     10  C   UNL     1       3.644   5.611  18.311  0.00  0.00    +0.000 A 
BRANCH   5  12
ATOM     11  C   UNL     1       5.298   6.562  15.569  0.00  0.00    +0.000 C 
ATOM     12  C   UNL     1       5.641   5.620  16.716  0.00  0.00    +0.000 C 
ATOM     13  N   UNL     1       6.429   6.273  17.748  0.00  0.00    +0.000 N 
ATOM     14  C   UNL     1       7.479   5.494  18.168  0.00  0.00    +0.000 C 
ATOM     15  O   UNL     1       8.194   5.739  19.121  0.00  0.00    +0.000 OA
ATOM     16  N   UNL     1       7.603   4.447  17.323  0.00  0.00    +0.000 N 
ATOM     17  C   UNL     1       6.699   4.561  16.311  0.00  0.00    +0.000 C 
ATOM     18  O   UNL     1       6.708   3.879  15.295  0.00  0.00    +0.000 OA
ATOM     19  H   UNL     1       6.141   7.072  18.295  0.00  0.00    +0.000 HD
ATOM     20  H   UNL     1       8.372   3.802  17.342  0.00  0.00    +0.000 HD
ENDBRANCH   5  12
ENDBRANCH   1   9
BRANCH   3  21
ATOM     21  C   UNL     1       1.467   7.871  21.111  0.00  0.00    +0.000 C 
BRANCH  21  22
ATOM     22  C   UNL     1       0.555   8.943  20.492  0.00  0.00    +0.000 C 
ATOM     23  C   UNL     1       1.136   9.576  19.212  0.00  0.00    +0.000 C 
ATOM     24  C   UNL     1       0.116  10.512  18.562  0.00  0.00    +0.000 C 
ATOM     25  N   UNL     1      -0.513  11.385  19.536  0.00  0.00    +0.000 N 
ATOM     26  N   UNL     1      -1.202  12.466  19.142  0.00  0.00    +0.000 NA
ATOM     27  C   UNL     1      -1.603  13.010  20.295  0.00  0.00    +0.000 A 
ATOM     28  C   UNL     1      -1.195  12.274  21.433  0.00  0.00    +0.000 A 
ATOM     29  C   UNL     1      -0.513  11.195  20.888  0.00  0.00    +0.000 A 
ATOM     30  C   UNL     1       0.195  10.038  21.515  0.00  0.00    +0.000 C 
BRANCH  28  31
ATOM     31  C   UNL     1      -1.396  12.535  22.846  0.00  0.00    +0.000 C 
ATOM     32  N   UNL     1      -2.364  11.800  23.466  0.00  0.00    +0.000 N 
ATOM     33  O   UNL     1      -0.760  13.372  23.482  0.00  0.00    +0.000 OA
ATOM     34  H   UNL     1      -2.971  11.150  22.987  0.00  0.00    +0.000 HD
ATOM     35  H   UNL     1      -2.547  12.006  24.437  0.00  0.00    +0.000 HD
ENDBRANCH  28  31
ENDBRANCH  21  22
ENDBRANCH   3  21
TORSDOF 5
ENDMDL
MODEL 2
REMARK VINA RESULT:      -9.1      1.113      1.863
REMARK  Name = 
REMARK  6 active torsions:
REMARK  status: ('A' for Active; 'I' for Inactive)
REMARK    1  A    between atoms: C_1  and  C_2
REMARK    2  A    between atoms: C_2  and  C_3
REMARK    3  A    between atoms: C_7  and  C_8
REMARK    4  A    between atoms: N_10  and  C_11
REMARK    5  A    between atoms: C_11  and  C_12
REMARK    6  A    between atoms: C_18  and  C_19
REMARK                            x       y       z     vdW  Elec       q    Type
REMARK                         _______ _______ _______ _____ _____    ______ ____
ROOT
ATOM      1  C   UNL     1       2.211   5.766  20.177  0.00  0.00    +0.000 C 
ATOM      2  O   UNL     1       1.858   5.211  21.208  0.00  0.00    +0.000 OA
ATOM      3  N   UNL     1       2.118   7.124  19.956  0.00  0.00    +0.000 N 
ATOM      4  H   UNL     1       2.296   7.482  19.027  0.00  0.00    +0.000 HD
ENDROOT
BRANCH   1   9
ATOM      5  C   UNL     1       4.535   4.473  17.492  0.00  0.00    +0.000 A 
ATOM      6  C   UNL     1       3.753   3.441  16.942  0.00  0.00    +0.000 A 
ATOM      7  C   UNL     1       2.473   3.167  17.431  0.00  0.00    +0.000 A 
ATOM      8  C   UNL     1       1.946   3.920  18.479  0.00  0.00    +0.000 A 
ATOM      9  C   UNL     1       2.698   4.964  19.025  0.00  0.00    +0.000 A 
ATOM     10  C   UNL     1       3.966   5.259  18.509  0.00  0.00    +0.000 A 
BRANCH   5  12
ATOM     11  C   UNL     1       6.954   4.753  18.179  0.00  0.00    +0.000 C 
ATOM     12  C   UNL     1       5.969   4.719  17.017  0.00  0.00    +0.000 C 
ATOM     13  N   UNL     1       6.353   3.758  15.997  0.00  0.00    +0.000 N 
ATOM     14  C   UNL     1       6.231   4.271  14.729  0.00  0.00    +0.000 C 
ATOM     15  O   UNL     1       6.341   3.629  13.701  0.00  0.00    +0.000 OA
ATOM     16  N   UNL     1       6.014   5.600  14.823  0.00  0.00    +0.000 N 
ATOM     17  C   UNL     1       6.064   5.987  16.128  0.00  0.00    +0.000 C 
ATOM     18  O   UNL     1       6.106   7.149  16.505  0.00  0.00    +0.000 OA
ATOM     19  H   UNL     1       6.456   2.762  16.132  0.00  0.00    +0.000 HD
ATOM     20  H   UNL     1       6.014   6.224  14.035  0.00  0.00    +0.000 HD
ENDBRANCH   5  12
ENDBRANCH   1   9
BRANCH   3  21
ATOM     21  C   UNL     1       1.556   8.032  20.936  0.00  0.00    +0.000 C 
BRANCH  21  22
ATOM     22  C   UNL     1       0.485   8.983  20.373  0.00  0.00    +0.000 C 
ATOM     23  C   UNL     1       0.891   9.641  19.040  0.00  0.00    +0.000 C 
ATOM     24  C   UNL     1      -0.274  10.444  18.457  0.00  0.00    +0.000 C 
ATOM     25  N   UNL     1      -0.918  11.267  19.463  0.00  0.00    +0.000 N 
ATOM     26  N   UNL     1      -1.751  12.256  19.108  0.00  0.00    +0.000 NA
ATOM     27  C   UNL     1      -2.119  12.783  20.280  0.00  0.00    +0.000 A 
ATOM     28  C   UNL     1      -1.545  12.125  21.394  0.00  0.00    +0.000 A 
ATOM     29  C   UNL     1      -0.792  11.114  20.815  0.00  0.00    +0.000 A 
ATOM     30  C   UNL     1       0.086  10.057  21.403  0.00  0.00    +0.000 C 
BRANCH  28  31
ATOM     31  C   UNL     1      -1.662  12.400  22.814  0.00  0.00    +0.000 C 
ATOM     32  N   UNL     1      -2.758  11.882  23.442  0.00  0.00    +0.000 N 
ATOM     33  O   UNL     1      -0.851  13.068  23.449  0.00  0.00    +0.000 OA
ATOM     34  H   UNL     1      -3.499  11.387  22.965  0.00  0.00    +0.000 HD
ATOM     35  H   UNL     1      -2.877  12.106  24.418  0.00  0.00    +0.000 HD
ENDBRANCH  28  31
ENDBRANCH  21  22
ENDBRANCH   3  21
TORSDOF 5
ENDMDL
MODEL 3
REMARK VINA RESULT:      -9.1      2.545      3.121
REMARK  Name = 
REMARK  6 active torsions:
REMARK  status: ('A' for Active; 'I' for Inactive)
REMARK    1  A    between atoms: C_1  and  C_2
REMARK    2  A    between atoms: C_2  and  C_3
REMARK    3  A    between atoms: C_7  and  C_8
REMARK    4  A    between atoms: N_10  and  C_11
REMARK    5  A    between atoms: C_11  and  C_12
REMARK    6  A    between atoms: C_18  and  C_19
REMARK                            x       y       z     vdW  Elec       q    Type
REMARK                         _______ _______ _______ _____ _____    ______ ____
ROOT
ATOM      1  C   UNL     1       2.005   8.740  18.253  0.00  0.00    +0.000 C 
ATOM      2  O   UNL     1       2.169   9.383  17.226  0.00  0.00    +0.000 OA
ATOM      3  N   UNL     1       1.214   9.151  19.306  0.00  0.00    +0.000 N 
ATOM      4  H   UNL     1       1.246   8.632  20.174  0.00  0.00    +0.000 HD
ENDROOT
BRANCH   1   9
ATOM      5  C   UNL     1       4.695   6.108  17.910  0.00  0.00    +0.000 A 
ATOM      6  C   UNL     1       4.277   5.178  18.878  0.00  0.00    +0.000 A 
ATOM      7  C   UNL     1       3.123   5.394  19.636  0.00  0.00    +0.000 A 
ATOM      8  C   UNL     1       2.361   6.545  19.442  0.00  0.00    +0.000 A 
ATOM      9  C   UNL     1       2.747   7.471  18.470  0.00  0.00    +0.000 A 
ATOM     10  C   UNL     1       3.883   7.235  17.687  0.00  0.00    +0.000 A 
BRANCH   5  12
ATOM     11  C   UNL     1       5.833   4.971  15.958  0.00  0.00    +0.000 C 
ATOM     12  C   UNL     1       6.004   5.916  17.140  0.00  0.00    +0.000 C 
ATOM     13  N   UNL     1       6.570   7.195  16.747  0.00  0.00    +0.000 N 
ATOM     14  C   UNL     1       7.559   7.609  17.605  0.00  0.00    +0.000 C 
ATOM     15  O   UNL     1       8.083   8.707  17.589  0.00  0.00    +0.000 OA
ATOM     16  N   UNL     1       7.871   6.586  18.428  0.00  0.00    +0.000 N 
ATOM     17  C   UNL     1       7.158   5.479  18.081  0.00  0.00    +0.000 C 
ATOM     18  O   UNL     1       7.372   4.353  18.509  0.00  0.00    +0.000 OA
ATOM     19  H   UNL     1       6.159   7.848  16.095  0.00  0.00    +0.000 HD
ATOM     20  H   UNL     1       8.649   6.596  19.063  0.00  0.00    +0.000 HD
ENDBRANCH   5  12
ENDBRANCH   1   9
BRANCH   3  21
ATOM     21  C   UNL     1       0.516  10.421  19.302  0.00  0.00    +0.000 C 
BRANCH  21  22
ATOM     22  C   UNL     1      -0.977  10.318  18.947  0.00  0.00    +0.000 C 
ATOM     23  C   UNL     1      -1.242  10.257  17.430  0.00  0.00    +0.000 C 
ATOM     24  C   UNL     1      -2.724   9.996  17.151  0.00  0.00    +0.000 C 
ATOM     25  N   UNL     1      -3.582  10.834  17.966  0.00  0.00    +0.000 N 
ATOM     26  N   UNL     1      -4.883  10.977  17.669  0.00  0.00    +0.000 NA
ATOM     27  C   UNL     1      -5.322  11.816  18.611  0.00  0.00    +0.000 A 
ATOM     28  C   UNL     1      -4.318  12.200  19.531  0.00  0.00    +0.000 A 
ATOM     29  C   UNL     1      -3.199  11.505  19.093  0.00  0.00    +0.000 A 
ATOM     30  C   UNL     1      -1.791  11.459  19.589  0.00  0.00    +0.000 C 
BRANCH  28  31
ATOM     31  C   UNL     1      -4.373  13.104  20.665  0.00  0.00    +0.000 C 
ATOM     32  N   UNL     1      -4.869  12.588  21.827  0.00  0.00    +0.000 N 
ATOM     33  O   UNL     1      -4.018  14.279  20.619  0.00  0.00    +0.000 OA
ATOM     34  H   UNL     1      -5.246  11.654  21.913  0.00  0.00    +0.000 HD
ATOM     35  H   UNL     1      -4.959  13.219  22.610  0.00  0.00    +0.000 HD
ENDBRANCH  28  31
ENDBRANCH  21  22
ENDBRANCH   3  21
TORSDOF 5
ENDMDL
MODEL 4
REMARK VINA RESULT:      -9.1      3.847     10.691
REMARK  Name = 
REMARK  6 active torsions:
REMARK  status: ('A' for Active; 'I' for Inactive)
REMARK    1  A    between atoms: C_1  and  C_2
REMARK    2  A    between atoms: C_2  and  C_3
REMARK    3  A    between atoms: C_7  and  C_8
REMARK    4  A    between atoms: N_10  and  C_11
REMARK    5  A    between atoms: C_11  and  C_12
REMARK    6  A    between atoms: C_18  and  C_19
REMARK                            x       y       z     vdW  Elec       q    Type
REMARK                         _______ _______ _______ _____ _____    ______ ____
ROOT
ATOM      1  C   UNL     1      -0.472  10.266  18.397  0.00  0.00    +0.000 C 
ATOM      2  O   UNL     1      -0.202  10.759  19.484  0.00  0.00    +0.000 OA
ATOM      3  N   UNL     1       0.428   9.573  17.615  0.00  0.00    +0.000 N 
ATOM      4  H   UNL     1       0.166   9.324  16.671  0.00  0.00    +0.000 HD
ENDROOT
BRANCH   1   9
ATOM      5  C   UNL     1      -4.057  11.408  18.043  0.00  0.00    +0.000 A 
ATOM      6  C   UNL     1      -4.332  11.004  16.725  0.00  0.00    +0.000 A 
ATOM      7  C   UNL     1      -3.365  10.356  15.952  0.00  0.00    +0.000 A 
ATOM      8  C   UNL     1      -2.102  10.096  16.481  0.00  0.00    +0.000 A 
ATOM      9  C   UNL     1      -1.816  10.469  17.797  0.00  0.00    +0.000 A 
ATOM     10  C   UNL     1      -2.798  11.086  18.580  0.00  0.00    +0.000 A 
BRANCH   5  12
ATOM     11  C   UNL     1      -4.536  12.595  20.225  0.00  0.00    +0.000 C 
ATOM     12  C   UNL     1      -5.084  12.194  18.862  0.00  0.00    +0.000 C 
ATOM     13  N   UNL     1      -5.588  13.332  18.113  0.00  0.00    +0.000 N 
ATOM     14  C   UNL     1      -6.799  13.069  17.522  0.00  0.00    +0.000 C 
ATOM     15  O   UNL     1      -7.358  13.793  16.720  0.00  0.00    +0.000 OA
ATOM     16  N   UNL     1      -7.272  11.903  18.012  0.00  0.00    +0.000 N 
ATOM     17  C   UNL     1      -6.430  11.428  18.971  0.00  0.00    +0.000 C 
ATOM     18  O   UNL     1      -6.693  10.506  19.730  0.00  0.00    +0.000 OA
ATOM     19  H   UNL     1      -5.047  14.135  17.823  0.00  0.00    +0.000 HD
ATOM     20  H   UNL     1      -8.196  11.554  17.831  0.00  0.00    +0.000 HD
ENDBRANCH   5  12
ENDBRANCH   1   9
BRANCH   3  21
ATOM     21  C   UNL     1       1.812   9.388  18.004  0.00  0.00    +0.000 C 
BRANCH  21  22
ATOM     22  C   UNL     1       2.231   7.917  18.164  0.00  0.00    +0.000 C 
ATOM     23  C   UNL     1       2.219   7.434  19.628  0.00  0.00    +0.000 C 
ATOM     24  C   UNL     1       2.488   5.930  19.702  0.00  0.00    +0.000 C 
ATOM     25  N   UNL     1       3.600   5.538  18.857  0.00  0.00    +0.000 N 
ATOM     26  N   UNL     1       4.182   4.338  19.003  0.00  0.00    +0.000 NA
ATOM     27  C   UNL     1       5.152   4.354  18.083  0.00  0.00    +0.000 A 
ATOM     28  C   UNL     1       5.186   5.549  17.327  0.00  0.00    +0.000 A 
ATOM     29  C   UNL     1       4.128   6.285  17.842  0.00  0.00    +0.000 A 
ATOM     30  C   UNL     1       3.605   7.647  17.520  0.00  0.00    +0.000 C 
BRANCH  28  31
ATOM     31  C   UNL     1       6.087   5.971  16.270  0.00  0.00    +0.000 C 
ATOM     32  N   UNL     1       7.330   6.379  16.661  0.00  0.00    +0.000 N 
ATOM     33  O   UNL     1       5.783   5.988  15.081  0.00  0.00    +0.000 OA
ATOM     34  H   UNL     1       7.619   6.459  17.626  0.00  0.00    +0.000 HD
ATOM     35  H   UNL     1       7.950   6.720  15.942  0.00  0.00    +0.000 HD
ENDBRANCH  28  31
ENDBRANCH  21  22
ENDBRANCH   3  21
TORSDOF 5
ENDMDL
MODEL 5
REMARK VINA RESULT:      -9.0      2.365     10.332
REMARK  Name = 
REMARK  6 active torsions:
REMARK  status: ('A' for Active; 'I' for Inactive)
REMARK    1  A    between atoms: C_1  and  C_2
REMARK    2  A    between atoms: C_2  and  C_3
REMARK    3  A    between atoms: C_7  and  C_8
REMARK    4  A    between atoms: N_10  and  C_11
REMARK    5  A    between atoms: C_11  and  C_12
REMARK    6  A    between atoms: C_18  and  C_19
REMARK                            x       y       z     vdW  Elec       q    Type
REMARK                         _______ _______ _______ _____ _____    ______ ____
ROOT
ATOM      1  C   UNL     1       0.278   9.801  19.293  0.00  0.00    +0.000 C 
ATOM      2  O   UNL     1      -0.374  10.139  18.314  0.00  0.00    +0.000 OA
ATOM      3  N   UNL     1       1.406   9.009  19.237  0.00  0.00    +0.000 N 
ATOM      4  H   UNL     1       1.800   8.658  20.099  0.00  0.00    +0.000 HD
ENDROOT
BRANCH   1   9
ATOM      5  C   UNL     1      -1.445  11.719  22.057  0.00  0.00    +0.000 A 
ATOM      6  C   UNL     1      -1.182  10.885  23.158  0.00  0.00    +0.000 A 
ATOM      7  C   UNL     1      -0.442   9.708  23.012  0.00  0.00    +0.000 A 
ATOM      8  C   UNL     1       0.052   9.340  21.762  0.00  0.00    +0.000 A 
ATOM      9  C   UNL     1      -0.179  10.166  20.659  0.00  0.00    +0.000 A 
ATOM     10  C   UNL     1      -0.890  11.362  20.814  0.00  0.00    +0.000 A 
BRANCH   5  12
ATOM     11  C   UNL     1      -1.560  14.139  22.785  0.00  0.00    +0.000 C 
ATOM     12  C   UNL     1      -2.327  12.961  22.197  0.00  0.00    +0.000 C 
ATOM     13  N   UNL     1      -2.964  13.294  20.934  0.00  0.00    +0.000 N 
ATOM     14  C   UNL     1      -4.255  12.831  20.867  0.00  0.00    +0.000 C 
ATOM     15  O   UNL     1      -4.951  12.842  19.869  0.00  0.00    +0.000 OA
ATOM     16  N   UNL     1      -4.624  12.407  22.095  0.00  0.00    +0.000 N 
ATOM     17  C   UNL     1      -3.625  12.651  22.988  0.00  0.00    +0.000 C 
ATOM     18  O   UNL     1      -3.744  12.563  24.202  0.00  0.00    +0.000 OA
ATOM     19  H   UNL     1      -2.490  13.595  20.094  0.00  0.00    +0.000 HD
ATOM     20  H   UNL     1      -5.561  12.139  22.336  0.00  0.00    +0.000 HD
ENDBRANCH   5  12
ENDBRANCH   1   9
BRANCH   3  21
ATOM     21  C   UNL     1       1.915   8.471  17.991  0.00  0.00    +0.000 C 
BRANCH  21  22
ATOM     22  C   UNL     1       2.659   7.134  18.139  0.00  0.00    +0.000 C 
ATOM     23  C   UNL     1       2.598   6.553  19.566  0.00  0.00    +0.000 C 
ATOM     24  C   UNL     1       3.216   5.155  19.606  0.00  0.00    +0.000 C 
ATOM     25  N   UNL     1       4.480   5.102  18.897  0.00  0.00    +0.000 N 
ATOM     26  N   UNL     1       5.317   4.068  19.064  0.00  0.00    +0.000 NA
ATOM     27  C   UNL     1       6.353   4.382  18.280  0.00  0.00    +0.000 A 
ATOM     28  C   UNL     1       6.181   5.605  17.588  0.00  0.00    +0.000 A 
ATOM     29  C   UNL     1       4.923   6.027  17.994  0.00  0.00    +0.000 A 
ATOM     30  C   UNL     1       4.123   7.246  17.668  0.00  0.00    +0.000 C 
BRANCH  28  31
ATOM     31  C   UNL     1       7.067   6.306  16.678  0.00  0.00    +0.000 C 
ATOM     32  N   UNL     1       7.357   5.670  15.506  0.00  0.00    +0.000 N 
ATOM     33  O   UNL     1       7.561   7.404  16.918  0.00  0.00    +0.000 OA
ATOM     34  H   UNL     1       7.044   4.736  15.279  0.00  0.00    +0.000 HD
ATOM     35  H   UNL     1       8.011   6.124  14.885  0.00  0.00    +0.000 HD
ENDBRANCH  28  31
ENDBRANCH  21  22
ENDBRANCH   3  21
TORSDOF 5
ENDMDL
MODEL 6
REMARK VINA RESULT:      -9.0      3.164      4.217
REMARK  Name = 
REMARK  6 active torsions:
REMARK  status: ('A' for Active; 'I' for Inactive)
REMARK    1  A    between atoms: C_1  and  C_2
REMARK    2  A    between atoms: C_2  and  C_3
REMARK    3  A    between atoms: C_7  and  C_8
REMARK    4  A    between atoms: N_10  and  C_11
REMARK    5  A    between atoms: C_11  and  C_12
REMARK    6  A    between atoms: C_18  and  C_19
REMARK                            x       y       z     vdW  Elec       q    Type
REMARK                         _______ _______ _______ _____ _____    ______ ____
ROOT
ATOM      1  C   UNL     1       1.839   8.024  19.653  0.00  0.00    +0.000 C 
ATOM      2  O   UNL     1       1.479   7.810  20.802  0.00  0.00    +0.000 OA
ATOM      3  N   UNL     1       1.528   9.165  18.943  0.00  0.00    +0.000 N 
ATOM      4  H   UNL     1       1.741   9.199  17.955  0.00  0.00    +0.000 HD
ENDROOT
BRANCH   1   9
ATOM      5  C   UNL     1       3.021   4.607  18.552  0.00  0.00    +0.000 A 
ATOM      6  C   UNL     1       3.852   4.952  17.471  0.00  0.00    +0.000 A 
ATOM      7  C   UNL     1       4.039   6.287  17.102  0.00  0.00    +0.000 A 
ATOM      8  C   UNL     1       3.400   7.306  17.807  0.00  0.00    +0.000 A 
ATOM      9  C   UNL     1       2.587   6.986  18.897  0.00  0.00    +0.000 A 
ATOM     10  C   UNL     1       2.430   5.650  19.287  0.00  0.00    +0.000 A 
BRANCH   5  12
ATOM     11  C   UNL     1       3.339   2.191  17.873  0.00  0.00    +0.000 C 
ATOM     12  C   UNL     1       2.746   3.143  18.903  0.00  0.00    +0.000 C 
ATOM     13  N   UNL     1       3.188   2.839  20.253  0.00  0.00    +0.000 N 
ATOM     14  C   UNL     1       2.153   2.872  21.157  0.00  0.00    +0.000 C 
ATOM     15  O   UNL     1       2.279   2.806  22.365  0.00  0.00    +0.000 OA
ATOM     16  N   UNL     1       0.990   2.946  20.476  0.00  0.00    +0.000 N 
ATOM     17  C   UNL     1       1.233   2.889  19.137  0.00  0.00    +0.000 C 
ATOM     18  O   UNL     1       0.372   2.731  18.283  0.00  0.00    +0.000 OA
ATOM     19  H   UNL     1       4.144   2.848  20.579  0.00  0.00    +0.000 HD
ATOM     20  H   UNL     1       0.086   2.859  20.903  0.00  0.00    +0.000 HD
ENDBRANCH   5  12
ENDBRANCH   1   9
BRANCH   3  21
ATOM     21  C   UNL     1       0.706  10.222  19.495  0.00  0.00    +0.000 C 
BRANCH  21  22
ATOM     22  C   UNL     1      -0.761  10.187  19.034  0.00  0.00    +0.000 C 
ATOM     23  C   UNL     1      -0.920  10.123  17.503  0.00  0.00    +0.000 C 
ATOM     24  C   UNL     1      -2.388   9.929  17.120  0.00  0.00    +0.000 C 
ATOM     25  N   UNL     1      -3.262  10.817  17.865  0.00  0.00    +0.000 N 
ATOM     26  N   UNL     1      -4.529  11.018  17.474  0.00  0.00    +0.000 NA
ATOM     27  C   UNL     1      -4.993  11.887  18.377  0.00  0.00    +0.000 A 
ATOM     28  C   UNL     1      -4.040  12.232  19.364  0.00  0.00    +0.000 A 
ATOM     29  C   UNL     1      -2.928  11.480  19.012  0.00  0.00    +0.000 A 
ATOM     30  C   UNL     1      -1.562  11.372  19.608  0.00  0.00    +0.000 C 
BRANCH  28  31
ATOM     31  C   UNL     1      -4.133  13.150  20.484  0.00  0.00    +0.000 C 
ATOM     32  N   UNL     1      -4.326  14.465  20.174  0.00  0.00    +0.000 N 
ATOM     33  O   UNL     1      -4.033  12.806  21.658  0.00  0.00    +0.000 OA
ATOM     34  H   UNL     1      -4.343  14.825  19.230  0.00  0.00    +0.000 HD
ATOM     35  H   UNL     1      -4.344  15.121  20.941  0.00  0.00    +0.000 HD
ENDBRANCH  28  31
ENDBRANCH  21  22
ENDBRANCH   3  21
TORSDOF 5
ENDMDL
MODEL 7
REMARK VINA RESULT:      -9.0      1.716      2.497
REMARK  Name = 
REMARK  6 active torsions:
REMARK  status: ('A' for Active; 'I' for Inactive)
REMARK    1  A    between atoms: C_1  and  C_2
REMARK    2  A    between atoms: C_2  and  C_3
REMARK    3  A    between atoms: C_7  and  C_8
REMARK    4  A    between atoms: N_10  and  C_11
REMARK    5  A    between atoms: C_11  and  C_12
REMARK    6  A    between atoms: C_18  and  C_19
REMARK                            x       y       z     vdW  Elec       q    Type
REMARK                         _______ _______ _______ _____ _____    ______ ____
ROOT
ATOM      1  C   UNL     1       1.970   5.897  20.291  0.00  0.00    +0.000 C 
ATOM      2  O   UNL     1       1.481   5.227  21.190  0.00  0.00    +0.000 OA
ATOM      3  N   UNL     1       1.998   7.276  20.278  0.00  0.00    +0.000 N 
ATOM      4  H   UNL     1       2.289   7.752  19.435  0.00  0.00    +0.000 HD
ENDROOT
BRANCH   1   9
ATOM      5  C   UNL     1       4.302   5.109  17.422  0.00  0.00    +0.000 A 
ATOM      6  C   UNL     1       3.653   3.998  16.855  0.00  0.00    +0.000 A 
ATOM      7  C   UNL     1       2.460   3.507  17.391  0.00  0.00    +0.000 A 
ATOM      8  C   UNL     1       1.888   4.117  18.506  0.00  0.00    +0.000 A 
ATOM      9  C   UNL     1       2.504   5.237  19.071  0.00  0.00    +0.000 A 
ATOM     10  C   UNL     1       3.680   5.748  18.511  0.00  0.00    +0.000 A 
BRANCH   5  12
ATOM     11  C   UNL     1       5.489   6.539  15.705  0.00  0.00    +0.000 C 
ATOM     12  C   UNL     1       5.652   5.595  16.890  0.00  0.00    +0.000 C 
ATOM     13  N   UNL     1       6.451   6.179  17.953  0.00  0.00    +0.000 N 
ATOM     14  C   UNL     1       7.376   5.294  18.451  0.00  0.00    +0.000 C 
ATOM     15  O   UNL     1       8.060   5.480  19.440  0.00  0.00    +0.000 OA
ATOM     16  N   UNL     1       7.422   4.217  17.638  0.00  0.00    +0.000 N 
ATOM     17  C   UNL     1       6.598   4.407  16.571  0.00  0.00    +0.000 C 
ATOM     18  O   UNL     1       6.582   3.701  15.572  0.00  0.00    +0.000 OA
ATOM     19  H   UNL     1       6.230   7.021  18.466  0.00  0.00    +0.000 HD
ATOM     20  H   UNL     1       8.106   3.486  17.716  0.00  0.00    +0.000 HD
ENDBRANCH   5  12
ENDBRANCH   1   9
BRANCH   3  21
ATOM     21  C   UNL     1       1.414   8.073  21.338  0.00  0.00    +0.000 C 
BRANCH  21  22
ATOM     22  C   UNL     1       0.869   9.435  20.875  0.00  0.00    +0.000 C 
ATOM     23  C   UNL     1       0.462  10.359  22.039  0.00  0.00    +0.000 C 
ATOM     24  C   UNL     1       0.082  11.747  21.519  0.00  0.00    +0.000 C 
ATOM     25  N   UNL     1      -0.794  11.669  20.364  0.00  0.00    +0.000 N 
ATOM     26  N   UNL     1      -1.474  12.747  19.946  0.00  0.00    +0.000 NA
ATOM     27  C   UNL     1      -2.163  12.287  18.898  0.00  0.00    +0.000 A 
ATOM     28  C   UNL     1      -1.917  10.921  18.622  0.00  0.00    +0.000 A 
ATOM     29  C   UNL     1      -0.984  10.563  19.585  0.00  0.00    +0.000 A 
ATOM     30  C   UNL     1      -0.303   9.268  19.887  0.00  0.00    +0.000 C 
BRANCH  28  31
ATOM     31  C   UNL     1      -2.477  10.049  17.607  0.00  0.00    +0.000 C 
ATOM     32  N   UNL     1      -1.887  10.093  16.377  0.00  0.00    +0.000 N 
ATOM     33  O   UNL     1      -3.437   9.307  17.799  0.00  0.00    +0.000 OA
ATOM     34  H   UNL     1      -1.144  10.732  16.132  0.00  0.00    +0.000 HD
ATOM     35  H   UNL     1      -2.298   9.528  15.649  0.00  0.00    +0.000 HD
ENDBRANCH  28  31
ENDBRANCH  21  22
ENDBRANCH   3  21
TORSDOF 5
ENDMDL
MODEL 8
REMARK VINA RESULT:      -9.0      2.829      9.979
REMARK  Name = 
REMARK  6 active torsions:
REMARK  status: ('A' for Active; 'I' for Inactive)
REMARK    1  A    between atoms: C_1  and  C_2
REMARK    2  A    between atoms: C_2  and  C_3
REMARK    3  A    between atoms: C_7  and  C_8
REMARK    4  A    between atoms: N_10  and  C_11
REMARK    5  A    between atoms: C_11  and  C_12
REMARK    6  A    between atoms: C_18  and  C_19
REMARK                            x       y       z     vdW  Elec       q    Type
REMARK                         _______ _______ _______ _____ _____    ______ ____
ROOT
ATOM      1  C   UNL     1       0.787   9.510  19.444  0.00  0.00    +0.000 C 
ATOM      2  O   UNL     1       0.341   9.923  18.383  0.00  0.00    +0.000 OA
ATOM      3  N   UNL     1       1.796   8.575  19.549  0.00  0.00    +0.000 N 
ATOM      4  H   UNL     1       2.006   8.182  20.457  0.00  0.00    +0.000 HD
ENDROOT
BRANCH   1   9
ATOM      5  C   UNL     1      -1.095  11.646  21.931  0.00  0.00    +0.000 A 
ATOM      6  C   UNL     1      -1.081  10.807  23.059  0.00  0.00    +0.000 A 
ATOM      7  C   UNL     1      -0.459   9.556  23.023  0.00  0.00    +0.000 A 
ATOM      8  C   UNL     1       0.165   9.117  21.856  0.00  0.00    +0.000 A 
ATOM      9  C   UNL     1       0.183   9.944  20.730  0.00  0.00    +0.000 A 
ATOM     10  C   UNL     1      -0.410  11.211  20.781  0.00  0.00    +0.000 A 
BRANCH   5  12
ATOM     11  C   UNL     1      -1.294  13.952  20.910  0.00  0.00    +0.000 C 
ATOM     12  C   UNL     1      -1.849  12.977  21.941  0.00  0.00    +0.000 C 
ATOM     13  N   UNL     1      -3.278  12.768  21.789  0.00  0.00    +0.000 N 
ATOM     14  C   UNL     1      -3.937  12.801  22.994  0.00  0.00    +0.000 C 
ATOM     15  O   UNL     1      -5.106  12.504  23.160  0.00  0.00    +0.000 OA
ATOM     16  N   UNL     1      -3.085  13.255  23.938  0.00  0.00    +0.000 N 
ATOM     17  C   UNL     1      -1.897  13.592  23.365  0.00  0.00    +0.000 C 
ATOM     18  O   UNL     1      -1.008  14.215  23.929  0.00  0.00    +0.000 OA
ATOM     19  H   UNL     1      -3.737  12.393  20.971  0.00  0.00    +0.000 HD
ATOM     20  H   UNL     1      -3.361  13.486  24.875  0.00  0.00    +0.000 HD
ENDBRANCH   5  12
ENDBRANCH   1   9
BRANCH   3  21
ATOM     21  C   UNL     1       2.411   7.964  18.388  0.00  0.00    +0.000 C 
BRANCH  21  22
ATOM     22  C   UNL     1       3.285   6.740  18.708  0.00  0.00    +0.000 C 
ATOM     23  C   UNL     1       4.014   6.169  17.476  0.00  0.00    +0.000 C 
ATOM     24  C   UNL     1       4.985   5.061  17.888  0.00  0.00    +0.000 C 
ATOM     25  N   UNL     1       4.377   4.130  18.821  0.00  0.00    +0.000 N 
ATOM     26  N   UNL     1       4.945   2.940  19.069  0.00  0.00    +0.000 NA
ATOM     27  C   UNL     1       4.104   2.376  19.940  0.00  0.00    +0.000 A 
ATOM     28  C   UNL     1       3.006   3.203  20.275  0.00  0.00    +0.000 A 
ATOM     29  C   UNL     1       3.242   4.359  19.546  0.00  0.00    +0.000 A 
ATOM     30  C   UNL     1       2.474   5.634  19.412  0.00  0.00    +0.000 C 
BRANCH  28  31
ATOM     31  C   UNL     1       1.871   2.958  21.146  0.00  0.00    +0.000 C 
ATOM     32  N   UNL     1       0.647   2.908  20.546  0.00  0.00    +0.000 N 
ATOM     33  O   UNL     1       1.964   2.811  22.362  0.00  0.00    +0.000 OA
ATOM     34  H   UNL     1       0.493   3.093  19.565  0.00  0.00    +0.000 HD
ATOM     35  H   UNL     1      -0.156   2.787  21.146  0.00  0.00    +0.000 HD
ENDBRANCH  28  31
ENDBRANCH  21  22
ENDBRANCH   3  21
TORSDOF 5
ENDMDL
MODEL 9
REMARK VINA RESULT:      -9.0      2.472      3.524
REMARK  Name = 
REMARK  6 active torsions:
REMARK  status: ('A' for Active; 'I' for Inactive)
REMARK    1  A    between atoms: C_1  and  C_2
REMARK    2  A    between atoms: C_2  and  C_3
REMARK    3  A    between atoms: C_7  and  C_8
REMARK    4  A    between atoms: N_10  and  C_11
REMARK    5  A    between atoms: C_11  and  C_12
REMARK    6  A    between atoms: C_18  and  C_19
REMARK                            x       y       z     vdW  Elec       q    Type
REMARK                         _______ _______ _______ _____ _____    ______ ____
ROOT
ATOM      1  C   UNL     1       1.716   6.902  20.594  0.00  0.00    +0.000 C 
ATOM      2  O   UNL     1       1.158   5.938  21.100  0.00  0.00    +0.000 OA
ATOM      3  N   UNL     1       1.540   8.206  21.009  0.00  0.00    +0.000 N 
ATOM      4  H   UNL     1       1.924   8.954  20.448  0.00  0.00    +0.000 HD
ENDROOT
BRANCH   1   9
ATOM      5  C   UNL     1       3.883   5.190  18.014  0.00  0.00    +0.000 A 
ATOM      6  C   UNL     1       4.123   6.253  17.126  0.00  0.00    +0.000 A 
ATOM      7  C   UNL     1       3.593   7.524  17.361  0.00  0.00    +0.000 A 
ATOM      8  C   UNL     1       2.813   7.761  18.492  0.00  0.00    +0.000 A 
ATOM      9  C   UNL     1       2.581   6.724  19.400  0.00  0.00    +0.000 A 
ATOM     10  C   UNL     1       3.143   5.461  19.179  0.00  0.00    +0.000 A 
BRANCH   5  12
ATOM     11  C   UNL     1       5.105   3.704  16.372  0.00  0.00    +0.000 C 
ATOM     12  C   UNL     1       4.389   3.777  17.715  0.00  0.00    +0.000 C 
ATOM     13  N   UNL     1       5.208   3.274  18.804  0.00  0.00    +0.000 N 
ATOM     14  C   UNL     1       4.501   2.451  19.646  0.00  0.00    +0.000 C 
ATOM     15  O   UNL     1       4.908   2.025  20.711  0.00  0.00    +0.000 OA
ATOM     16  N   UNL     1       3.313   2.167  19.072  0.00  0.00    +0.000 N 
ATOM     17  C   UNL     1       3.251   2.729  17.833  0.00  0.00    +0.000 C 
ATOM     18  O   UNL     1       2.391   2.479  17.001  0.00  0.00    +0.000 OA
ATOM     19  H   UNL     1       6.101   3.648  19.093  0.00  0.00    +0.000 HD
ATOM     20  H   UNL     1       2.667   1.487  19.431  0.00  0.00    +0.000 HD
ENDBRANCH   5  12
ENDBRANCH   1   9
BRANCH   3  21
ATOM     21  C   UNL     1       0.637   8.562  22.086  0.00  0.00    +0.000 C 
BRANCH  21  22
ATOM     22  C   UNL     1       0.087   9.996  21.999  0.00  0.00    +0.000 C 
ATOM     23  C   UNL     1      -0.900  10.342  23.132  0.00  0.00    +0.000 C 
ATOM     24  C   UNL     1      -1.283  11.822  23.080  0.00  0.00    +0.000 C 
ATOM     25  N   UNL     1      -1.607  12.248  21.731  0.00  0.00    +0.000 N 
ATOM     26  N   UNL     1      -2.246  13.407  21.514  0.00  0.00    +0.000 NA
ATOM     27  C   UNL     1      -2.377  13.441  20.185  0.00  0.00    +0.000 A 
ATOM     28  C   UNL     1      -1.805  12.320  19.538  0.00  0.00    +0.000 A 
ATOM     29  C   UNL     1      -1.279  11.579  20.586  0.00  0.00    +0.000 A 
ATOM     30  C   UNL     1      -0.554  10.273  20.625  0.00  0.00    +0.000 C 
BRANCH  28  31
ATOM     31  C   UNL     1      -1.760  11.964  18.131  0.00  0.00    +0.000 C 
ATOM     32  N   UNL     1      -0.952  12.728  17.340  0.00  0.00    +0.000 N 
ATOM     33  O   UNL     1      -2.407  11.045  17.639  0.00  0.00    +0.000 OA
ATOM     34  H   UNL     1      -0.451  13.543  17.666  0.00  0.00    +0.000 HD
ATOM     35  H   UNL     1      -0.949  12.523  16.352  0.00  0.00    +0.000 HD
ENDBRANCH  28  31
ENDBRANCH  21  22
ENDBRANCH   3  21
TORSDOF 5
ENDMDL
