MODEL 1
REMARK VINA RESULT:      -9.4      0.000      0.000
REMARK  Name = 
REMARK  6 active torsions:
REMARK  status: ('A' for Active; 'I' for Inactive)
REMARK    1  A    between atoms: C_1  and  C_2
REMARK    2  A    between atoms: C_6  and  C_8
REMARK    3  A    between atoms: C_8  and  C_9
REMARK    4  A    between atoms: C_9  and  C_10
REMARK    5  A    between atoms: C_12  and  C_13
REMARK    6  A    between atoms: C_19  and  C_20
REMARK                            x       y       z     vdW  Elec       q    Type
REMARK                         _______ _______ _______ _____ _____    ______ ____
ROOT
ATOM      1  C   UNL     1       4.465   4.942  16.619  0.00  0.00    +0.000 A 
ATOM      2  N   UNL     1       4.033   4.008  17.441  0.00  0.00    +0.000 NA
ATOM      3  C   UNL     1       3.213   4.692  18.310  0.00  0.00    +0.000 A 
ATOM      4  C   UNL     1       3.199   6.040  17.985  0.00  0.00    +0.000 A 
ATOM      5  O   UNL     1       3.979   6.197  16.867  0.00  0.00    +0.000 OA
ENDROOT
BRANCH   3   6
ATOM      6  C   UNL     1       2.536   4.063  19.429  0.00  0.00    +0.000 A 
ATOM      7  C   UNL     1       1.166   3.786  19.345  0.00  0.00    +0.000 A 
ATOM      8  C   UNL     1       0.533   3.048  20.350  0.00  0.00    +0.000 A 
ATOM      9  C   UNL     1       1.265   2.581  21.442  0.00  0.00    +0.000 A 
ATOM     10  C   UNL     1       2.616   2.893  21.559  0.00  0.00    +0.000 A 
ATOM     11  C   UNL     1       3.238   3.660  20.575  0.00  0.00    +0.000 A 
ENDBRANCH   3   6
BRANCH   4  12
ATOM     12  C   UNL     1       2.592   7.242  18.545  0.00  0.00    +0.000 A 
ATOM     13  C   UNL     1       2.232   7.283  19.903  0.00  0.00    +0.000 A 
ATOM     14  C   UNL     1       1.469   8.333  20.414  0.00  0.00    +0.000 A 
ATOM     15  C   UNL     1       1.105   9.388  19.585  0.00  0.00    +0.000 A 
ATOM     16  C   UNL     1       1.521   9.401  18.253  0.00  0.00    +0.000 A 
ATOM     17  C   UNL     1       2.260   8.333  17.734  0.00  0.00    +0.000 A 
ENDBRANCH   4  12
BRANCH   1  18
ATOM     18  C   UNL     1       5.433   4.805  15.509  0.00  0.00    +0.000 C 
BRANCH  18  19
ATOM     19  C   UNL     1       6.749   4.188  15.970  0.00  0.00    +0.000 C 
BRANCH  19  25
ATOM     20  C   UNL     1       8.855  10.708  18.781  0.00  0.00    +0.000 C 
ATOM     21  C   UNL     1       8.500   9.334  18.380  0.00  0.00    +0.000 A 
ATOM     22  C   UNL     1       7.911   8.755  17.283  0.00  0.00    +0.000 A 
ATOM     23  C   UNL     1       7.885   7.368  17.577  0.00  0.00    +0.000 A 
ATOM     24  N   UNL     1       7.370   6.396  16.735  0.00  0.00    +0.000 N 
ATOM     25  C   UNL     1       7.355   5.051  17.058  0.00  0.00    +0.000 C 
ATOM     26  O   UNL     1       7.772   4.555  18.099  0.00  0.00    +0.000 OA
ATOM     27  N   UNL     1       8.432   7.145  18.775  0.00  0.00    +0.000 NA
ATOM     28  O   UNL     1       8.817   8.365  19.276  0.00  0.00    +0.000 OA
ATOM     29  H   UNL     1       6.996   6.705  15.852  0.00  0.00    +0.000 HD
ENDBRANCH  19  25
ENDBRANCH  18  19
ENDBRANCH   1  18
TORSDOF 5
ENDMDL
MODEL 2
REMARK VINA RESULT:      -9.4      1.284      1.808
REMARK  Name = 
REMARK  6 active torsions:
REMARK  status: ('A' for Active; 'I' for Inactive)
REMARK    1  A    between atoms: C_1  and  C_2
REMARK    2  A    between atoms: C_6  and  C_8
REMARK    3  A    between atoms: C_8  and  C_9
REMARK    4  A    between atoms: C_9  and  C_10
REMARK    5  A    between atoms: C_12  and  C_13
REMARK    6  A    between atoms: C_19  and  C_20
REMARK                            x       y       z     vdW  Elec       q    Type
REMARK                         _______ _______ _______ _____ _____    ______ ____
ROOT
ATOM      1  C   UNL     1       4.573   6.460  17.179  0.00  0.00    +0.000 A 
ATOM      2  N   UNL     1       4.183   5.337  17.744  0.00  0.00    +0.000 NA
ATOM      3  C   UNL     1       3.084   5.710  18.485  0.00  0.00    +0.000 A 
ATOM      4  C   UNL     1       2.863   7.072  18.351  0.00  0.00    +0.000 A 
ATOM      5  O   UNL     1       3.803   7.553  17.476  0.00  0.00    +0.000 OA
ENDROOT
BRANCH   3   6
ATOM      6  C   UNL     1       2.337   4.788  19.322  0.00  0.00    +0.000 A 
ATOM      7  C   UNL     1       1.427   3.900  18.736  0.00  0.00    +0.000 A 
ATOM      8  C   UNL     1       0.812   2.909  19.508  0.00  0.00    +0.000 A 
ATOM      9  C   UNL     1       1.107   2.796  20.867  0.00  0.00    +0.000 A 
ATOM     10  C   UNL     1       1.973   3.704  21.468  0.00  0.00    +0.000 A 
ATOM     11  C   UNL     1       2.556   4.715  20.706  0.00  0.00    +0.000 A 
ENDBRANCH   3   6
BRANCH   4  12
ATOM     12  C   UNL     1       1.925   8.037  18.915  0.00  0.00    +0.000 A 
ATOM     13  C   UNL     1       1.344   9.018  18.093  0.00  0.00    +0.000 A 
ATOM     14  C   UNL     1       0.611  10.072  18.638  0.00  0.00    +0.000 A 
ATOM     15  C   UNL     1       0.399  10.127  20.011  0.00  0.00    +0.000 A 
ATOM     16  C   UNL     1       0.903   9.119  20.833  0.00  0.00    +0.000 A 
ATOM     17  C   UNL     1       1.665   8.079  20.288  0.00  0.00    +0.000 A 
ENDBRANCH   4  12
BRANCH   1  18
ATOM     18  C   UNL     1       5.751   6.687  16.314  0.00  0.00    +0.000 C 
BRANCH  18  19
ATOM     19  C   UNL     1       7.002   6.006  16.862  0.00  0.00    +0.000 C 
BRANCH  19  25
ATOM     20  C   UNL     1       9.566  12.659  18.868  0.00  0.00    +0.000 C 
ATOM     21  C   UNL     1       9.124  11.272  18.631  0.00  0.00    +0.000 A 
ATOM     22  C   UNL     1       8.452  10.615  17.629  0.00  0.00    +0.000 A 
ATOM     23  C   UNL     1       8.373   9.269  18.070  0.00  0.00    +0.000 A 
ATOM     24  N   UNL     1       7.768   8.245  17.360  0.00  0.00    +0.000 N 
ATOM     25  C   UNL     1       7.703   6.943  17.824  0.00  0.00    +0.000 C 
ATOM     26  O   UNL     1       8.146   6.536  18.892  0.00  0.00    +0.000 OA
ATOM     27  N   UNL     1       8.967   9.142  19.259  0.00  0.00    +0.000 NA
ATOM     28  O   UNL     1       9.436  10.385  19.610  0.00  0.00    +0.000 OA
ATOM     29  H   UNL     1       7.366   8.480  16.466  0.00  0.00    +0.000 HD
ENDBRANCH  19  25
ENDBRANCH  18  19
ENDBRANCH   1  18
TORSDOF 5
ENDMDL
MODEL 3
REMARK VINA RESULT:      -9.3      1.646      2.675
REMARK  Name = 
REMARK  6 active torsions:
REMARK  status: ('A' for Active; 'I' for Inactive)
REMARK    1  A    between atoms: C_1  and  C_2
REMARK    2  A    between atoms: C_6  and  C_8
REMARK    3  A    between atoms: C_8  and  C_9
REMARK    4  A    between atoms: C_9  and  C_10
REMARK    5  A    between atoms: C_12  and  C_13
REMARK    6  A    between atoms: C_19  and  C_20
REMARK                            x       y       z     vdW  Elec       q    Type
REMARK                         _______ _______ _______ _____ _____    ______ ____
ROOT
ATOM      1  C   UNL     1       5.536   5.929  17.804  0.00  0.00    +0.000 A 
ATOM      2  N   UNL     1       5.022   4.834  18.322  0.00  0.00    +0.000 NA
ATOM      3  C   UNL     1       3.772   5.228  18.743  0.00  0.00    +0.000 A 
ATOM      4  C   UNL     1       3.586   6.576  18.476  0.00  0.00    +0.000 A 
ATOM      5  O   UNL     1       4.712   7.023  17.834  0.00  0.00    +0.000 OA
ENDROOT
BRANCH   3   6
ATOM      6  C   UNL     1       2.843   4.342  19.422  0.00  0.00    +0.000 A 
ATOM      7  C   UNL     1       3.008   4.079  20.787  0.00  0.00    +0.000 A 
ATOM      8  C   UNL     1       2.041   3.350  21.487  0.00  0.00    +0.000 A 
ATOM      9  C   UNL     1       0.903   2.884  20.828  0.00  0.00    +0.000 A 
ATOM     10  C   UNL     1       0.754   3.099  19.461  0.00  0.00    +0.000 A 
ATOM     11  C   UNL     1       1.737   3.793  18.757  0.00  0.00    +0.000 A 
ENDBRANCH   3   6
BRANCH   4  12
ATOM     12  C   UNL     1       2.534   7.554  18.729  0.00  0.00    +0.000 A 
ATOM     13  C   UNL     1       2.129   8.433  17.711  0.00  0.00    +0.000 A 
ATOM     14  C   UNL     1       1.279   9.505  17.981  0.00  0.00    +0.000 A 
ATOM     15  C   UNL     1       0.774   9.678  19.265  0.00  0.00    +0.000 A 
ATOM     16  C   UNL     1       1.105   8.769  20.270  0.00  0.00    +0.000 A 
ATOM     17  C   UNL     1       1.982   7.712  20.005  0.00  0.00    +0.000 A 
ENDBRANCH   4  12
BRANCH   1  18
ATOM     18  C   UNL     1       6.892   6.128  17.248  0.00  0.00    +0.000 C 
BRANCH  18  19
ATOM     19  C   UNL     1       7.861   6.685  18.286  0.00  0.00    +0.000 C 
BRANCH  19  25
ATOM     20  C   UNL     1      10.573  13.336  20.093  0.00  0.00    +0.000 C 
ATOM     21  C   UNL     1       9.957  12.096  19.585  0.00  0.00    +0.000 A 
ATOM     22  C   UNL     1       9.921  10.784  19.988  0.00  0.00    +0.000 A 
ATOM     23  C   UNL     1       9.129  10.128  19.010  0.00  0.00    +0.000 A 
ATOM     24  N   UNL     1       8.828   8.776  19.021  0.00  0.00    +0.000 N 
ATOM     25  C   UNL     1       8.058   8.168  18.046  0.00  0.00    +0.000 C 
ATOM     26  O   UNL     1       7.564   8.720  17.070  0.00  0.00    +0.000 OA
ATOM     27  N   UNL     1       8.721  11.005  18.090  0.00  0.00    +0.000 NA
ATOM     28  O   UNL     1       9.232  12.229  18.445  0.00  0.00    +0.000 OA
ATOM     29  H   UNL     1       9.194   8.229  19.785  0.00  0.00    +0.000 HD
ENDBRANCH  19  25
ENDBRANCH  18  19
ENDBRANCH   1  18
TORSDOF 5
ENDMDL
MODEL 4
REMARK VINA RESULT:      -9.2      0.220      1.306
REMARK  Name = 
REMARK  6 active torsions:
REMARK  status: ('A' for Active; 'I' for Inactive)
REMARK    1  A    between atoms: C_1  and  C_2
REMARK    2  A    between atoms: C_6  and  C_8
REMARK    3  A    between atoms: C_8  and  C_9
REMARK    4  A    between atoms: C_9  and  C_10
REMARK    5  A    between atoms: C_12  and  C_13
REMARK    6  A    between atoms: C_19  and  C_20
REMARK                            x       y       z     vdW  Elec       q    Type
REMARK                         _______ _______ _______ _____ _____    ______ ____
ROOT
ATOM      1  C   UNL     1       4.490   4.796  16.586  0.00  0.00    +0.000 A 
ATOM      2  N   UNL     1       4.101   3.813  17.370  0.00  0.00    +0.000 NA
ATOM      3  C   UNL     1       3.220   4.416  18.239  0.00  0.00    +0.000 A 
ATOM      4  C   UNL     1       3.127   5.770  17.952  0.00  0.00    +0.000 A 
ATOM      5  O   UNL     1       3.918   6.010  16.858  0.00  0.00    +0.000 OA
ENDROOT
BRANCH   3   6
ATOM      6  C   UNL     1       2.561   3.711  19.323  0.00  0.00    +0.000 A 
ATOM      7  C   UNL     1       3.313   3.252  20.411  0.00  0.00    +0.000 A 
ATOM      8  C   UNL     1       2.675   2.706  21.529  0.00  0.00    +0.000 A 
ATOM      9  C   UNL     1       1.283   2.618  21.568  0.00  0.00    +0.000 A 
ATOM     10  C   UNL     1       0.530   3.028  20.472  0.00  0.00    +0.000 A 
ATOM     11  C   UNL     1       1.169   3.538  19.342  0.00  0.00    +0.000 A 
ENDBRANCH   3   6
BRANCH   4  12
ATOM     12  C   UNL     1       2.431   6.913  18.533  0.00  0.00    +0.000 A 
ATOM     13  C   UNL     1       2.100   8.018  17.731  0.00  0.00    +0.000 A 
ATOM     14  C   UNL     1       1.625   9.201  18.296  0.00  0.00    +0.000 A 
ATOM     15  C   UNL     1       1.417   9.275  19.669  0.00  0.00    +0.000 A 
ATOM     16  C   UNL     1       1.668   8.161  20.471  0.00  0.00    +0.000 A 
ATOM     17  C   UNL     1       2.174   6.985  19.906  0.00  0.00    +0.000 A 
ENDBRANCH   4  12
BRANCH   1  18
ATOM     18  C   UNL     1       5.488   4.756  15.496  0.00  0.00    +0.000 C 
BRANCH  18  19
ATOM     19  C   UNL     1       6.816   4.162  15.957  0.00  0.00    +0.000 C 
BRANCH  19  25
ATOM     20  C   UNL     1       8.841  10.702  18.782  0.00  0.00    +0.000 C 
ATOM     21  C   UNL     1       8.501   9.325  18.379  0.00  0.00    +0.000 A 
ATOM     22  C   UNL     1       7.929   8.740  17.276  0.00  0.00    +0.000 A 
ATOM     23  C   UNL     1       7.909   7.353  17.572  0.00  0.00    +0.000 A 
ATOM     24  N   UNL     1       7.411   6.376  16.726  0.00  0.00    +0.000 N 
ATOM     25  C   UNL     1       7.402   5.031  17.051  0.00  0.00    +0.000 C 
ATOM     26  O   UNL     1       7.809   4.540  18.098  0.00  0.00    +0.000 OA
ATOM     27  N   UNL     1       8.443   7.136  18.777  0.00  0.00    +0.000 NA
ATOM     28  O   UNL     1       8.813   8.359  19.280  0.00  0.00    +0.000 OA
ATOM     29  H   UNL     1       7.046   6.680  15.837  0.00  0.00    +0.000 HD
ENDBRANCH  19  25
ENDBRANCH  18  19
ENDBRANCH   1  18
TORSDOF 5
ENDMDL
MODEL 5
REMARK VINA RESULT:      -9.2      1.264      3.790
REMARK  Name = 
REMARK  6 active torsions:
REMARK  status: ('A' for Active; 'I' for Inactive)
REMARK    1  A    between atoms: C_1  and  C_2
REMARK    2  A    between atoms: C_6  and  C_8
REMARK    3  A    between atoms: C_8  and  C_9
REMARK    4  A    between atoms: C_9  and  C_10
REMARK    5  A    between atoms: C_12  and  C_13
REMARK    6  A    between atoms: C_19  and  C_20
REMARK                            x       y       z     vdW  Elec       q    Type
REMARK                         _______ _______ _______ _____ _____    ______ ____
ROOT
ATOM      1  C   UNL     1       4.452   6.463  16.986  0.00  0.00    +0.000 A 
ATOM      2  N   UNL     1       3.877   7.594  17.336  0.00  0.00    +0.000 NA
ATOM      3  C   UNL     1       2.954   7.210  18.284  0.00  0.00    +0.000 A 
ATOM      4  C   UNL     1       2.996   5.835  18.454  0.00  0.00    +0.000 A 
ATOM      5  O   UNL     1       3.992   5.354  17.643  0.00  0.00    +0.000 OA
ENDROOT
BRANCH   3   6
ATOM      6  C   UNL     1       2.045   8.138  18.933  0.00  0.00    +0.000 A 
ATOM      7  C   UNL     1       1.372   9.098  18.169  0.00  0.00    +0.000 A 
ATOM      8  C   UNL     1       0.384   9.898  18.753  0.00  0.00    +0.000 A 
ATOM      9  C   UNL     1       0.062   9.740  20.101  0.00  0.00    +0.000 A 
ATOM     10  C   UNL     1       0.759   8.821  20.880  0.00  0.00    +0.000 A 
ATOM     11  C   UNL     1       1.769   8.050  20.305  0.00  0.00    +0.000 A 
ENDBRANCH   3   6
BRANCH   4  12
ATOM     12  C   UNL     1       2.252   4.858  19.241  0.00  0.00    +0.000 A 
ATOM     13  C   UNL     1       2.443   4.779  20.631  0.00  0.00    +0.000 A 
ATOM     14  C   UNL     1       1.904   3.728  21.373  0.00  0.00    +0.000 A 
ATOM     15  C   UNL     1       1.116   2.772  20.743  0.00  0.00    +0.000 A 
ATOM     16  C   UNL     1       0.852   2.878  19.377  0.00  0.00    +0.000 A 
ATOM     17  C   UNL     1       1.418   3.916  18.628  0.00  0.00    +0.000 A 
ENDBRANCH   4  12
BRANCH   1  18
ATOM     18  C   UNL     1       5.486   6.247  15.950  0.00  0.00    +0.000 C 
BRANCH  18  19
ATOM     19  C   UNL     1       6.699   5.502  16.499  0.00  0.00    +0.000 C 
BRANCH  19  25
ATOM     20  C   UNL     1       9.446  11.995  18.770  0.00  0.00    +0.000 C 
ATOM     21  C   UNL     1       8.963  10.632  18.479  0.00  0.00    +0.000 A 
ATOM     22  C   UNL     1       8.284  10.033  17.446  0.00  0.00    +0.000 A 
ATOM     23  C   UNL     1       8.157   8.675  17.838  0.00  0.00    +0.000 A 
ATOM     24  N   UNL     1       7.529   7.696  17.085  0.00  0.00    +0.000 N 
ATOM     25  C   UNL     1       7.417   6.382  17.502  0.00  0.00    +0.000 C 
ATOM     26  O   UNL     1       7.834   5.923  18.560  0.00  0.00    +0.000 OA
ATOM     27  N   UNL     1       8.732   8.488  19.028  0.00  0.00    +0.000 NA
ATOM     28  O   UNL     1       9.235   9.702  19.428  0.00  0.00    +0.000 OA
ATOM     29  H   UNL     1       7.146   7.975  16.195  0.00  0.00    +0.000 HD
ENDBRANCH  19  25
ENDBRANCH  18  19
ENDBRANCH   1  18
TORSDOF 5
ENDMDL
MODEL 6
REMARK VINA RESULT:      -9.1      1.683      2.413
REMARK  Name = 
REMARK  6 active torsions:
REMARK  status: ('A' for Active; 'I' for Inactive)
REMARK    1  A    between atoms: C_1  and  C_2
REMARK    2  A    between atoms: C_6  and  C_8
REMARK    3  A    between atoms: C_8  and  C_9
REMARK    4  A    between atoms: C_9  and  C_10
REMARK    5  A    between atoms: C_12  and  C_13
REMARK    6  A    between atoms: C_19  and  C_20
REMARK                            x       y       z     vdW  Elec       q    Type
REMARK                         _______ _______ _______ _____ _____    ______ ____
ROOT
ATOM      1  C   UNL     1       5.418   6.039  17.657  0.00  0.00    +0.000 A 
ATOM      2  N   UNL     1       4.778   4.952  18.032  0.00  0.00    +0.000 NA
ATOM      3  C   UNL     1       3.553   5.422  18.450  0.00  0.00    +0.000 A 
ATOM      4  C   UNL     1       3.510   6.803  18.328  0.00  0.00    +0.000 A 
ATOM      5  O   UNL     1       4.702   7.200  17.779  0.00  0.00    +0.000 OA
ENDROOT
BRANCH   3   6
ATOM      6  C   UNL     1       2.514   4.566  18.994  0.00  0.00    +0.000 A 
ATOM      7  C   UNL     1       1.774   3.743  18.138  0.00  0.00    +0.000 A 
ATOM      8  C   UNL     1       0.876   2.807  18.661  0.00  0.00    +0.000 A 
ATOM      9  C   UNL     1       0.716   2.686  20.041  0.00  0.00    +0.000 A 
ATOM     10  C   UNL     1       1.411   3.533  20.899  0.00  0.00    +0.000 A 
ATOM     11  C   UNL     1       2.278   4.491  20.375  0.00  0.00    +0.000 A 
ENDBRANCH   3   6
BRANCH   4  12
ATOM     12  C   UNL     1       2.546   7.848  18.651  0.00  0.00    +0.000 A 
ATOM     13  C   UNL     1       2.053   7.973  19.961  0.00  0.00    +0.000 A 
ATOM     14  C   UNL     1       0.986   8.823  20.251  0.00  0.00    +0.000 A 
ATOM     15  C   UNL     1       0.435   9.607  19.243  0.00  0.00    +0.000 A 
ATOM     16  C   UNL     1       0.964   9.553  17.953  0.00  0.00    +0.000 A 
ATOM     17  C   UNL     1       2.014   8.677  17.657  0.00  0.00    +0.000 A 
ENDBRANCH   4  12
BRANCH   1  18
ATOM     18  C   UNL     1       6.811   6.159  17.174  0.00  0.00    +0.000 C 
BRANCH  18  19
ATOM     19  C   UNL     1       7.751   6.673  18.260  0.00  0.00    +0.000 C 
BRANCH  19  25
ATOM     20  C   UNL     1      10.671  13.201  20.189  0.00  0.00    +0.000 C 
ATOM     21  C   UNL     1      10.030  11.987  19.650  0.00  0.00    +0.000 A 
ATOM     22  C   UNL     1       9.893  10.685  20.064  0.00  0.00    +0.000 A 
ATOM     23  C   UNL     1       9.144  10.056  19.037  0.00  0.00    +0.000 A 
ATOM     24  N   UNL     1       8.770   8.722  19.041  0.00  0.00    +0.000 N 
ATOM     25  C   UNL     1       8.045   8.140  18.017  0.00  0.00    +0.000 C 
ATOM     26  O   UNL     1       7.656   8.702  17.000  0.00  0.00    +0.000 OA
ATOM     27  N   UNL     1       8.854  10.939  18.078  0.00  0.00    +0.000 NA
ATOM     28  O   UNL     1       9.402  12.140  18.456  0.00  0.00    +0.000 OA
ATOM     29  H   UNL     1       9.048   8.170  19.837  0.00  0.00    +0.000 HD
ENDBRANCH  19  25
ENDBRANCH  18  19
ENDBRANCH   1  18
TORSDOF 5
ENDMDL
MODEL 7
REMARK VINA RESULT:      -9.0      1.464      2.452
REMARK  Name = 
REMARK  6 active torsions:
REMARK  status: ('A' for Active; 'I' for Inactive)
REMARK    1  A    between atoms: C_1  and  C_2
REMARK    2  A    between atoms: C_6  and  C_8
REMARK    3  A    between atoms: C_8  and  C_9
REMARK    4  A    between atoms: C_9  and  C_10
REMARK    5  A    between atoms: C_12  and  C_13
REMARK    6  A    between atoms: C_19  and  C_20
REMARK                            x       y       z     vdW  Elec       q    Type
REMARK                         _______ _______ _______ _____ _____    ______ ____
ROOT
ATOM      1  C   UNL     1       5.620   5.696  17.863  0.00  0.00    +0.000 A 
ATOM      2  N   UNL     1       5.013   4.591  18.240  0.00  0.00    +0.000 NA
ATOM      3  C   UNL     1       3.750   5.015  18.587  0.00  0.00    +0.000 A 
ATOM      4  C   UNL     1       3.651   6.389  18.424  0.00  0.00    +0.000 A 
ATOM      5  O   UNL     1       4.849   6.826  17.918  0.00  0.00    +0.000 OA
ENDROOT
BRANCH   3   6
ATOM      6  C   UNL     1       2.726   4.128  19.108  0.00  0.00    +0.000 A 
ATOM      7  C   UNL     1       2.521   4.040  20.490  0.00  0.00    +0.000 A 
ATOM      8  C   UNL     1       1.444   3.306  20.999  0.00  0.00    +0.000 A 
ATOM      9  C   UNL     1       0.565   2.661  20.130  0.00  0.00    +0.000 A 
ATOM     10  C   UNL     1       0.788   2.702  18.757  0.00  0.00    +0.000 A 
ATOM     11  C   UNL     1       1.883   3.403  18.253  0.00  0.00    +0.000 A 
ENDBRANCH   3   6
BRANCH   4  12
ATOM     12  C   UNL     1       2.628   7.398  18.672  0.00  0.00    +0.000 A 
ATOM     13  C   UNL     1       2.269   8.302  17.659  0.00  0.00    +0.000 A 
ATOM     14  C   UNL     1       1.450   9.399  17.929  0.00  0.00    +0.000 A 
ATOM     15  C   UNL     1       0.930   9.573  19.207  0.00  0.00    +0.000 A 
ATOM     16  C   UNL     1       1.213   8.641  20.205  0.00  0.00    +0.000 A 
ATOM     17  C   UNL     1       2.060   7.558  19.940  0.00  0.00    +0.000 A 
ENDBRANCH   4  12
BRANCH   1  18
ATOM     18  C   UNL     1       7.027   5.866  17.440  0.00  0.00    +0.000 C 
BRANCH  18  19
ATOM     19  C   UNL     1       7.296   7.266  16.895  0.00  0.00    +0.000 C 
BRANCH  19  25
ATOM     20  C   UNL     1      10.226  13.553  19.492  0.00  0.00    +0.000 C 
ATOM     21  C   UNL     1       9.714  12.219  19.127  0.00  0.00    +0.000 A 
ATOM     22  C   UNL     1       8.979  11.702  18.088  0.00  0.00    +0.000 A 
ATOM     23  C   UNL     1       8.854  10.321  18.387  0.00  0.00    +0.000 A 
ATOM     24  N   UNL     1       8.179   9.405  17.597  0.00  0.00    +0.000 N 
ATOM     25  C   UNL     1       8.071   8.065  17.923  0.00  0.00    +0.000 C 
ATOM     26  O   UNL     1       8.532   7.527  18.923  0.00  0.00    +0.000 OA
ATOM     27  N   UNL     1       9.483  10.043  19.532  0.00  0.00    +0.000 NA
ATOM     28  O   UNL     1      10.019  11.220  19.993  0.00  0.00    +0.000 OA
ATOM     29  H   UNL     1       7.758   9.751  16.749  0.00  0.00    +0.000 HD
ENDBRANCH  19  25
ENDBRANCH  18  19
ENDBRANCH   1  18
TORSDOF 5
ENDMDL
MODEL 8
REMARK VINA RESULT:      -8.9      2.780      5.634
REMARK  Name = 
REMARK  6 active torsions:
REMARK  status: ('A' for Active; 'I' for Inactive)
REMARK    1  A    between atoms: C_1  and  C_2
REMARK    2  A    between atoms: C_6  and  C_8
REMARK    3  A    between atoms: C_8  and  C_9
REMARK    4  A    between atoms: C_9  and  C_10
REMARK    5  A    between atoms: C_12  and  C_13
REMARK    6  A    between atoms: C_19  and  C_20
REMARK                            x       y       z     vdW  Elec       q    Type
REMARK                         _______ _______ _______ _____ _____    ______ ____
ROOT
ATOM      1  C   UNL     1       7.255   6.707  17.691  0.00  0.00    +0.000 A 
ATOM      2  N   UNL     1       6.168   6.196  18.229  0.00  0.00    +0.000 NA
ATOM      3  C   UNL     1       5.639   5.420  17.222  0.00  0.00    +0.000 A 
ATOM      4  C   UNL     1       6.432   5.512  16.088  0.00  0.00    +0.000 A 
ATOM      5  O   UNL     1       7.499   6.315  16.402  0.00  0.00    +0.000 OA
ENDROOT
BRANCH   3   6
ATOM      6  C   UNL     1       4.394   4.684  17.353  0.00  0.00    +0.000 A 
ATOM      7  C   UNL     1       4.415   3.284  17.364  0.00  0.00    +0.000 A 
ATOM      8  C   UNL     1       3.247   2.564  17.638  0.00  0.00    +0.000 A 
ATOM      9  C   UNL     1       2.056   3.238  17.907  0.00  0.00    +0.000 A 
ATOM     10  C   UNL     1       2.015   4.628  17.850  0.00  0.00    +0.000 A 
ATOM     11  C   UNL     1       3.171   5.344  17.540  0.00  0.00    +0.000 A 
ENDBRANCH   3   6
BRANCH   4  12
ATOM     12  C   UNL     1       6.370   4.992  14.727  0.00  0.00    +0.000 A 
ATOM     13  C   UNL     1       5.254   4.248  14.307  0.00  0.00    +0.000 A 
ATOM     14  C   UNL     1       5.260   3.568  13.089  0.00  0.00    +0.000 A 
ATOM     15  C   UNL     1       6.360   3.672  12.246  0.00  0.00    +0.000 A 
ATOM     16  C   UNL     1       7.445   4.469  12.613  0.00  0.00    +0.000 A 
ATOM     17  C   UNL     1       7.451   5.126  13.849  0.00  0.00    +0.000 A 
ENDBRANCH   4  12
BRANCH   1  18
ATOM     18  C   UNL     1       8.201   7.676  18.286  0.00  0.00    +0.000 C 
BRANCH  18  19
ATOM     19  C   UNL     1       7.988   9.088  17.750  0.00  0.00    +0.000 C 
BRANCH  19  25
ATOM     20  C   UNL     1      11.764  15.428  18.379  0.00  0.00    +0.000 C 
ATOM     21  C   UNL     1      11.075  14.125  18.425  0.00  0.00    +0.000 A 
ATOM     22  C   UNL     1      10.258  13.418  17.577  0.00  0.00    +0.000 A 
ATOM     23  C   UNL     1       9.961  12.221  18.277  0.00  0.00    +0.000 A 
ATOM     24  N   UNL     1       9.157  11.204  17.788  0.00  0.00    +0.000 N 
ATOM     25  C   UNL     1       8.882  10.052  18.503  0.00  0.00    +0.000 C 
ATOM     26  O   UNL     1       9.290   9.787  19.628  0.00  0.00    +0.000 OA
ATOM     27  N   UNL     1      10.572  12.223  19.465  0.00  0.00    +0.000 NA
ATOM     28  O   UNL     1      11.266  13.404  19.559  0.00  0.00    +0.000 OA
ATOM     29  H   UNL     1       8.766  11.330  16.868  0.00  0.00    +0.000 HD
ENDBRANCH  19  25
ENDBRANCH  18  19
ENDBRANCH   1  18
TORSDOF 5
ENDMDL
MODEL 9
REMARK VINA RESULT:      -8.9      4.069      7.439
REMARK  Name = 
REMARK  6 active torsions:
REMARK  status: ('A' for Active; 'I' for Inactive)
REMARK    1  A    between atoms: C_1  and  C_2
REMARK    2  A    between atoms: C_6  and  C_8
REMARK    3  A    between atoms: C_8  and  C_9
REMARK    4  A    between atoms: C_9  and  C_10
REMARK    5  A    between atoms: C_12  and  C_13
REMARK    6  A    between atoms: C_19  and  C_20
REMARK                            x       y       z     vdW  Elec       q    Type
REMARK                         _______ _______ _______ _____ _____    ______ ____
ROOT
ATOM      1  C   UNL     1       2.589   8.325  17.827  0.00  0.00    +0.000 A 
ATOM      2  N   UNL     1       3.769   7.968  17.367  0.00  0.00    +0.000 NA
ATOM      3  C   UNL     1       3.827   6.618  17.632  0.00  0.00    +0.000 A 
ATOM      4  C   UNL     1       2.666   6.211  18.272  0.00  0.00    +0.000 A 
ATOM      5  O   UNL     1       1.847   7.308  18.365  0.00  0.00    +0.000 OA
ENDROOT
BRANCH   3   6
ATOM      6  C   UNL     1       4.984   5.794  17.327  0.00  0.00    +0.000 A 
ATOM      7  C   UNL     1       5.215   5.384  16.009  0.00  0.00    +0.000 A 
ATOM      8  C   UNL     1       6.399   4.719  15.675  0.00  0.00    +0.000 A 
ATOM      9  C   UNL     1       7.359   4.464  16.655  0.00  0.00    +0.000 A 
ATOM     10  C   UNL     1       7.117   4.826  17.977  0.00  0.00    +0.000 A 
ATOM     11  C   UNL     1       5.920   5.455  18.315  0.00  0.00    +0.000 A 
ENDBRANCH   3   6
BRANCH   4  12
ATOM     12  C   UNL     1       2.172   4.963  18.843  0.00  0.00    +0.000 A 
ATOM     13  C   UNL     1       1.781   3.909  18.000  0.00  0.00    +0.000 A 
ATOM     14  C   UNL     1       1.117   2.791  18.506  0.00  0.00    +0.000 A 
ATOM     15  C   UNL     1       0.887   2.686  19.873  0.00  0.00    +0.000 A 
ATOM     16  C   UNL     1       1.337   3.688  20.733  0.00  0.00    +0.000 A 
ATOM     17  C   UNL     1       1.976   4.823  20.221  0.00  0.00    +0.000 A 
ENDBRANCH   4  12
BRANCH   1  18
ATOM     18  C   UNL     1       1.999   9.681  17.874  0.00  0.00    +0.000 C 
BRANCH  18  19
ATOM     19  C   UNL     1       0.536   9.653  18.308  0.00  0.00    +0.000 C 
BRANCH  19  25
ATOM     20  C   UNL     1      -2.495  13.788  23.653  0.00  0.00    +0.000 C 
ATOM     21  C   UNL     1      -1.777  12.899  22.721  0.00  0.00    +0.000 A 
ATOM     22  C   UNL     1      -1.866  12.605  21.382  0.00  0.00    +0.000 A 
ATOM     23  C   UNL     1      -0.845  11.648  21.155  0.00  0.00    +0.000 A 
ATOM     24  N   UNL     1      -0.572  11.067  19.926  0.00  0.00    +0.000 N 
ATOM     25  C   UNL     1       0.428  10.130  19.742  0.00  0.00    +0.000 C 
ATOM     26  O   UNL     1       1.176   9.694  20.610  0.00  0.00    +0.000 OA
ATOM     27  N   UNL     1      -0.192  11.397  22.292  0.00  0.00    +0.000 NA
ATOM     28  O   UNL     1      -0.768  12.175  23.267  0.00  0.00    +0.000 OA
ATOM     29  H   UNL     1      -1.139  11.357  19.145  0.00  0.00    +0.000 HD
ENDBRANCH  19  25
ENDBRANCH  18  19
ENDBRANCH   1  18
TORSDOF 5
ENDMDL
