MODEL 1
REMARK VINA RESULT:      -8.9      0.000      0.000
REMARK  Name = 
REMARK  5 active torsions:
REMARK  status: ('A' for Active; 'I' for Inactive)
REMARK    1  A    between atoms: C_1  and  C_2
REMARK    2  A    between atoms: C_5  and  C_6
REMARK    3  A    between atoms: C_10  and  C_11
REMARK    4  A    between atoms: N_13  and  C_14
REMARK    5  A    between atoms: N_18  and  C_19
REMARK                            x       y       z     vdW  Elec       q    Type
REMARK                         _______ _______ _______ _____ _____    ______ ____
ROOT
ATOM      1  C   UNL     1       5.558   3.975  18.183  0.00  0.00    +0.000 C 
ATOM      2  O   UNL     1       6.100   4.300  19.233  0.00  0.00    +0.000 OA
ATOM      3  N   UNL     1       4.468   3.138  18.116  0.00  0.00    +0.000 N 
ATOM      4  H   UNL     1       4.199   2.725  17.231  0.00  0.00    +0.000 HD
ENDROOT
BRANCH   1   9
ATOM      5  C   UNL     1       6.190   4.186  14.462  0.00  0.00    +0.000 A 
ATOM      6  C   UNL     1       7.035   5.306  14.396  0.00  0.00    +0.000 A 
ATOM      7  C   UNL     1       7.411   5.992  15.553  0.00  0.00    +0.000 A 
ATOM      8  C   UNL     1       6.940   5.571  16.797  0.00  0.00    +0.000 A 
ATOM      9  C   UNL     1       6.092   4.459  16.882  0.00  0.00    +0.000 A 
ATOM     10  C   UNL     1       5.738   3.760  15.720  0.00  0.00    +0.000 A 
BRANCH   5  15
ATOM     11  C   UNL     1       3.387   3.291  10.660  0.00  0.00    +0.000 C 
ATOM     12  C   UNL     1       4.555   3.132  11.544  0.00  0.00    +0.000 A 
ATOM     13  N   UNL     1       5.632   2.393  11.391  0.00  0.00    +0.000 NA
ATOM     14  N   UNL     1       6.432   2.646  12.487  0.00  0.00    +0.000 NA
ATOM     15  C   UNL     1       5.784   3.519  13.233  0.00  0.00    +0.000 A 
ATOM     16  O   UNL     1       4.572   3.870  12.695  0.00  0.00    +0.000 OA
ENDBRANCH   5  15
ENDBRANCH   1   9
BRANCH   3  17
ATOM     17  C   UNL     1       3.875   2.524  19.304  0.00  0.00    +0.000 C 
ATOM     18  C   UNL     1       2.736   1.566  18.914  0.00  0.00    +0.000 C 
ATOM     19  C   UNL     1       1.497   2.309  18.392  0.00  0.00    +0.000 C 
ATOM     20  C   UNL     1       1.052   3.438  19.329  0.00  0.00    +0.000 C 
ATOM     21  N   UNL     1       2.206   4.297  19.600  0.00  0.00    +0.000 N 
ATOM     22  C   UNL     1       3.341   3.619  20.249  0.00  0.00    +0.000 C 
BRANCH  21  23
ATOM     23  C   UNL     1       2.152   5.674  19.517  0.00  0.00    +0.000 A 
ATOM     24  C   UNL     1       1.706   6.478  20.577  0.00  0.00    +0.000 A 
ATOM     25  C   UNL     1       1.620   7.874  20.463  0.00  0.00    +0.000 A 
ATOM     26  C   UNL     1       1.962   8.497  19.269  0.00  0.00    +0.000 A 
ATOM     27  C   UNL     1       2.405   7.718  18.213  0.00  0.00    +0.000 A 
ATOM     28  F   UNL     1       2.720   8.300  17.047  0.00  0.00    +0.000 F 
ATOM     29  C   UNL     1       2.511   6.333  18.334  0.00  0.00    +0.000 A 
ENDBRANCH  21  23
ENDBRANCH   3  17
TORSDOF 4
ENDMDL
MODEL 2
REMARK VINA RESULT:      -8.9      0.874      1.256
REMARK  Name = 
REMARK  5 active torsions:
REMARK  status: ('A' for Active; 'I' for Inactive)
REMARK    1  A    between atoms: C_1  and  C_2
REMARK    2  A    between atoms: C_5  and  C_6
REMARK    3  A    between atoms: C_10  and  C_11
REMARK    4  A    between atoms: N_13  and  C_14
REMARK    5  A    between atoms: N_18  and  C_19
REMARK                            x       y       z     vdW  Elec       q    Type
REMARK                         _______ _______ _______ _____ _____    ______ ____
ROOT
ATOM      1  C   UNL     1       5.594   4.008  18.126  0.00  0.00    +0.000 C 
ATOM      2  O   UNL     1       6.120   4.376  19.170  0.00  0.00    +0.000 OA
ATOM      3  N   UNL     1       4.521   3.149  18.076  0.00  0.00    +0.000 N 
ATOM      4  H   UNL     1       4.268   2.704  17.202  0.00  0.00    +0.000 HD
ENDROOT
BRANCH   1   9
ATOM      5  C   UNL     1       6.206   4.156  14.399  0.00  0.00    +0.000 A 
ATOM      6  C   UNL     1       7.079   5.253  14.313  0.00  0.00    +0.000 A 
ATOM      7  C   UNL     1       7.479   5.944  15.459  0.00  0.00    +0.000 A 
ATOM      8  C   UNL     1       7.007   5.551  16.711  0.00  0.00    +0.000 A 
ATOM      9  C   UNL     1       6.132   4.462  16.815  0.00  0.00    +0.000 A 
ATOM     10  C   UNL     1       5.753   3.758  15.665  0.00  0.00    +0.000 A 
BRANCH   5  15
ATOM     11  C   UNL     1       3.352   3.277  10.632  0.00  0.00    +0.000 C 
ATOM     12  C   UNL     1       4.524   3.103  11.507  0.00  0.00    +0.000 A 
ATOM     13  N   UNL     1       5.583   2.339  11.355  0.00  0.00    +0.000 NA
ATOM     14  N   UNL     1       6.397   2.588  12.441  0.00  0.00    +0.000 NA
ATOM     15  C   UNL     1       5.775   3.483  13.181  0.00  0.00    +0.000 A 
ATOM     16  O   UNL     1       4.566   3.854  12.650  0.00  0.00    +0.000 OA
ENDBRANCH   5  15
ENDBRANCH   1   9
BRANCH   3  17
ATOM     17  C   UNL     1       3.929   2.561  19.278  0.00  0.00    +0.000 C 
ATOM     18  C   UNL     1       2.820   1.561  18.907  0.00  0.00    +0.000 C 
ATOM     19  C   UNL     1       1.569   2.252  18.344  0.00  0.00    +0.000 C 
ATOM     20  C   UNL     1       1.083   3.401  19.236  0.00  0.00    +0.000 C 
ATOM     21  N   UNL     1       2.210   4.299  19.491  0.00  0.00    +0.000 N 
ATOM     22  C   UNL     1       3.354   3.673  20.177  0.00  0.00    +0.000 C 
BRANCH  21  23
ATOM     23  C   UNL     1       2.122   5.670  19.360  0.00  0.00    +0.000 A 
ATOM     24  C   UNL     1       2.447   6.337  18.169  0.00  0.00    +0.000 A 
ATOM     25  C   UNL     1       2.390   7.736  18.064  0.00  0.00    +0.000 A 
ATOM     26  C   UNL     1       2.023   8.501  19.164  0.00  0.00    +0.000 A 
ATOM     27  C   UNL     1       1.700   7.858  20.347  0.00  0.00    +0.000 A 
ATOM     28  F   UNL     1       1.363   8.582  21.424  0.00  0.00    +0.000 F 
ATOM     29  C   UNL     1       1.735   6.468  20.445  0.00  0.00    +0.000 A 
ENDBRANCH  21  23
ENDBRANCH   3  17
TORSDOF 4
ENDMDL
MODEL 3
REMARK VINA RESULT:      -8.3      1.117      1.403
REMARK  Name = 
REMARK  5 active torsions:
REMARK  status: ('A' for Active; 'I' for Inactive)
REMARK    1  A    between atoms: C_1  and  C_2
REMARK    2  A    between atoms: C_5  and  C_6
REMARK    3  A    between atoms: C_10  and  C_11
REMARK    4  A    between atoms: N_13  and  C_14
REMARK    5  A    between atoms: N_18  and  C_19
REMARK                            x       y       z     vdW  Elec       q    Type
REMARK                         _______ _______ _______ _____ _____    ______ ____
ROOT
ATOM      1  C   UNL     1       5.502   4.348  18.854  0.00  0.00    +0.000 C 
ATOM      2  O   UNL     1       5.603   4.661  20.034  0.00  0.00    +0.000 OA
ATOM      3  N   UNL     1       4.732   3.300  18.408  0.00  0.00    +0.000 N 
ATOM      4  H   UNL     1       4.854   2.944  17.467  0.00  0.00    +0.000 HD
ENDROOT
BRANCH   1   9
ATOM      5  C   UNL     1       6.980   5.231  15.489  0.00  0.00    +0.000 A 
ATOM      6  C   UNL     1       7.651   6.426  15.795  0.00  0.00    +0.000 A 
ATOM      7  C   UNL     1       7.635   6.948  17.091  0.00  0.00    +0.000 A 
ATOM      8  C   UNL     1       6.941   6.282  18.101  0.00  0.00    +0.000 A 
ATOM      9  C   UNL     1       6.262   5.091  17.814  0.00  0.00    +0.000 A 
ATOM     10  C   UNL     1       6.302   4.561  16.517  0.00  0.00    +0.000 A 
BRANCH   5  15
ATOM     11  C   UNL     1       5.554   2.512  11.790  0.00  0.00    +0.000 C 
ATOM     12  C   UNL     1       6.342   3.547  12.479  0.00  0.00    +0.000 A 
ATOM     13  N   UNL     1       7.214   4.405  11.993  0.00  0.00    +0.000 NA
ATOM     14  N   UNL     1       7.627   5.179  13.058  0.00  0.00    +0.000 NA
ATOM     15  C   UNL     1       6.982   4.737  14.119  0.00  0.00    +0.000 A 
ATOM     16  O   UNL     1       6.147   3.688  13.826  0.00  0.00    +0.000 OA
ENDBRANCH   5  15
ENDBRANCH   1   9
BRANCH   3  17
ATOM     17  C   UNL     1       3.984   2.431  19.318  0.00  0.00    +0.000 C 
ATOM     18  C   UNL     1       3.007   1.534  18.537  0.00  0.00    +0.000 C 
ATOM     19  C   UNL     1       1.829   2.322  17.947  0.00  0.00    +0.000 C 
ATOM     20  C   UNL     1       1.142   3.215  18.987  0.00  0.00    +0.000 C 
ATOM     21  N   UNL     1       2.161   4.041  19.636  0.00  0.00    +0.000 N 
ATOM     22  C   UNL     1       3.210   3.285  20.341  0.00  0.00    +0.000 C 
BRANCH  21  23
ATOM     23  C   UNL     1       2.020   5.403  19.817  0.00  0.00    +0.000 A 
ATOM     24  C   UNL     1       1.398   5.953  20.948  0.00  0.00    +0.000 A 
ATOM     25  C   UNL     1       1.228   7.338  21.099  0.00  0.00    +0.000 A 
ATOM     26  C   UNL     1       1.661   8.205  20.103  0.00  0.00    +0.000 A 
ATOM     27  C   UNL     1       2.277   7.677  18.980  0.00  0.00    +0.000 A 
ATOM     28  F   UNL     1       2.683   8.497  18.000  0.00  0.00    +0.000 F 
ATOM     29  C   UNL     1       2.466   6.303  18.841  0.00  0.00    +0.000 A 
ENDBRANCH  21  23
ENDBRANCH   3  17
TORSDOF 4
ENDMDL
MODEL 4
REMARK VINA RESULT:      -8.2      4.257      6.877
REMARK  Name = 
REMARK  5 active torsions:
REMARK  status: ('A' for Active; 'I' for Inactive)
REMARK    1  A    between atoms: C_1  and  C_2
REMARK    2  A    between atoms: C_5  and  C_6
REMARK    3  A    between atoms: C_10  and  C_11
REMARK    4  A    between atoms: N_13  and  C_14
REMARK    5  A    between atoms: N_18  and  C_19
REMARK                            x       y       z     vdW  Elec       q    Type
REMARK                         _______ _______ _______ _____ _____    ______ ____
ROOT
ATOM      1  C   UNL     1       1.680   9.252  17.971  0.00  0.00    +0.000 C 
ATOM      2  O   UNL     1       0.573   9.145  17.458  0.00  0.00    +0.000 OA
ATOM      3  N   UNL     1       2.275  10.459  18.254  0.00  0.00    +0.000 N 
ATOM      4  H   UNL     1       3.265  10.500  18.465  0.00  0.00    +0.000 HD
ENDROOT
BRANCH   1   9
ATOM      5  C   UNL     1       4.265   6.513  17.648  0.00  0.00    +0.000 A 
ATOM      6  C   UNL     1       4.031   5.782  18.823  0.00  0.00    +0.000 A 
ATOM      7  C   UNL     1       3.033   6.166  19.722  0.00  0.00    +0.000 A 
ATOM      8  C   UNL     1       2.255   7.293  19.459  0.00  0.00    +0.000 A 
ATOM      9  C   UNL     1       2.477   8.038  18.293  0.00  0.00    +0.000 A 
ATOM     10  C   UNL     1       3.464   7.634  17.384  0.00  0.00    +0.000 A 
BRANCH   5  15
ATOM     11  C   UNL     1       6.294   4.139  13.992  0.00  0.00    +0.000 C 
ATOM     12  C   UNL     1       6.237   5.074  15.129  0.00  0.00    +0.000 A 
ATOM     13  N   UNL     1       7.151   5.902  15.585  0.00  0.00    +0.000 NA
ATOM     14  N   UNL     1       6.569   6.577  16.639  0.00  0.00    +0.000 NA
ATOM     15  C   UNL     1       5.342   6.110  16.753  0.00  0.00    +0.000 A 
ATOM     16  O   UNL     1       5.061   5.140  15.825  0.00  0.00    +0.000 OA
ENDBRANCH   5  15
ENDBRANCH   1   9
BRANCH   3  17
ATOM     17  C   UNL     1       1.647  11.740  17.928  0.00  0.00    +0.000 C 
ATOM     18  C   UNL     1       2.649  12.897  18.090  0.00  0.00    +0.000 C 
ATOM     19  C   UNL     1       2.993  13.173  19.561  0.00  0.00    +0.000 C 
ATOM     20  C   UNL     1       1.744  13.318  20.439  0.00  0.00    +0.000 C 
ATOM     21  N   UNL     1       0.889  12.150  20.225  0.00  0.00    +0.000 N 
ATOM     22  C   UNL     1       0.425  11.971  18.839  0.00  0.00    +0.000 C 
BRANCH  21  23
ATOM     23  C   UNL     1       0.332  11.428  21.261  0.00  0.00    +0.000 A 
ATOM     24  C   UNL     1       0.790  10.153  21.625  0.00  0.00    +0.000 A 
ATOM     25  C   UNL     1       0.187   9.415  22.656  0.00  0.00    +0.000 A 
ATOM     26  C   UNL     1      -0.909   9.935  23.334  0.00  0.00    +0.000 A 
ATOM     27  C   UNL     1      -1.374  11.192  22.986  0.00  0.00    +0.000 A 
ATOM     28  F   UNL     1      -2.443  11.700  23.616  0.00  0.00    +0.000 F 
ATOM     29  C   UNL     1      -0.761  11.934  21.978  0.00  0.00    +0.000 A 
ENDBRANCH  21  23
ENDBRANCH   3  17
TORSDOF 4
ENDMDL
MODEL 5
REMARK VINA RESULT:      -8.0      4.340      7.129
REMARK  Name = 
REMARK  5 active torsions:
REMARK  status: ('A' for Active; 'I' for Inactive)
REMARK    1  A    between atoms: C_1  and  C_2
REMARK    2  A    between atoms: C_5  and  C_6
REMARK    3  A    between atoms: C_10  and  C_11
REMARK    4  A    between atoms: N_13  and  C_14
REMARK    5  A    between atoms: N_18  and  C_19
REMARK                            x       y       z     vdW  Elec       q    Type
REMARK                         _______ _______ _______ _____ _____    ______ ____
ROOT
ATOM      1  C   UNL     1       1.416   9.690  18.097  0.00  0.00    +0.000 C 
ATOM      2  O   UNL     1       0.278   9.643  17.645  0.00  0.00    +0.000 OA
ATOM      3  N   UNL     1       2.110  10.862  18.290  0.00  0.00    +0.000 N 
ATOM      4  H   UNL     1       3.110  10.840  18.450  0.00  0.00    +0.000 HD
ENDROOT
BRANCH   1   9
ATOM      5  C   UNL     1       3.860   6.819  17.839  0.00  0.00    +0.000 A 
ATOM      6  C   UNL     1       3.560   6.103  19.008  0.00  0.00    +0.000 A 
ATOM      7  C   UNL     1       2.561   6.541  19.882  0.00  0.00    +0.000 A 
ATOM      8  C   UNL     1       1.850   7.707  19.599  0.00  0.00    +0.000 A 
ATOM      9  C   UNL     1       2.140   8.437  18.439  0.00  0.00    +0.000 A 
ATOM     10  C   UNL     1       3.127   7.980  17.555  0.00  0.00    +0.000 A 
BRANCH   5  15
ATOM     11  C   UNL     1       5.956   4.038  14.523  0.00  0.00    +0.000 C 
ATOM     12  C   UNL     1       5.859   5.141  15.495  0.00  0.00    +0.000 A 
ATOM     13  N   UNL     1       6.716   6.101  15.767  0.00  0.00    +0.000 NA
ATOM     14  N   UNL     1       6.115   6.893  16.724  0.00  0.00    +0.000 NA
ATOM     15  C   UNL     1       4.936   6.358  16.971  0.00  0.00    +0.000 A 
ATOM     16  O   UNL     1       4.707   5.229  16.227  0.00  0.00    +0.000 OA
ENDBRANCH   5  15
ENDBRANCH   1   9
BRANCH   3  17
ATOM     17  C   UNL     1       1.559  12.170  17.933  0.00  0.00    +0.000 C 
ATOM     18  C   UNL     1       2.602  13.280  18.149  0.00  0.00    +0.000 C 
ATOM     19  C   UNL     1       2.879  13.543  19.637  0.00  0.00    +0.000 C 
ATOM     20  C   UNL     1       1.594  13.745  20.447  0.00  0.00    +0.000 C 
ATOM     21  N   UNL     1       0.699  12.617  20.186  0.00  0.00    +0.000 N 
ATOM     22  C   UNL     1       0.302  12.457  18.777  0.00  0.00    +0.000 C 
BRANCH  21  23
ATOM     23  C   UNL     1       0.055  11.922  21.191  0.00  0.00    +0.000 A 
ATOM     24  C   UNL     1      -0.892  12.520  22.035  0.00  0.00    +0.000 A 
ATOM     25  C   UNL     1      -1.509  11.810  23.077  0.00  0.00    +0.000 A 
ATOM     26  C   UNL     1      -1.172  10.483  23.309  0.00  0.00    +0.000 A 
ATOM     27  C   UNL     1      -0.238   9.877  22.485  0.00  0.00    +0.000 A 
ATOM     28  F   UNL     1       0.115   8.603  22.707  0.00  0.00    +0.000 F 
ATOM     29  C   UNL     1       0.358  10.576  21.436  0.00  0.00    +0.000 A 
ENDBRANCH  21  23
ENDBRANCH   3  17
TORSDOF 4
ENDMDL
MODEL 6
REMARK VINA RESULT:      -7.9      7.271     10.844
REMARK  Name = 
REMARK  5 active torsions:
REMARK  status: ('A' for Active; 'I' for Inactive)
REMARK    1  A    between atoms: C_1  and  C_2
REMARK    2  A    between atoms: C_5  and  C_6
REMARK    3  A    between atoms: C_10  and  C_11
REMARK    4  A    between atoms: N_13  and  C_14
REMARK    5  A    between atoms: N_18  and  C_19
REMARK                            x       y       z     vdW  Elec       q    Type
REMARK                         _______ _______ _______ _____ _____    ______ ____
ROOT
ATOM      1  C   UNL     1      -1.452  12.595  21.991  0.00  0.00    +0.000 C 
ATOM      2  O   UNL     1      -0.985  13.557  21.392  0.00  0.00    +0.000 OA
ATOM      3  N   UNL     1      -2.589  12.658  22.762  0.00  0.00    +0.000 N 
ATOM      4  H   UNL     1      -2.807  11.907  23.407  0.00  0.00    +0.000 HD
ENDROOT
BRANCH   1   9
ATOM      5  C   UNL     1       0.538   9.680  20.640  0.00  0.00    +0.000 A 
ATOM      6  C   UNL     1       0.552   8.824  21.753  0.00  0.00    +0.000 A 
ATOM      7  C   UNL     1      -0.089   9.182  22.942  0.00  0.00    +0.000 A 
ATOM      8  C   UNL     1      -0.749  10.406  23.037  0.00  0.00    +0.000 A 
ATOM      9  C   UNL     1      -0.769  11.275  21.938  0.00  0.00    +0.000 A 
ATOM     10  C   UNL     1      -0.144  10.901  20.741  0.00  0.00    +0.000 A 
BRANCH   5  15
ATOM     11  C   UNL     1       3.332   6.919  17.868  0.00  0.00    +0.000 C 
ATOM     12  C   UNL     1       2.474   8.069  18.198  0.00  0.00    +0.000 A 
ATOM     13  N   UNL     1       2.022   9.032  17.425  0.00  0.00    +0.000 NA
ATOM     14  N   UNL     1       1.226   9.827  18.224  0.00  0.00    +0.000 NA
ATOM     15  C   UNL     1       1.252   9.295  19.430  0.00  0.00    +0.000 A 
ATOM     16  O   UNL     1       2.037   8.172  19.490  0.00  0.00    +0.000 OA
ENDBRANCH   5  15
ENDBRANCH   1   9
BRANCH   3  17
ATOM     17  C   UNL     1      -3.331  13.902  22.970  0.00  0.00    +0.000 C 
ATOM     18  C   UNL     1      -4.140  13.845  24.277  0.00  0.00    +0.000 C 
ATOM     19  C   UNL     1      -5.329  12.877  24.190  0.00  0.00    +0.000 C 
ATOM     20  C   UNL     1      -6.193  13.119  22.946  0.00  0.00    +0.000 C 
ATOM     21  N   UNL     1      -5.322  13.119  21.770  0.00  0.00    +0.000 N 
ATOM     22  C   UNL     1      -4.275  14.155  21.778  0.00  0.00    +0.000 C 
BRANCH  21  23
ATOM     23  C   UNL     1      -5.610  12.406  20.623  0.00  0.00    +0.000 A 
ATOM     24  C   UNL     1      -6.739  11.581  20.511  0.00  0.00    +0.000 A 
ATOM     25  C   UNL     1      -6.996  10.831  19.352  0.00  0.00    +0.000 A 
ATOM     26  C   UNL     1      -6.110  10.878  18.283  0.00  0.00    +0.000 A 
ATOM     27  C   UNL     1      -4.990  11.688  18.378  0.00  0.00    +0.000 A 
ATOM     28  F   UNL     1      -4.115  11.729  17.364  0.00  0.00    +0.000 F 
ATOM     29  C   UNL     1      -4.747  12.450  19.520  0.00  0.00    +0.000 A 
ENDBRANCH  21  23
ENDBRANCH   3  17
TORSDOF 4
ENDMDL
MODEL 7
REMARK VINA RESULT:      -7.9      8.750     12.188
REMARK  Name = 
REMARK  5 active torsions:
REMARK  status: ('A' for Active; 'I' for Inactive)
REMARK    1  A    between atoms: C_1  and  C_2
REMARK    2  A    between atoms: C_5  and  C_6
REMARK    3  A    between atoms: C_10  and  C_11
REMARK    4  A    between atoms: N_13  and  C_14
REMARK    5  A    between atoms: N_18  and  C_19
REMARK                            x       y       z     vdW  Elec       q    Type
REMARK                         _______ _______ _______ _____ _____    ______ ____
ROOT
ATOM      1  C   UNL     1      -5.897  13.150  21.625  0.00  0.00    +0.000 C 
ATOM      2  O   UNL     1      -6.720  13.782  22.276  0.00  0.00    +0.000 OA
ATOM      3  N   UNL     1      -4.696  12.715  22.134  0.00  0.00    +0.000 N 
ATOM      4  H   UNL     1      -3.963  12.399  21.509  0.00  0.00    +0.000 HD
ENDROOT
BRANCH   1   9
ATOM      5  C   UNL     1      -5.276  12.013  18.074  0.00  0.00    +0.000 A 
ATOM      6  C   UNL     1      -6.542  12.218  17.501  0.00  0.00    +0.000 A 
ATOM      7  C   UNL     1      -7.598  12.731  18.257  0.00  0.00    +0.000 A 
ATOM      8  C   UNL     1      -7.406  13.042  19.602  0.00  0.00    +0.000 A 
ATOM      9  C   UNL     1      -6.151  12.840  20.192  0.00  0.00    +0.000 A 
ATOM     10  C   UNL     1      -5.089  12.348  19.423  0.00  0.00    +0.000 A 
BRANCH   5  15
ATOM     11  C   UNL     1      -3.263  10.111  14.144  0.00  0.00    +0.000 C 
ATOM     12  C   UNL     1      -3.312  10.611  15.529  0.00  0.00    +0.000 A 
ATOM     13  N   UNL     1      -2.340  10.773  16.400  0.00  0.00    +0.000 NA
ATOM     14  N   UNL     1      -2.922  11.313  17.529  0.00  0.00    +0.000 NA
ATOM     15  C   UNL     1      -4.208  11.437  17.269  0.00  0.00    +0.000 A 
ATOM     16  O   UNL     1      -4.532  11.001  16.009  0.00  0.00    +0.000 OA
ENDBRANCH   5  15
ENDBRANCH   1   9
BRANCH   3  17
ATOM     17  C   UNL     1      -4.271  13.006  23.504  0.00  0.00    +0.000 C 
ATOM     18  C   UNL     1      -3.792  14.463  23.631  0.00  0.00    +0.000 C 
ATOM     19  C   UNL     1      -2.454  14.705  22.917  0.00  0.00    +0.000 C 
ATOM     20  C   UNL     1      -1.387  13.674  23.304  0.00  0.00    +0.000 C 
ATOM     21  N   UNL     1      -1.945  12.335  23.111  0.00  0.00    +0.000 N 
ATOM     22  C   UNL     1      -3.141  12.043  23.918  0.00  0.00    +0.000 C 
BRANCH  21  23
ATOM     23  C   UNL     1      -1.269  11.329  22.449  0.00  0.00    +0.000 A 
ATOM     24  C   UNL     1      -0.688  10.242  23.119  0.00  0.00    +0.000 A 
ATOM     25  C   UNL     1       0.030   9.248  22.435  0.00  0.00    +0.000 A 
ATOM     26  C   UNL     1       0.197   9.334  21.059  0.00  0.00    +0.000 A 
ATOM     27  C   UNL     1      -0.371  10.401  20.382  0.00  0.00    +0.000 A 
ATOM     28  F   UNL     1      -0.202  10.510  19.057  0.00  0.00    +0.000 F 
ATOM     29  C   UNL     1      -1.102  11.376  21.059  0.00  0.00    +0.000 A 
ENDBRANCH  21  23
ENDBRANCH   3  17
TORSDOF 4
ENDMDL
MODEL 8
REMARK VINA RESULT:      -7.8      8.100      9.892
REMARK  Name = 
REMARK  5 active torsions:
REMARK  status: ('A' for Active; 'I' for Inactive)
REMARK    1  A    between atoms: C_1  and  C_2
REMARK    2  A    between atoms: C_5  and  C_6
REMARK    3  A    between atoms: C_10  and  C_11
REMARK    4  A    between atoms: N_13  and  C_14
REMARK    5  A    between atoms: N_18  and  C_19
REMARK                            x       y       z     vdW  Elec       q    Type
REMARK                         _______ _______ _______ _____ _____    ______ ____
ROOT
ATOM      1  C   UNL     1      -0.875  11.194  18.524  0.00  0.00    +0.000 C 
ATOM      2  O   UNL     1      -0.025  12.030  18.240  0.00  0.00    +0.000 OA
ATOM      3  N   UNL     1      -0.703  10.231  19.491  0.00  0.00    +0.000 N 
ATOM      4  H   UNL     1      -1.330   9.436  19.534  0.00  0.00    +0.000 HD
ENDROOT
BRANCH   1   9
ATOM      5  C   UNL     1      -3.347  10.645  15.718  0.00  0.00    +0.000 A 
ATOM      6  C   UNL     1      -4.545  11.043  16.333  0.00  0.00    +0.000 A 
ATOM      7  C   UNL     1      -4.558  11.497  17.654  0.00  0.00    +0.000 A 
ATOM      8  C   UNL     1      -3.371  11.555  18.383  0.00  0.00    +0.000 A 
ATOM      9  C   UNL     1      -2.167  11.158  17.787  0.00  0.00    +0.000 A 
ATOM     10  C   UNL     1      -2.156  10.726  16.454  0.00  0.00    +0.000 A 
BRANCH   5  15
ATOM     11  C   UNL     1      -5.291   9.616  11.443  0.00  0.00    +0.000 C 
ATOM     12  C   UNL     1      -4.227   9.695  12.458  0.00  0.00    +0.000 A 
ATOM     13  N   UNL     1      -2.946   9.415  12.359  0.00  0.00    +0.000 NA
ATOM     14  N   UNL     1      -2.392   9.704  13.589  0.00  0.00    +0.000 NA
ATOM     15  C   UNL     1      -3.374  10.137  14.353  0.00  0.00    +0.000 A 
ATOM     16  O   UNL     1      -4.580  10.151  13.699  0.00  0.00    +0.000 OA
ENDBRANCH   5  15
ENDBRANCH   1   9
BRANCH   3  17
ATOM     17  C   UNL     1       0.541  10.093  20.250  0.00  0.00    +0.000 C 
ATOM     18  C   UNL     1       0.620   8.712  20.924  0.00  0.00    +0.000 C 
ATOM     19  C   UNL     1      -0.378   8.567  22.083  0.00  0.00    +0.000 C 
ATOM     20  C   UNL     1      -0.302   9.736  23.072  0.00  0.00    +0.000 C 
ATOM     21  N   UNL     1      -0.421  10.987  22.322  0.00  0.00    +0.000 N 
ATOM     22  C   UNL     1       0.631  11.204  21.314  0.00  0.00    +0.000 C 
BRANCH  21  23
ATOM     23  C   UNL     1      -1.270  12.009  22.697  0.00  0.00    +0.000 A 
ATOM     24  C   UNL     1      -2.462  11.780  23.400  0.00  0.00    +0.000 A 
ATOM     25  C   UNL     1      -3.334  12.827  23.739  0.00  0.00    +0.000 A 
ATOM     26  C   UNL     1      -3.037  14.130  23.360  0.00  0.00    +0.000 A 
ATOM     27  C   UNL     1      -1.864  14.373  22.665  0.00  0.00    +0.000 A 
ATOM     28  F   UNL     1      -1.572  15.621  22.273  0.00  0.00    +0.000 F 
ATOM     29  C   UNL     1      -0.987  13.336  22.348  0.00  0.00    +0.000 A 
ENDBRANCH  21  23
ENDBRANCH   3  17
TORSDOF 4
ENDMDL
MODEL 9
REMARK VINA RESULT:      -7.7      5.253      8.839
REMARK  Name = 
REMARK  5 active torsions:
REMARK  status: ('A' for Active; 'I' for Inactive)
REMARK    1  A    between atoms: C_1  and  C_2
REMARK    2  A    between atoms: C_5  and  C_6
REMARK    3  A    between atoms: C_10  and  C_11
REMARK    4  A    between atoms: N_13  and  C_14
REMARK    5  A    between atoms: N_18  and  C_19
REMARK                            x       y       z     vdW  Elec       q    Type
REMARK                         _______ _______ _______ _____ _____    ______ ____
ROOT
ATOM      1  C   UNL     1       0.970  10.000  21.192  0.00  0.00    +0.000 C 
ATOM      2  O   UNL     1       1.251   9.798  22.367  0.00  0.00    +0.000 OA
ATOM      3  N   UNL     1       0.203  11.058  20.764  0.00  0.00    +0.000 N 
ATOM      4  H   UNL     1      -0.186  11.059  19.828  0.00  0.00    +0.000 HD
ENDROOT
BRANCH   1   9
ATOM      5  C   UNL     1       2.232   6.827  19.572  0.00  0.00    +0.000 A 
ATOM      6  C   UNL     1       2.295   7.219  18.225  0.00  0.00    +0.000 A 
ATOM      7  C   UNL     1       1.938   8.512  17.836  0.00  0.00    +0.000 A 
ATOM      8  C   UNL     1       1.505   9.433  18.790  0.00  0.00    +0.000 A 
ATOM      9  C   UNL     1       1.431   9.058  20.137  0.00  0.00    +0.000 A 
ATOM     10  C   UNL     1       1.814   7.767  20.525  0.00  0.00    +0.000 A 
BRANCH   5  15
ATOM     11  C   UNL     1       1.578   2.531  21.628  0.00  0.00    +0.000 C 
ATOM     12  C   UNL     1       2.278   3.554  20.833  0.00  0.00    +0.000 A 
ATOM     13  N   UNL     1       3.385   3.463  20.130  0.00  0.00    +0.000 NA
ATOM     14  N   UNL     1       3.575   4.699  19.547  0.00  0.00    +0.000 NA
ATOM     15  C   UNL     1       2.572   5.459  19.939  0.00  0.00    +0.000 A 
ATOM     16  O   UNL     1       1.706   4.795  20.770  0.00  0.00    +0.000 OA
ENDBRANCH   5  15
ENDBRANCH   1   9
BRANCH   3  17
ATOM     17  C   UNL     1      -0.384  12.028  21.689  0.00  0.00    +0.000 C 
ATOM     18  C   UNL     1      -1.884  12.221  21.402  0.00  0.00    +0.000 C 
ATOM     19  C   UNL     1      -2.137  12.971  20.086  0.00  0.00    +0.000 C 
ATOM     20  C   UNL     1      -1.324  14.266  19.983  0.00  0.00    +0.000 C 
ATOM     21  N   UNL     1       0.082  13.953  20.241  0.00  0.00    +0.000 N 
ATOM     22  C   UNL     1       0.351  13.378  21.570  0.00  0.00    +0.000 C 
BRANCH  21  23
ATOM     23  C   UNL     1       1.111  14.401  19.438  0.00  0.00    +0.000 A 
ATOM     24  C   UNL     1       2.177  13.578  19.046  0.00  0.00    +0.000 A 
ATOM     25  C   UNL     1       3.237  14.060  18.261  0.00  0.00    +0.000 A 
ATOM     26  C   UNL     1       3.259  15.392  17.867  0.00  0.00    +0.000 A 
ATOM     27  C   UNL     1       2.214  16.219  18.245  0.00  0.00    +0.000 A 
ATOM     28  F   UNL     1       2.230  17.511  17.891  0.00  0.00    +0.000 F 
ATOM     29  C   UNL     1       1.151  15.734  19.006  0.00  0.00    +0.000 A 
ENDBRANCH  21  23
ENDBRANCH   3  17
TORSDOF 4
ENDMDL
