MODEL 1
REMARK VINA RESULT:      -9.2      0.000      0.000
REMARK  Name = 
REMARK  6 active torsions:
REMARK  status: ('A' for Active; 'I' for Inactive)
REMARK    1  A    between atoms: C_1  and  C_2
REMARK    2  A    between atoms: C_4  and  N_5
REMARK    3  A    between atoms: C_9  and  C_10
REMARK    4  A    between atoms: C_9  and  C_11
REMARK    5  A    between atoms: C_14  and  C_15
REMARK    6  A    between atoms: C_23  and  C_24
REMARK                            x       y       z     vdW  Elec       q    Type
REMARK                         _______ _______ _______ _____ _____    ______ ____
ROOT
ATOM      1  N   UNL     1       4.213   4.147  17.554  0.00  0.00    +0.000 N 
ATOM      2  C   UNL     1       3.177   3.672  16.631  0.00  0.00    +0.000 C 
ATOM      3  C   UNL     1       2.305   2.711  17.427  0.00  0.00    +0.000 C 
ATOM      4  C   UNL     1       2.939   2.635  18.811  0.00  0.00    +0.000 C 
ATOM      5  C   UNL     1       3.794   3.922  18.963  0.00  0.00    +0.000 C 
ATOM      6  C   UNL     1       4.967   3.588  19.904  0.00  0.00    +0.000 C 
ENDROOT
BRANCH   1  10
ATOM      7  C   UNL     1       7.870   7.449  18.077  0.00  0.00    +0.000 C 
ATOM      8  C   UNL     1       7.181   6.411  17.229  0.00  0.00    +0.000 A 
ATOM      9  C   UNL     1       6.025   5.702  17.845  0.00  0.00    +0.000 A 
ATOM     10  C   UNL     1       5.368   4.793  17.088  0.00  0.00    +0.000 A 
ATOM     11  N   UNL     1       5.823   4.609  15.761  0.00  0.00    +0.000 N 
ATOM     12  N   UNL     1       5.303   3.859  14.745  0.00  0.00    +0.000 NA
ATOM     13  C   UNL     1       6.167   4.055  13.758  0.00  0.00    +0.000 A 
ATOM     14  C   UNL     1       6.054   3.381  12.447  0.00  0.00    +0.000 C 
ATOM     15  N   UNL     1       7.173   4.940  14.028  0.00  0.00    +0.000 NA
ATOM     16  C   UNL     1       6.939   5.300  15.267  0.00  0.00    +0.000 A 
ATOM     17  N   UNL     1       7.618   6.218  16.027  0.00  0.00    +0.000 NA
ENDBRANCH   1  10
BRANCH   5  18
ATOM     18  C   UNL     1       2.962   5.121  19.501  0.00  0.00    +0.000 A 
ATOM     19  C   UNL     1       2.102   4.987  20.607  0.00  0.00    +0.000 A 
ATOM     20  C   UNL     1       1.393   6.074  21.137  0.00  0.00    +0.000 A 
ATOM     21  C   UNL     1       1.493   7.342  20.562  0.00  0.00    +0.000 A 
ATOM     22  C   UNL     1       2.307   7.497  19.442  0.00  0.00    +0.000 A 
ATOM     23  C   UNL     1       3.033   6.409  18.937  0.00  0.00    +0.000 A 
BRANCH  21  24
ATOM     24  C   UNL     1       0.749   8.510  21.152  0.00  0.00    +0.000 C 
ATOM     25  F   UNL     1      -0.491   8.176  21.608  0.00  0.00    +0.000 F 
ATOM     26  F   UNL     1       1.398   9.064  22.213  0.00  0.00    +0.000 F 
ATOM     27  F   UNL     1       0.556   9.521  20.261  0.00  0.00    +0.000 F 
ENDBRANCH  21  24
ENDBRANCH   5  18
TORSDOF 3
ENDMDL
MODEL 2
REMARK VINA RESULT:      -9.1      6.176      9.609
REMARK  Name = 
REMARK  6 active torsions:
REMARK  status: ('A' for Active; 'I' for Inactive)
REMARK    1  A    between atoms: C_1  and  C_2
REMARK    2  A    between atoms: C_4  and  N_5
REMARK    3  A    between atoms: C_9  and  C_10
REMARK    4  A    between atoms: C_9  and  C_11
REMARK    5  A    between atoms: C_14  and  C_15
REMARK    6  A    between atoms: C_23  and  C_24
REMARK                            x       y       z     vdW  Elec       q    Type
REMARK                         _______ _______ _______ _____ _____    ______ ____
ROOT
ATOM      1  N   UNL     1      -0.378  11.380  19.087  0.00  0.00    +0.000 N 
ATOM      2  C   UNL     1       0.509  12.474  18.682  0.00  0.00    +0.000 C 
ATOM      3  C   UNL     1       1.507  12.655  19.818  0.00  0.00    +0.000 C 
ATOM      4  C   UNL     1       1.095  11.651  20.888  0.00  0.00    +0.000 C 
ATOM      5  C   UNL     1       0.256  10.567  20.159  0.00  0.00    +0.000 C 
ATOM      6  C   UNL     1      -0.754  10.003  21.177  0.00  0.00    +0.000 C 
ENDROOT
BRANCH   1  10
ATOM      7  C   UNL     1      -3.026   9.698  15.251  0.00  0.00    +0.000 C 
ATOM      8  C   UNL     1      -2.990  10.392  16.588  0.00  0.00    +0.000 A 
ATOM      9  C   UNL     1      -1.662  10.498  17.253  0.00  0.00    +0.000 A 
ATOM     10  C   UNL     1      -1.601  11.151  18.437  0.00  0.00    +0.000 A 
ATOM     11  N   UNL     1      -2.807  11.699  18.934  0.00  0.00    +0.000 N 
ATOM     12  N   UNL     1      -3.034  12.490  20.024  0.00  0.00    +0.000 NA
ATOM     13  C   UNL     1      -4.349  12.661  19.998  0.00  0.00    +0.000 A 
ATOM     14  C   UNL     1      -5.080  13.412  21.042  0.00  0.00    +0.000 C 
ATOM     15  N   UNL     1      -4.990  12.105  18.928  0.00  0.00    +0.000 NA
ATOM     16  C   UNL     1      -4.023  11.529  18.256  0.00  0.00    +0.000 A 
ATOM     17  N   UNL     1      -4.099  10.864  17.060  0.00  0.00    +0.000 NA
ENDBRANCH   1  10
BRANCH   5  18
ATOM     18  C   UNL     1       1.143   9.439  19.560  0.00  0.00    +0.000 A 
ATOM     19  C   UNL     1       1.483   8.293  20.302  0.00  0.00    +0.000 A 
ATOM     20  C   UNL     1       2.231   7.243  19.754  0.00  0.00    +0.000 A 
ATOM     21  C   UNL     1       2.700   7.309  18.440  0.00  0.00    +0.000 A 
ATOM     22  C   UNL     1       2.413   8.449  17.693  0.00  0.00    +0.000 A 
ATOM     23  C   UNL     1       1.639   9.481  18.243  0.00  0.00    +0.000 A 
BRANCH  21  24
ATOM     24  C   UNL     1       3.482   6.167  17.849  0.00  0.00    +0.000 C 
ATOM     25  F   UNL     1       2.695   5.114  17.488  0.00  0.00    +0.000 F 
ATOM     26  F   UNL     1       4.163   6.523  16.725  0.00  0.00    +0.000 F 
ATOM     27  F   UNL     1       4.410   5.659  18.704  0.00  0.00    +0.000 F 
ENDBRANCH  21  24
ENDBRANCH   5  18
TORSDOF 3
ENDMDL
MODEL 3
REMARK VINA RESULT:      -9.1      0.082      1.171
REMARK  Name = 
REMARK  6 active torsions:
REMARK  status: ('A' for Active; 'I' for Inactive)
REMARK    1  A    between atoms: C_1  and  C_2
REMARK    2  A    between atoms: C_4  and  N_5
REMARK    3  A    between atoms: C_9  and  C_10
REMARK    4  A    between atoms: C_9  and  C_11
REMARK    5  A    between atoms: C_14  and  C_15
REMARK    6  A    between atoms: C_23  and  C_24
REMARK                            x       y       z     vdW  Elec       q    Type
REMARK                         _______ _______ _______ _____ _____    ______ ____
ROOT
ATOM      1  N   UNL     1       4.201   4.176  17.535  0.00  0.00    +0.000 N 
ATOM      2  C   UNL     1       3.135   3.772  16.613  0.00  0.00    +0.000 C 
ATOM      3  C   UNL     1       2.253   2.798  17.382  0.00  0.00    +0.000 C 
ATOM      4  C   UNL     1       2.912   2.641  18.747  0.00  0.00    +0.000 C 
ATOM      5  C   UNL     1       3.804   3.897  18.941  0.00  0.00    +0.000 C 
ATOM      6  C   UNL     1       4.986   3.490  19.841  0.00  0.00    +0.000 C 
ENDROOT
BRANCH   1  10
ATOM      7  C   UNL     1       7.877   7.454  18.073  0.00  0.00    +0.000 C 
ATOM      8  C   UNL     1       7.187   6.418  17.223  0.00  0.00    +0.000 A 
ATOM      9  C   UNL     1       6.022   5.719  17.833  0.00  0.00    +0.000 A 
ATOM     10  C   UNL     1       5.364   4.812  17.075  0.00  0.00    +0.000 A 
ATOM     11  N   UNL     1       5.827   4.621  15.752  0.00  0.00    +0.000 N 
ATOM     12  N   UNL     1       5.308   3.872  14.734  0.00  0.00    +0.000 NA
ATOM     13  C   UNL     1       6.180   4.059  13.753  0.00  0.00    +0.000 A 
ATOM     14  C   UNL     1       6.071   3.381  12.442  0.00  0.00    +0.000 C 
ATOM     15  N   UNL     1       7.190   4.937  14.027  0.00  0.00    +0.000 NA
ATOM     16  C   UNL     1       6.951   5.303  15.263  0.00  0.00    +0.000 A 
ATOM     17  N   UNL     1       7.631   6.218  16.024  0.00  0.00    +0.000 NA
ENDBRANCH   1  10
BRANCH   5  18
ATOM     18  C   UNL     1       3.016   5.091  19.550  0.00  0.00    +0.000 A 
ATOM     19  C   UNL     1       3.094   6.385  19.002  0.00  0.00    +0.000 A 
ATOM     20  C   UNL     1       2.343   7.455  19.506  0.00  0.00    +0.000 A 
ATOM     21  C   UNL     1       1.498   7.283  20.604  0.00  0.00    +0.000 A 
ATOM     22  C   UNL     1       1.430   6.022  21.193  0.00  0.00    +0.000 A 
ATOM     23  C   UNL     1       2.165   4.952  20.663  0.00  0.00    +0.000 A 
BRANCH  21  24
ATOM     24  C   UNL     1       0.675   8.430  21.124  0.00  0.00    +0.000 C 
ATOM     25  F   UNL     1       0.456   9.396  20.188  0.00  0.00    +0.000 F 
ATOM     26  F   UNL     1      -0.558   8.041  21.551  0.00  0.00    +0.000 F 
ATOM     27  F   UNL     1       1.254   9.064  22.181  0.00  0.00    +0.000 F 
ENDBRANCH  21  24
ENDBRANCH   5  18
TORSDOF 3
ENDMDL
MODEL 4
REMARK VINA RESULT:      -8.8      1.559      2.128
REMARK  Name = 
REMARK  6 active torsions:
REMARK  status: ('A' for Active; 'I' for Inactive)
REMARK    1  A    between atoms: C_1  and  C_2
REMARK    2  A    between atoms: C_4  and  N_5
REMARK    3  A    between atoms: C_9  and  C_10
REMARK    4  A    between atoms: C_9  and  C_11
REMARK    5  A    between atoms: C_14  and  C_15
REMARK    6  A    between atoms: C_23  and  C_24
REMARK                            x       y       z     vdW  Elec       q    Type
REMARK                         _______ _______ _______ _____ _____    ______ ____
ROOT
ATOM      1  N   UNL     1       3.614   4.527  18.132  0.00  0.00    +0.000 N 
ATOM      2  C   UNL     1       2.749   4.109  17.025  0.00  0.00    +0.000 C 
ATOM      3  C   UNL     1       1.413   3.730  17.650  0.00  0.00    +0.000 C 
ATOM      4  C   UNL     1       1.600   3.905  19.152  0.00  0.00    +0.000 C 
ATOM      5  C   UNL     1       2.799   4.876  19.326  0.00  0.00    +0.000 C 
ATOM      6  C   UNL     1       3.486   4.526  20.659  0.00  0.00    +0.000 C 
ENDROOT
BRANCH   1  10
ATOM      7  C   UNL     1       8.117   5.699  19.836  0.00  0.00    +0.000 C 
ATOM      8  C   UNL     1       7.253   5.221  18.698  0.00  0.00    +0.000 A 
ATOM      9  C   UNL     1       5.805   5.031  18.989  0.00  0.00    +0.000 A 
ATOM     10  C   UNL     1       5.004   4.640  17.971  0.00  0.00    +0.000 A 
ATOM     11  N   UNL     1       5.610   4.465  16.705  0.00  0.00    +0.000 N 
ATOM     12  N   UNL     1       5.051   4.189  15.489  0.00  0.00    +0.000 NA
ATOM     13  C   UNL     1       6.105   4.114  14.688  0.00  0.00    +0.000 A 
ATOM     14  C   UNL     1       6.000   3.763  13.255  0.00  0.00    +0.000 C 
ATOM     15  N   UNL     1       7.307   4.397  15.274  0.00  0.00    +0.000 NA
ATOM     16  C   UNL     1       6.990   4.639  16.522  0.00  0.00    +0.000 A 
ATOM     17  N   UNL     1       7.813   5.028  17.547  0.00  0.00    +0.000 NA
ENDBRANCH   1  10
BRANCH   5  18
ATOM     18  C   UNL     1       2.360   6.367  19.291  0.00  0.00    +0.000 A 
ATOM     19  C   UNL     1       2.499   7.152  18.131  0.00  0.00    +0.000 A 
ATOM     20  C   UNL     1       2.052   8.479  18.070  0.00  0.00    +0.000 A 
ATOM     21  C   UNL     1       1.470   9.090  19.182  0.00  0.00    +0.000 A 
ATOM     22  C   UNL     1       1.355   8.350  20.358  0.00  0.00    +0.000 A 
ATOM     23  C   UNL     1       1.780   7.015  20.398  0.00  0.00    +0.000 A 
BRANCH  21  24
ATOM     24  C   UNL     1       0.970  10.507  19.102  0.00  0.00    +0.000 C 
ATOM     25  F   UNL     1       1.005  11.153  20.302  0.00  0.00    +0.000 F 
ATOM     26  F   UNL     1       1.700  11.275  18.246  0.00  0.00    +0.000 F 
ATOM     27  F   UNL     1      -0.320  10.592  18.674  0.00  0.00    +0.000 F 
ENDBRANCH  21  24
ENDBRANCH   5  18
TORSDOF 3
ENDMDL
MODEL 5
REMARK VINA RESULT:      -8.8      1.595      2.105
REMARK  Name = 
REMARK  6 active torsions:
REMARK  status: ('A' for Active; 'I' for Inactive)
REMARK    1  A    between atoms: C_1  and  C_2
REMARK    2  A    between atoms: C_4  and  N_5
REMARK    3  A    between atoms: C_9  and  C_10
REMARK    4  A    between atoms: C_9  and  C_11
REMARK    5  A    between atoms: C_14  and  C_15
REMARK    6  A    between atoms: C_23  and  C_24
REMARK                            x       y       z     vdW  Elec       q    Type
REMARK                         _______ _______ _______ _____ _____    ______ ____
ROOT
ATOM      1  N   UNL     1       3.613   4.503  18.136  0.00  0.00    +0.000 N 
ATOM      2  C   UNL     1       2.761   4.014  17.048  0.00  0.00    +0.000 C 
ATOM      3  C   UNL     1       1.427   3.648  17.685  0.00  0.00    +0.000 C 
ATOM      4  C   UNL     1       1.602   3.904  19.177  0.00  0.00    +0.000 C 
ATOM      5  C   UNL     1       2.785   4.902  19.306  0.00  0.00    +0.000 C 
ATOM      6  C   UNL     1       3.470   4.633  20.659  0.00  0.00    +0.000 C 
ENDROOT
BRANCH   1  10
ATOM      7  C   UNL     1       8.104   5.713  19.846  0.00  0.00    +0.000 C 
ATOM      8  C   UNL     1       7.245   5.231  18.706  0.00  0.00    +0.000 A 
ATOM      9  C   UNL     1       5.798   5.026  18.996  0.00  0.00    +0.000 A 
ATOM     10  C   UNL     1       5.002   4.630  17.977  0.00  0.00    +0.000 A 
ATOM     11  N   UNL     1       5.610   4.463  16.710  0.00  0.00    +0.000 N 
ATOM     12  N   UNL     1       5.055   4.185  15.493  0.00  0.00    +0.000 NA
ATOM     13  C   UNL     1       6.111   4.122  14.693  0.00  0.00    +0.000 A 
ATOM     14  C   UNL     1       6.010   3.773  13.259  0.00  0.00    +0.000 C 
ATOM     15  N   UNL     1       7.309   4.415  15.280  0.00  0.00    +0.000 NA
ATOM     16  C   UNL     1       6.989   4.651  16.529  0.00  0.00    +0.000 A 
ATOM     17  N   UNL     1       7.807   5.045  17.556  0.00  0.00    +0.000 NA
ENDBRANCH   1  10
BRANCH   5  18
ATOM     18  C   UNL     1       2.323   6.382  19.190  0.00  0.00    +0.000 A 
ATOM     19  C   UNL     1       1.764   7.069  20.284  0.00  0.00    +0.000 A 
ATOM     20  C   UNL     1       1.399   8.420  20.208  0.00  0.00    +0.000 A 
ATOM     21  C   UNL     1       1.551   9.137  19.021  0.00  0.00    +0.000 A 
ATOM     22  C   UNL     1       2.066   8.472  17.909  0.00  0.00    +0.000 A 
ATOM     23  C   UNL     1       2.453   7.128  18.004  0.00  0.00    +0.000 A 
BRANCH  21  24
ATOM     24  C   UNL     1       1.181  10.594  18.954  0.00  0.00    +0.000 C 
ATOM     25  F   UNL     1       1.992  11.312  18.126  0.00  0.00    +0.000 F 
ATOM     26  F   UNL     1      -0.086  10.794  18.496  0.00  0.00    +0.000 F 
ATOM     27  F   UNL     1       1.245  11.215  20.163  0.00  0.00    +0.000 F 
ENDBRANCH  21  24
ENDBRANCH   5  18
TORSDOF 3
ENDMDL
MODEL 6
REMARK VINA RESULT:      -8.6      0.833      1.322
REMARK  Name = 
REMARK  6 active torsions:
REMARK  status: ('A' for Active; 'I' for Inactive)
REMARK    1  A    between atoms: C_1  and  C_2
REMARK    2  A    between atoms: C_4  and  N_5
REMARK    3  A    between atoms: C_9  and  C_10
REMARK    4  A    between atoms: C_9  and  C_11
REMARK    5  A    between atoms: C_14  and  C_15
REMARK    6  A    between atoms: C_23  and  C_24
REMARK                            x       y       z     vdW  Elec       q    Type
REMARK                         _______ _______ _______ _____ _____    ______ ____
ROOT
ATOM      1  N   UNL     1       4.037   4.690  17.650  0.00  0.00    +0.000 N 
ATOM      2  C   UNL     1       3.023   4.167  16.730  0.00  0.00    +0.000 C 
ATOM      3  C   UNL     1       2.033   3.389  17.585  0.00  0.00    +0.000 C 
ATOM      4  C   UNL     1       2.576   3.460  19.007  0.00  0.00    +0.000 C 
ATOM      5  C   UNL     1       3.520   4.693  19.045  0.00  0.00    +0.000 C 
ATOM      6  C   UNL     1       4.606   4.410  20.100  0.00  0.00    +0.000 C 
ENDROOT
BRANCH   1  10
ATOM      7  C   UNL     1       8.006   7.625  18.085  0.00  0.00    +0.000 C 
ATOM      8  C   UNL     1       7.234   6.611  17.282  0.00  0.00    +0.000 A 
ATOM      9  C   UNL     1       5.995   6.066  17.903  0.00  0.00    +0.000 A 
ATOM     10  C   UNL     1       5.266   5.182  17.183  0.00  0.00    +0.000 A 
ATOM     11  N   UNL     1       5.733   4.866  15.885  0.00  0.00    +0.000 N 
ATOM     12  N   UNL     1       5.163   4.110  14.901  0.00  0.00    +0.000 NA
ATOM     13  C   UNL     1       6.068   4.152  13.932  0.00  0.00    +0.000 A 
ATOM     14  C   UNL     1       5.918   3.408  12.662  0.00  0.00    +0.000 C 
ATOM     15  N   UNL     1       7.154   4.943  14.180  0.00  0.00    +0.000 NA
ATOM     16  C   UNL     1       6.928   5.406  15.385  0.00  0.00    +0.000 A 
ATOM     17  N   UNL     1       7.679   6.296  16.108  0.00  0.00    +0.000 NA
ENDBRANCH   1  10
BRANCH   5  18
ATOM     18  C   UNL     1       2.757   6.010  19.360  0.00  0.00    +0.000 A 
ATOM     19  C   UNL     1       2.728   7.084  18.450  0.00  0.00    +0.000 A 
ATOM     20  C   UNL     1       1.995   8.252  18.697  0.00  0.00    +0.000 A 
ATOM     21  C   UNL     1       1.278   8.410  19.884  0.00  0.00    +0.000 A 
ATOM     22  C   UNL     1       1.320   7.379  20.822  0.00  0.00    +0.000 A 
ATOM     23  C   UNL     1       2.034   6.204  20.552  0.00  0.00    +0.000 A 
BRANCH  21  24
ATOM     24  C   UNL     1       0.473   9.656  20.132  0.00  0.00    +0.000 C 
ATOM     25  F   UNL     1      -0.326   9.564  21.233  0.00  0.00    +0.000 F 
ATOM     26  F   UNL     1       1.252  10.755  20.330  0.00  0.00    +0.000 F 
ATOM     27  F   UNL     1      -0.357   9.967  19.099  0.00  0.00    +0.000 F 
ENDBRANCH  21  24
ENDBRANCH   5  18
TORSDOF 3
ENDMDL
MODEL 7
REMARK VINA RESULT:      -8.3      6.249      9.720
REMARK  Name = 
REMARK  6 active torsions:
REMARK  status: ('A' for Active; 'I' for Inactive)
REMARK    1  A    between atoms: C_1  and  C_2
REMARK    2  A    between atoms: C_4  and  N_5
REMARK    3  A    between atoms: C_9  and  C_10
REMARK    4  A    between atoms: C_9  and  C_11
REMARK    5  A    between atoms: C_14  and  C_15
REMARK    6  A    between atoms: C_23  and  C_24
REMARK                            x       y       z     vdW  Elec       q    Type
REMARK                         _______ _______ _______ _____ _____    ______ ____
ROOT
ATOM      1  N   UNL     1      -0.848  12.651  19.516  0.00  0.00    +0.000 N 
ATOM      2  C   UNL     1      -0.104  13.550  18.629  0.00  0.00    +0.000 C 
ATOM      3  C   UNL     1       1.210  13.854  19.336  0.00  0.00    +0.000 C 
ATOM      4  C   UNL     1       1.131  13.129  20.674  0.00  0.00    +0.000 C 
ATOM      5  C   UNL     1       0.070  12.009  20.494  0.00  0.00    +0.000 C 
ATOM      6  C   UNL     1      -0.578  11.762  21.870  0.00  0.00    +0.000 C 
ENDROOT
BRANCH   1  10
ATOM      7  C   UNL     1      -5.522  12.673  21.163  0.00  0.00    +0.000 C 
ATOM      8  C   UNL     1      -4.544  12.354  20.062  0.00  0.00    +0.000 A 
ATOM      9  C   UNL     1      -3.122  12.730  20.297  0.00  0.00    +0.000 A 
ATOM     10  C   UNL     1      -2.221  12.419  19.337  0.00  0.00    +0.000 A 
ATOM     11  N   UNL     1      -2.705  11.739  18.195  0.00  0.00    +0.000 N 
ATOM     12  N   UNL     1      -2.031  11.206  17.133  0.00  0.00    +0.000 NA
ATOM     13  C   UNL     1      -3.006  10.727  16.373  0.00  0.00    +0.000 A 
ATOM     14  C   UNL     1      -2.761  10.101  15.055  0.00  0.00    +0.000 C 
ATOM     15  N   UNL     1      -4.264  10.838  16.895  0.00  0.00    +0.000 NA
ATOM     16  C   UNL     1      -4.068  11.445  18.040  0.00  0.00    +0.000 A 
ATOM     17  N   UNL     1      -4.991  11.763  19.002  0.00  0.00    +0.000 NA
ENDBRANCH   1  10
BRANCH   5  18
ATOM     18  C   UNL     1       0.684  10.703  19.916  0.00  0.00    +0.000 A 
ATOM     19  C   UNL     1       1.091  10.609  18.572  0.00  0.00    +0.000 A 
ATOM     20  C   UNL     1       1.700   9.457  18.056  0.00  0.00    +0.000 A 
ATOM     21  C   UNL     1       1.902   8.333  18.859  0.00  0.00    +0.000 A 
ATOM     22  C   UNL     1       1.474   8.383  20.185  0.00  0.00    +0.000 A 
ATOM     23  C   UNL     1       0.891   9.550  20.697  0.00  0.00    +0.000 A 
BRANCH  21  24
ATOM     24  C   UNL     1       2.580   7.109  18.305  0.00  0.00    +0.000 C 
ATOM     25  F   UNL     1       1.701   6.188  17.819  0.00  0.00    +0.000 F 
ATOM     26  F   UNL     1       3.424   7.396  17.276  0.00  0.00    +0.000 F 
ATOM     27  F   UNL     1       3.330   6.452  19.232  0.00  0.00    +0.000 F 
ENDBRANCH  21  24
ENDBRANCH   5  18
TORSDOF 3
ENDMDL
MODEL 8
REMARK VINA RESULT:      -8.2      4.469      7.741
REMARK  Name = 
REMARK  6 active torsions:
REMARK  status: ('A' for Active; 'I' for Inactive)
REMARK    1  A    between atoms: C_1  and  C_2
REMARK    2  A    between atoms: C_4  and  N_5
REMARK    3  A    between atoms: C_9  and  C_10
REMARK    4  A    between atoms: C_9  and  C_11
REMARK    5  A    between atoms: C_14  and  C_15
REMARK    6  A    between atoms: C_23  and  C_24
REMARK                            x       y       z     vdW  Elec       q    Type
REMARK                         _______ _______ _______ _____ _____    ______ ____
ROOT
ATOM      1  N   UNL     1       5.310   5.794  17.901  0.00  0.00    +0.000 N 
ATOM      2  C   UNL     1       4.901   7.152  17.529  0.00  0.00    +0.000 C 
ATOM      3  C   UNL     1       6.184   7.913  17.219  0.00  0.00    +0.000 C 
ATOM      4  C   UNL     1       7.317   6.931  17.491  0.00  0.00    +0.000 C 
ATOM      5  C   UNL     1       6.686   5.514  17.411  0.00  0.00    +0.000 C 
ATOM      6  C   UNL     1       7.493   4.596  18.348  0.00  0.00    +0.000 C 
ENDROOT
BRANCH   1  10
ATOM      7  C   UNL     1       3.512   1.254  18.742  0.00  0.00    +0.000 C 
ATOM      8  C   UNL     1       3.448   2.736  19.006  0.00  0.00    +0.000 A 
ATOM      9  C   UNL     1       4.489   3.579  18.356  0.00  0.00    +0.000 A 
ATOM     10  C   UNL     1       4.427   4.917  18.550  0.00  0.00    +0.000 A 
ATOM     11  N   UNL     1       3.360   5.406  19.340  0.00  0.00    +0.000 N 
ATOM     12  N   UNL     1       2.979   6.689  19.613  0.00  0.00    +0.000 NA
ATOM     13  C   UNL     1       1.940   6.524  20.420  0.00  0.00    +0.000 A 
ATOM     14  C   UNL     1       1.221   7.657  21.042  0.00  0.00    +0.000 C 
ATOM     15  N   UNL     1       1.564   5.228  20.634  0.00  0.00    +0.000 NA
ATOM     16  C   UNL     1       2.435   4.538  19.939  0.00  0.00    +0.000 A 
ATOM     17  N   UNL     1       2.492   3.180  19.756  0.00  0.00    +0.000 NA
ENDBRANCH   1  10
BRANCH   5  18
ATOM     18  C   UNL     1       6.664   4.959  15.959  0.00  0.00    +0.000 A 
ATOM     19  C   UNL     1       5.709   4.013  15.542  0.00  0.00    +0.000 A 
ATOM     20  C   UNL     1       5.642   3.551  14.222  0.00  0.00    +0.000 A 
ATOM     21  C   UNL     1       6.552   3.995  13.261  0.00  0.00    +0.000 A 
ATOM     22  C   UNL     1       7.535   4.903  13.653  0.00  0.00    +0.000 A 
ATOM     23  C   UNL     1       7.575   5.379  14.971  0.00  0.00    +0.000 A 
BRANCH  21  24
ATOM     24  C   UNL     1       6.460   3.515  11.838  0.00  0.00    +0.000 C 
ATOM     25  F   UNL     1       7.030   2.291  11.651  0.00  0.00    +0.000 F 
ATOM     26  F   UNL     1       5.173   3.393  11.407  0.00  0.00    +0.000 F 
ATOM     27  F   UNL     1       7.073   4.348  10.954  0.00  0.00    +0.000 F 
ENDBRANCH  21  24
ENDBRANCH   5  18
TORSDOF 3
ENDMDL
MODEL 9
REMARK VINA RESULT:      -8.1      6.558     10.325
REMARK  Name = 
REMARK  6 active torsions:
REMARK  status: ('A' for Active; 'I' for Inactive)
REMARK    1  A    between atoms: C_1  and  C_2
REMARK    2  A    between atoms: C_4  and  N_5
REMARK    3  A    between atoms: C_9  and  C_10
REMARK    4  A    between atoms: C_9  and  C_11
REMARK    5  A    between atoms: C_14  and  C_15
REMARK    6  A    between atoms: C_23  and  C_24
REMARK                            x       y       z     vdW  Elec       q    Type
REMARK                         _______ _______ _______ _____ _____    ______ ____
ROOT
ATOM      1  N   UNL     1      -0.623  12.195  19.488  0.00  0.00    +0.000 N 
ATOM      2  C   UNL     1       0.225  13.184  18.815  0.00  0.00    +0.000 C 
ATOM      3  C   UNL     1       1.427  13.402  19.723  0.00  0.00    +0.000 C 
ATOM      4  C   UNL     1       1.176  12.533  20.949  0.00  0.00    +0.000 C 
ATOM      5  C   UNL     1       0.161  11.445  20.505  0.00  0.00    +0.000 C 
ATOM      6  C   UNL     1      -0.664  11.050  21.744  0.00  0.00    +0.000 C 
ENDROOT
BRANCH   1  10
ATOM      7  C   UNL     1      -4.030  10.671  16.229  0.00  0.00    +0.000 C 
ATOM      8  C   UNL     1      -3.709  11.307  17.557  0.00  0.00    +0.000 A 
ATOM      9  C   UNL     1      -2.270  11.389  17.931  0.00  0.00    +0.000 A 
ATOM     10  C   UNL     1      -1.957  11.991  19.101  0.00  0.00    +0.000 A 
ATOM     11  N   UNL     1      -3.027  12.514  19.864  0.00  0.00    +0.000 N 
ATOM     12  N   UNL     1      -3.015  13.258  21.010  0.00  0.00    +0.000 NA
ATOM     13  C   UNL     1      -4.304  13.427  21.268  0.00  0.00    +0.000 A 
ATOM     14  C   UNL     1      -4.795  14.131  22.473  0.00  0.00    +0.000 C 
ATOM     15  N   UNL     1      -5.161  12.915  20.335  0.00  0.00    +0.000 NA
ATOM     16  C   UNL     1      -4.360  12.370  19.451  0.00  0.00    +0.000 A 
ATOM     17  N   UNL     1      -4.690  11.756  18.271  0.00  0.00    +0.000 NA
ENDBRANCH   1  10
BRANCH   5  18
ATOM     18  C   UNL     1       0.861  10.208  19.875  0.00  0.00    +0.000 A 
ATOM     19  C   UNL     1       1.219  10.174  18.514  0.00  0.00    +0.000 A 
ATOM     20  C   UNL     1       1.903   9.090  17.948  0.00  0.00    +0.000 A 
ATOM     21  C   UNL     1       2.235   7.974  18.718  0.00  0.00    +0.000 A 
ATOM     22  C   UNL     1       1.860   7.961  20.060  0.00  0.00    +0.000 A 
ATOM     23  C   UNL     1       1.200   9.063  20.621  0.00  0.00    +0.000 A 
BRANCH  21  24
ATOM     24  C   UNL     1       2.993   6.824  18.111  0.00  0.00    +0.000 C 
ATOM     25  F   UNL     1       3.854   6.232  18.986  0.00  0.00    +0.000 F 
ATOM     26  F   UNL     1       2.173   5.830  17.667  0.00  0.00    +0.000 F 
ATOM     27  F   UNL     1       3.748   7.191  17.040  0.00  0.00    +0.000 F 
ENDBRANCH  21  24
ENDBRANCH   5  18
TORSDOF 3
ENDMDL
