MODEL 1
REMARK VINA RESULT:      -8.6      0.000      0.000
REMARK  Name = 
REMARK  5 active torsions:
REMARK  status: ('A' for Active; 'I' for Inactive)
REMARK    1  A    between atoms: C_1  and  C_2
REMARK    2  A    between atoms: C_6  and  S_7
REMARK    3  A    between atoms: S_7  and  N_10
REMARK    4  A    between atoms: N_10  and  C_11
REMARK    5  A    between atoms: C_16  and  C_17
REMARK                            x       y       z     vdW  Elec       q    Type
REMARK                         _______ _______ _______ _____ _____    ______ ____
ROOT
ATOM      1  C   UNL     1       2.589   7.028  19.559  0.00  0.00    +0.000 A 
ATOM      2  C   UNL     1       2.898   7.409  18.249  0.00  0.00    +0.000 A 
ATOM      3  C   UNL     1       2.322   8.550  17.667  0.00  0.00    +0.000 A 
ATOM      4  C   UNL     1       1.437   9.278  18.466  0.00  0.00    +0.000 A 
ATOM      5  N   UNL     1       0.714  10.424  18.246  0.00  0.00    +0.000 N 
ATOM      6  C   UNL     1      -0.037  10.688  19.367  0.00  0.00    +0.000 A 
ATOM      7  N   UNL     1       0.205   9.798  20.311  0.00  0.00    +0.000 NA
ATOM      8  C   UNL     1       1.114   8.920  19.767  0.00  0.00    +0.000 A 
ATOM      9  C   UNL     1       1.700   7.780  20.334  0.00  0.00    +0.000 A 
ATOM     10  H   UNL     1       0.711  10.997  17.413  0.00  0.00    +0.000 HD
ENDROOT
BRANCH   6  11
ATOM     11  C   UNL     1      -0.958  11.858  19.446  0.00  0.00    +0.000 C 
ATOM     12  C   UNL     1      -1.435  12.167  20.852  0.00  0.00    +0.000 C 
ATOM     13  C   UNL     1      -2.729  12.892  20.582  0.00  0.00    +0.000 C 
ATOM     14  C   UNL     1      -3.268  12.168  19.364  0.00  0.00    +0.000 C 
ATOM     15  O   UNL     1      -2.153  11.563  18.689  0.00  0.00    +0.000 OA
ENDBRANCH   6  11
BRANCH   1  16
ATOM     16  N   UNL     1       3.194   5.859  20.114  0.00  0.00    +0.000 N 
ATOM     17  H   UNL     1       4.069   6.002  20.619  0.00  0.00    +0.000 HD
BRANCH  16  18
ATOM     18  S   UNL     1       3.285   4.453  19.168  0.00  0.00    +0.000 S 
ATOM     19  O   UNL     1       2.227   4.503  18.176  0.00  0.00    +0.000 OA
ATOM     20  O   UNL     1       3.396   3.335  20.079  0.00  0.00    +0.000 OA
BRANCH  18  26
ATOM     21  C   UNL     1       6.132   3.838  14.841  0.00  0.00    +0.000 C 
ATOM     22  C   UNL     1       6.083   4.291  16.270  0.00  0.00    +0.000 A 
ATOM     23  C   UNL     1       7.228   4.769  16.920  0.00  0.00    +0.000 A 
ATOM     24  C   UNL     1       7.167   5.163  18.261  0.00  0.00    +0.000 A 
ATOM     25  C   UNL     1       5.966   5.075  18.968  0.00  0.00    +0.000 A 
ATOM     26  C   UNL     1       4.827   4.592  18.320  0.00  0.00    +0.000 A 
ATOM     27  C   UNL     1       4.882   4.218  16.983  0.00  0.00    +0.000 A 
ATOM     28  F   UNL     1       3.792   3.730  16.369  0.00  0.00    +0.000 F 
ENDBRANCH  18  26
ENDBRANCH  16  18
ENDBRANCH   1  16
TORSDOF 4
ENDMDL
MODEL 2
REMARK VINA RESULT:      -8.5      1.019      1.584
REMARK  Name = 
REMARK  5 active torsions:
REMARK  status: ('A' for Active; 'I' for Inactive)
REMARK    1  A    between atoms: C_1  and  C_2
REMARK    2  A    between atoms: C_6  and  S_7
REMARK    3  A    between atoms: S_7  and  N_10
REMARK    4  A    between atoms: N_10  and  C_11
REMARK    5  A    between atoms: C_16  and  C_17
REMARK                            x       y       z     vdW  Elec       q    Type
REMARK                         _______ _______ _______ _____ _____    ______ ____
ROOT
ATOM      1  C   UNL     1       2.415   7.251  19.603  0.00  0.00    +0.000 A 
ATOM      2  C   UNL     1       2.689   7.620  18.283  0.00  0.00    +0.000 A 
ATOM      3  C   UNL     1       2.074   8.739  17.696  0.00  0.00    +0.000 A 
ATOM      4  C   UNL     1       1.188   9.458  18.502  0.00  0.00    +0.000 A 
ATOM      5  N   UNL     1       0.434  10.582  18.281  0.00  0.00    +0.000 N 
ATOM      6  C   UNL     1      -0.301  10.845  19.413  0.00  0.00    +0.000 A 
ATOM      7  N   UNL     1      -0.019   9.975  20.364  0.00  0.00    +0.000 NA
ATOM      8  C   UNL     1       0.899   9.111  19.814  0.00  0.00    +0.000 A 
ATOM      9  C   UNL     1       1.524   7.993  20.385  0.00  0.00    +0.000 A 
ATOM     10  H   UNL     1       0.401  11.143  17.440  0.00  0.00    +0.000 HD
ENDROOT
BRANCH   6  11
ATOM     11  C   UNL     1      -1.248  11.995  19.494  0.00  0.00    +0.000 C 
ATOM     12  C   UNL     1      -1.724  12.296  20.902  0.00  0.00    +0.000 C 
ATOM     13  C   UNL     1      -3.035  12.992  20.637  0.00  0.00    +0.000 C 
ATOM     14  C   UNL     1      -3.564  12.251  19.424  0.00  0.00    +0.000 C 
ATOM     15  O   UNL     1      -2.440  11.670  18.744  0.00  0.00    +0.000 OA
ENDBRANCH   6  11
BRANCH   1  16
ATOM     16  N   UNL     1       3.058   6.105  20.162  0.00  0.00    +0.000 N 
ATOM     17  H   UNL     1       4.040   6.219  20.416  0.00  0.00    +0.000 HD
BRANCH  16  18
ATOM     18  S   UNL     1       2.810   4.590  19.440  0.00  0.00    +0.000 S 
ATOM     19  O   UNL     1       1.542   4.624  18.735  0.00  0.00    +0.000 OA
ATOM     20  O   UNL     1       3.071   3.589  20.451  0.00  0.00    +0.000 OA
BRANCH  18  26
ATOM     21  C   UNL     1       7.834   5.075  18.124  0.00  0.00    +0.000 C 
ATOM     22  C   UNL     1       6.446   4.696  17.701  0.00  0.00    +0.000 A 
ATOM     23  C   UNL     1       6.172   4.293  16.388  0.00  0.00    +0.000 A 
ATOM     24  C   UNL     1       4.866   3.970  16.006  0.00  0.00    +0.000 A 
ATOM     25  C   UNL     1       3.820   4.053  16.928  0.00  0.00    +0.000 A 
ATOM     26  C   UNL     1       4.094   4.461  18.236  0.00  0.00    +0.000 A 
ATOM     27  C   UNL     1       5.395   4.765  18.621  0.00  0.00    +0.000 A 
ATOM     28  F   UNL     1       5.652   5.181  19.870  0.00  0.00    +0.000 F 
ENDBRANCH  18  26
ENDBRANCH  16  18
ENDBRANCH   1  16
TORSDOF 4
ENDMDL
MODEL 3
REMARK VINA RESULT:      -8.5      0.973      1.218
REMARK  Name = 
REMARK  5 active torsions:
REMARK  status: ('A' for Active; 'I' for Inactive)
REMARK    1  A    between atoms: C_1  and  C_2
REMARK    2  A    between atoms: C_6  and  S_7
REMARK    3  A    between atoms: S_7  and  N_10
REMARK    4  A    between atoms: N_10  and  C_11
REMARK    5  A    between atoms: C_16  and  C_17
REMARK                            x       y       z     vdW  Elec       q    Type
REMARK                         _______ _______ _______ _____ _____    ______ ____
ROOT
ATOM      1  C   UNL     1       2.525   6.994  19.588  0.00  0.00    +0.000 A 
ATOM      2  C   UNL     1       2.895   7.294  18.273  0.00  0.00    +0.000 A 
ATOM      3  C   UNL     1       2.445   8.462  17.637  0.00  0.00    +0.000 A 
ATOM      4  C   UNL     1       1.620   9.303  18.389  0.00  0.00    +0.000 A 
ATOM      5  N   UNL     1       1.018  10.504  18.112  0.00  0.00    +0.000 N 
ATOM      6  C   UNL     1       0.275  10.883  19.205  0.00  0.00    +0.000 A 
ATOM      7  N   UNL     1       0.410  10.010  20.185  0.00  0.00    +0.000 NA
ATOM      8  C   UNL     1       1.238   9.028  19.694  0.00  0.00    +0.000 A 
ATOM      9  C   UNL     1       1.699   7.858  20.315  0.00  0.00    +0.000 A 
ATOM     10  H   UNL     1       1.087  11.043  17.259  0.00  0.00    +0.000 HD
ENDROOT
BRANCH   6  11
ATOM     11  C   UNL     1      -0.529  12.139  19.220  0.00  0.00    +0.000 C 
ATOM     12  C   UNL     1       0.127  13.293  18.485  0.00  0.00    +0.000 C 
ATOM     13  C   UNL     1      -0.513  14.483  19.155  0.00  0.00    +0.000 C 
ATOM     14  C   UNL     1      -0.650  14.021  20.592  0.00  0.00    +0.000 C 
ATOM     15  O   UNL     1      -0.671  12.584  20.588  0.00  0.00    +0.000 OA
ENDBRANCH   6  11
BRANCH   1  16
ATOM     16  N   UNL     1       3.001   5.795  20.199  0.00  0.00    +0.000 N 
ATOM     17  H   UNL     1       3.808   5.893  20.816  0.00  0.00    +0.000 HD
BRANCH  16  18
ATOM     18  S   UNL     1       3.156   4.396  19.250  0.00  0.00    +0.000 S 
ATOM     19  O   UNL     1       2.117   4.415  18.238  0.00  0.00    +0.000 OA
ATOM     20  O   UNL     1       3.287   3.279  20.159  0.00  0.00    +0.000 OA
BRANCH  18  26
ATOM     21  C   UNL     1       6.108   3.881  14.981  0.00  0.00    +0.000 C 
ATOM     22  C   UNL     1       6.016   4.332  16.408  0.00  0.00    +0.000 A 
ATOM     23  C   UNL     1       7.130   4.849  17.080  0.00  0.00    +0.000 A 
ATOM     24  C   UNL     1       7.029   5.240  18.420  0.00  0.00    +0.000 A 
ATOM     25  C   UNL     1       5.818   5.110  19.103  0.00  0.00    +0.000 A 
ATOM     26  C   UNL     1       4.709   4.588  18.433  0.00  0.00    +0.000 A 
ATOM     27  C   UNL     1       4.803   4.217  17.097  0.00  0.00    +0.000 A 
ATOM     28  F   UNL     1       3.744   3.692  16.462  0.00  0.00    +0.000 F 
ENDBRANCH  18  26
ENDBRANCH  16  18
ENDBRANCH   1  16
TORSDOF 4
ENDMDL
MODEL 4
REMARK VINA RESULT:      -8.4      1.409      2.022
REMARK  Name = 
REMARK  5 active torsions:
REMARK  status: ('A' for Active; 'I' for Inactive)
REMARK    1  A    between atoms: C_1  and  C_2
REMARK    2  A    between atoms: C_6  and  S_7
REMARK    3  A    between atoms: S_7  and  N_10
REMARK    4  A    between atoms: N_10  and  C_11
REMARK    5  A    between atoms: C_16  and  C_17
REMARK                            x       y       z     vdW  Elec       q    Type
REMARK                         _______ _______ _______ _____ _____    ______ ____
ROOT
ATOM      1  C   UNL     1       2.467   6.993  19.591  0.00  0.00    +0.000 A 
ATOM      2  C   UNL     1       2.786   7.308  18.266  0.00  0.00    +0.000 A 
ATOM      3  C   UNL     1       2.329   8.492  17.667  0.00  0.00    +0.000 A 
ATOM      4  C   UNL     1       1.549   9.334  18.465  0.00  0.00    +0.000 A 
ATOM      5  N   UNL     1       0.955  10.548  18.231  0.00  0.00    +0.000 N 
ATOM      6  C   UNL     1       0.265  10.921  19.360  0.00  0.00    +0.000 A 
ATOM      7  N   UNL     1       0.427  10.031  20.321  0.00  0.00    +0.000 NA
ATOM      8  C   UNL     1       1.218   9.044  19.781  0.00  0.00    +0.000 A 
ATOM      9  C   UNL     1       1.686   7.859  20.364  0.00  0.00    +0.000 A 
ATOM     10  H   UNL     1       0.997  11.099  17.384  0.00  0.00    +0.000 HD
ENDROOT
BRANCH   6  11
ATOM     11  C   UNL     1      -0.518  12.189  19.428  0.00  0.00    +0.000 C 
ATOM     12  C   UNL     1      -0.090  13.227  18.408  0.00  0.00    +0.000 C 
ATOM     13  C   UNL     1      -0.541  14.506  19.067  0.00  0.00    +0.000 C 
ATOM     14  C   UNL     1      -0.290  14.228  20.536  0.00  0.00    +0.000 C 
ATOM     15  O   UNL     1      -0.299  12.803  20.718  0.00  0.00    +0.000 OA
ENDBRANCH   6  11
BRANCH   1  16
ATOM     16  N   UNL     1       2.949   5.778  20.163  0.00  0.00    +0.000 N 
ATOM     17  H   UNL     1       3.876   5.817  20.590  0.00  0.00    +0.000 HD
BRANCH  16  18
ATOM     18  S   UNL     1       2.765   4.331  19.294  0.00  0.00    +0.000 S 
ATOM     19  O   UNL     1       1.529   4.409  18.539  0.00  0.00    +0.000 OA
ATOM     20  O   UNL     1       3.002   3.246  20.221  0.00  0.00    +0.000 OA
BRANCH  18  26
ATOM     21  C   UNL     1       7.811   5.122  18.236  0.00  0.00    +0.000 C 
ATOM     22  C   UNL     1       6.462   4.709  17.729  0.00  0.00    +0.000 A 
ATOM     23  C   UNL     1       6.262   4.377  16.384  0.00  0.00    +0.000 A 
ATOM     24  C   UNL     1       4.990   4.019  15.925  0.00  0.00    +0.000 A 
ATOM     25  C   UNL     1       3.904   3.998  16.802  0.00  0.00    +0.000 A 
ATOM     26  C   UNL     1       4.103   4.336  18.143  0.00  0.00    +0.000 A 
ATOM     27  C   UNL     1       5.370   4.673  18.604  0.00  0.00    +0.000 A 
ATOM     28  F   UNL     1       5.555   5.022  19.887  0.00  0.00    +0.000 F 
ENDBRANCH  18  26
ENDBRANCH  16  18
ENDBRANCH   1  16
TORSDOF 4
ENDMDL
MODEL 5
REMARK VINA RESULT:      -8.3      2.135      2.777
REMARK  Name = 
REMARK  5 active torsions:
REMARK  status: ('A' for Active; 'I' for Inactive)
REMARK    1  A    between atoms: C_1  and  C_2
REMARK    2  A    between atoms: C_6  and  S_7
REMARK    3  A    between atoms: S_7  and  N_10
REMARK    4  A    between atoms: N_10  and  C_11
REMARK    5  A    between atoms: C_16  and  C_17
REMARK                            x       y       z     vdW  Elec       q    Type
REMARK                         _______ _______ _______ _____ _____    ______ ____
ROOT
ATOM      1  C   UNL     1       2.326   5.255  18.732  0.00  0.00    +0.000 A 
ATOM      2  C   UNL     1       2.656   6.265  17.823  0.00  0.00    +0.000 A 
ATOM      3  C   UNL     1       2.479   7.621  18.143  0.00  0.00    +0.000 A 
ATOM      4  C   UNL     1       1.966   7.901  19.412  0.00  0.00    +0.000 A 
ATOM      5  N   UNL     1       1.679   9.075  20.061  0.00  0.00    +0.000 N 
ATOM      6  C   UNL     1       1.151   8.775  21.294  0.00  0.00    +0.000 A 
ATOM      7  N   UNL     1       1.129   7.470  21.488  0.00  0.00    +0.000 NA
ATOM      8  C   UNL     1       1.630   6.917  20.332  0.00  0.00    +0.000 A 
ATOM      9  C   UNL     1       1.816   5.568  19.997  0.00  0.00    +0.000 A 
ATOM     10  H   UNL     1       1.819  10.016  19.718  0.00  0.00    +0.000 HD
ENDROOT
BRANCH   6  11
ATOM     11  C   UNL     1       0.708   9.835  22.246  0.00  0.00    +0.000 C 
ATOM     12  C   UNL     1      -0.692   9.622  22.790  0.00  0.00    +0.000 C 
ATOM     13  C   UNL     1      -1.090  11.028  23.161  0.00  0.00    +0.000 C 
ATOM     14  C   UNL     1      -0.440  11.856  22.071  0.00  0.00    +0.000 C 
ATOM     15  O   UNL     1       0.664  11.099  21.549  0.00  0.00    +0.000 OA
ENDBRANCH   6  11
BRANCH   1  16
ATOM     16  N   UNL     1       2.518   3.889  18.368  0.00  0.00    +0.000 N 
ATOM     17  H   UNL     1       1.761   3.248  18.608  0.00  0.00    +0.000 HD
BRANCH  16  18
ATOM     18  S   UNL     1       4.020   3.160  18.675  0.00  0.00    +0.000 S 
ATOM     19  O   UNL     1       3.973   1.796  18.182  0.00  0.00    +0.000 OA
ATOM     20  O   UNL     1       4.355   3.441  20.054  0.00  0.00    +0.000 OA
BRANCH  18  26
ATOM     21  C   UNL     1       7.746   6.780  18.198  0.00  0.00    +0.000 C 
ATOM     22  C   UNL     1       6.895   5.743  17.526  0.00  0.00    +0.000 A 
ATOM     23  C   UNL     1       6.972   5.524  16.145  0.00  0.00    +0.000 A 
ATOM     24  C   UNL     1       6.151   4.571  15.533  0.00  0.00    +0.000 A 
ATOM     25  C   UNL     1       5.240   3.834  16.292  0.00  0.00    +0.000 A 
ATOM     26  C   UNL     1       5.159   4.059  17.668  0.00  0.00    +0.000 A 
ATOM     27  C   UNL     1       5.987   4.992  18.280  0.00  0.00    +0.000 A 
ATOM     28  F   UNL     1       5.891   5.224  19.598  0.00  0.00    +0.000 F 
ENDBRANCH  18  26
ENDBRANCH  16  18
ENDBRANCH   1  16
TORSDOF 4
ENDMDL
MODEL 6
REMARK VINA RESULT:      -8.3      1.866      2.255
REMARK  Name = 
REMARK  5 active torsions:
REMARK  status: ('A' for Active; 'I' for Inactive)
REMARK    1  A    between atoms: C_1  and  C_2
REMARK    2  A    between atoms: C_6  and  S_7
REMARK    3  A    between atoms: S_7  and  N_10
REMARK    4  A    between atoms: N_10  and  C_11
REMARK    5  A    between atoms: C_16  and  C_17
REMARK                            x       y       z     vdW  Elec       q    Type
REMARK                         _______ _______ _______ _____ _____    ______ ____
ROOT
ATOM      1  C   UNL     1       2.304   5.107  18.817  0.00  0.00    +0.000 A 
ATOM      2  C   UNL     1       2.646   6.056  17.849  0.00  0.00    +0.000 A 
ATOM      3  C   UNL     1       2.473   7.430  18.081  0.00  0.00    +0.000 A 
ATOM      4  C   UNL     1       1.950   7.792  19.325  0.00  0.00    +0.000 A 
ATOM      5  N   UNL     1       1.663   9.006  19.895  0.00  0.00    +0.000 N 
ATOM      6  C   UNL     1       1.122   8.787  21.140  0.00  0.00    +0.000 A 
ATOM      7  N   UNL     1       1.093   7.497  21.415  0.00  0.00    +0.000 NA
ATOM      8  C   UNL     1       1.601   6.869  20.302  0.00  0.00    +0.000 A 
ATOM      9  C   UNL     1       1.784   5.502  20.055  0.00  0.00    +0.000 A 
ATOM     10  H   UNL     1       1.811   9.922  19.494  0.00  0.00    +0.000 HD
ENDROOT
BRANCH   6  11
ATOM     11  C   UNL     1       0.677   9.907  22.018  0.00  0.00    +0.000 C 
ATOM     12  C   UNL     1      -0.542   9.577  22.858  0.00  0.00    +0.000 C 
ATOM     13  C   UNL     1      -1.111  10.949  23.120  0.00  0.00    +0.000 C 
ATOM     14  C   UNL     1      -0.826  11.680  21.824  0.00  0.00    +0.000 C 
ATOM     15  O   UNL     1       0.283  11.022  21.188  0.00  0.00    +0.000 OA
ENDBRANCH   6  11
BRANCH   1  16
ATOM     16  N   UNL     1       2.492   3.719  18.543  0.00  0.00    +0.000 N 
ATOM     17  H   UNL     1       1.707   3.105  18.764  0.00  0.00    +0.000 HD
BRANCH  16  18
ATOM     18  S   UNL     1       3.955   2.984  18.991  0.00  0.00    +0.000 S 
ATOM     19  O   UNL     1       4.077   1.734  18.265  0.00  0.00    +0.000 OA
ATOM     20  O   UNL     1       4.019   3.013  20.436  0.00  0.00    +0.000 OA
BRANCH  18  26
ATOM     21  C   UNL     1       6.668   4.999  15.018  0.00  0.00    +0.000 C 
ATOM     22  C   UNL     1       6.411   4.983  16.496  0.00  0.00    +0.000 A 
ATOM     23  C   UNL     1       7.159   5.779  17.371  0.00  0.00    +0.000 A 
ATOM     24  C   UNL     1       6.921   5.730  18.749  0.00  0.00    +0.000 A 
ATOM     25  C   UNL     1       5.942   4.880  19.266  0.00  0.00    +0.000 A 
ATOM     26  C   UNL     1       5.201   4.081  18.392  0.00  0.00    +0.000 A 
ATOM     27  C   UNL     1       5.424   4.143  17.021  0.00  0.00    +0.000 A 
ATOM     28  F   UNL     1       4.728   3.357  16.185  0.00  0.00    +0.000 F 
ENDBRANCH  18  26
ENDBRANCH  16  18
ENDBRANCH   1  16
TORSDOF 4
ENDMDL
MODEL 7
REMARK VINA RESULT:      -8.2      1.575      1.931
REMARK  Name = 
REMARK  5 active torsions:
REMARK  status: ('A' for Active; 'I' for Inactive)
REMARK    1  A    between atoms: C_1  and  C_2
REMARK    2  A    between atoms: C_6  and  S_7
REMARK    3  A    between atoms: S_7  and  N_10
REMARK    4  A    between atoms: N_10  and  C_11
REMARK    5  A    between atoms: C_16  and  C_17
REMARK                            x       y       z     vdW  Elec       q    Type
REMARK                         _______ _______ _______ _____ _____    ______ ____
ROOT
ATOM      1  C   UNL     1       2.508   5.998  18.881  0.00  0.00    +0.000 A 
ATOM      2  C   UNL     1       2.618   6.922  17.837  0.00  0.00    +0.000 A 
ATOM      3  C   UNL     1       2.211   8.256  17.997  0.00  0.00    +0.000 A 
ATOM      4  C   UNL     1       1.700   8.606  19.250  0.00  0.00    +0.000 A 
ATOM      5  N   UNL     1       1.230   9.788  19.765  0.00  0.00    +0.000 N 
ATOM      6  C   UNL     1       0.807   9.565  21.054  0.00  0.00    +0.000 A 
ATOM      7  N   UNL     1       1.028   8.313  21.407  0.00  0.00    +0.000 NA
ATOM      8  C   UNL     1       1.579   7.708  20.302  0.00  0.00    +0.000 A 
ATOM      9  C   UNL     1       1.994   6.381  20.125  0.00  0.00    +0.000 A 
ATOM     10  H   UNL     1       1.186  10.685  19.301  0.00  0.00    +0.000 HD
ENDROOT
BRANCH   6  11
ATOM     11  C   UNL     1       0.214  10.647  21.892  0.00  0.00    +0.000 C 
ATOM     12  C   UNL     1      -0.725  10.141  22.970  0.00  0.00    +0.000 C 
ATOM     13  C   UNL     1      -1.598  11.348  23.204  0.00  0.00    +0.000 C 
ATOM     14  C   UNL     1      -1.724  11.941  21.815  0.00  0.00    +0.000 C 
ATOM     15  O   UNL     1      -0.589  11.502  21.049  0.00  0.00    +0.000 OA
ENDBRANCH   6  11
BRANCH   1  16
ATOM     16  N   UNL     1       2.930   4.650  18.678  0.00  0.00    +0.000 N 
ATOM     17  H   UNL     1       2.285   3.924  18.991  0.00  0.00    +0.000 HD
BRANCH  16  18
ATOM     18  S   UNL     1       4.526   4.222  19.064  0.00  0.00    +0.000 S 
ATOM     19  O   UNL     1       4.590   2.779  19.202  0.00  0.00    +0.000 OA
ATOM     20  O   UNL     1       4.950   5.090  20.141  0.00  0.00    +0.000 OA
BRANCH  18  26
ATOM     21  C   UNL     1       5.314   3.953  13.915  0.00  0.00    +0.000 C 
ATOM     22  C   UNL     1       5.756   4.511  15.235  0.00  0.00    +0.000 A 
ATOM     23  C   UNL     1       6.891   5.325  15.337  0.00  0.00    +0.000 A 
ATOM     24  C   UNL     1       7.301   5.814  16.581  0.00  0.00    +0.000 A 
ATOM     25  C   UNL     1       6.589   5.488  17.737  0.00  0.00    +0.000 A 
ATOM     26  C   UNL     1       5.460   4.671  17.635  0.00  0.00    +0.000 A 
ATOM     27  C   UNL     1       5.041   4.200  16.397  0.00  0.00    +0.000 A 
ATOM     28  F   UNL     1       3.972   3.394  16.304  0.00  0.00    +0.000 F 
ENDBRANCH  18  26
ENDBRANCH  16  18
ENDBRANCH   1  16
TORSDOF 4
ENDMDL
MODEL 8
REMARK VINA RESULT:      -8.1      0.975      1.136
REMARK  Name = 
REMARK  5 active torsions:
REMARK  status: ('A' for Active; 'I' for Inactive)
REMARK    1  A    between atoms: C_1  and  C_2
REMARK    2  A    between atoms: C_6  and  S_7
REMARK    3  A    between atoms: S_7  and  N_10
REMARK    4  A    between atoms: N_10  and  C_11
REMARK    5  A    between atoms: C_16  and  C_17
REMARK                            x       y       z     vdW  Elec       q    Type
REMARK                         _______ _______ _______ _____ _____    ______ ____
ROOT
ATOM      1  C   UNL     1       2.290   6.853  19.970  0.00  0.00    +0.000 A 
ATOM      2  C   UNL     1       2.442   7.496  18.737  0.00  0.00    +0.000 A 
ATOM      3  C   UNL     1       1.906   8.774  18.509  0.00  0.00    +0.000 A 
ATOM      4  C   UNL     1       1.224   9.363  19.577  0.00  0.00    +0.000 A 
ATOM      5  N   UNL     1       0.597  10.574  19.724  0.00  0.00    +0.000 N 
ATOM      6  C   UNL     1       0.046  10.631  20.983  0.00  0.00    +0.000 A 
ATOM      7  N   UNL     1       0.331   9.539  21.666  0.00  0.00    +0.000 NA
ATOM      8  C   UNL     1       1.058   8.746  20.809  0.00  0.00    +0.000 A 
ATOM      9  C   UNL     1       1.603   7.471  21.020  0.00  0.00    +0.000 A 
ATOM     10  H   UNL     1       0.530  11.318  19.042  0.00  0.00    +0.000 HD
ENDROOT
BRANCH   6  11
ATOM     11  C   UNL     1      -0.731  11.813  21.455  0.00  0.00    +0.000 C 
ATOM     12  C   UNL     1      -1.498  11.566  22.740  0.00  0.00    +0.000 C 
ATOM     13  C   UNL     1      -2.599  12.592  22.639  0.00  0.00    +0.000 C 
ATOM     14  C   UNL     1      -2.902  12.607  21.154  0.00  0.00    +0.000 C 
ATOM     15  O   UNL     1      -1.731  12.139  20.465  0.00  0.00    +0.000 OA
ENDBRANCH   6  11
BRANCH   1  16
ATOM     16  N   UNL     1       2.847   5.553  20.161  0.00  0.00    +0.000 N 
ATOM     17  H   UNL     1       3.706   5.507  20.711  0.00  0.00    +0.000 HD
BRANCH  16  18
ATOM     18  S   UNL     1       2.944   4.498  18.835  0.00  0.00    +0.000 S 
ATOM     19  O   UNL     1       2.002   4.947  17.827  0.00  0.00    +0.000 OA
ATOM     20  O   UNL     1       2.885   3.151  19.359  0.00  0.00    +0.000 OA
BRANCH  18  26
ATOM     21  C   UNL     1       6.397   4.002  14.957  0.00  0.00    +0.000 C 
ATOM     22  C   UNL     1       6.117   4.488  16.348  0.00  0.00    +0.000 A 
ATOM     23  C   UNL     1       7.122   5.074  17.127  0.00  0.00    +0.000 A 
ATOM     24  C   UNL     1       6.847   5.497  18.432  0.00  0.00    +0.000 A 
ATOM     25  C   UNL     1       5.572   5.330  18.974  0.00  0.00    +0.000 A 
ATOM     26  C   UNL     1       4.572   4.739  18.198  0.00  0.00    +0.000 A 
ATOM     27  C   UNL     1       4.839   4.335  16.895  0.00  0.00    +0.000 A 
ATOM     28  F   UNL     1       3.884   3.745  16.159  0.00  0.00    +0.000 F 
ENDBRANCH  18  26
ENDBRANCH  16  18
ENDBRANCH   1  16
TORSDOF 4
ENDMDL
MODEL 9
REMARK VINA RESULT:      -8.0      2.644      3.835
REMARK  Name = 
REMARK  5 active torsions:
REMARK  status: ('A' for Active; 'I' for Inactive)
REMARK    1  A    between atoms: C_1  and  C_2
REMARK    2  A    between atoms: C_6  and  S_7
REMARK    3  A    between atoms: S_7  and  N_10
REMARK    4  A    between atoms: N_10  and  C_11
REMARK    5  A    between atoms: C_16  and  C_17
REMARK                            x       y       z     vdW  Elec       q    Type
REMARK                         _______ _______ _______ _____ _____    ______ ____
ROOT
ATOM      1  C   UNL     1       3.810   4.430  17.913  0.00  0.00    +0.000 A 
ATOM      2  C   UNL     1       3.606   3.774  19.131  0.00  0.00    +0.000 A 
ATOM      3  C   UNL     1       2.995   4.424  20.216  0.00  0.00    +0.000 A 
ATOM      4  C   UNL     1       2.601   5.748  20.008  0.00  0.00    +0.000 A 
ATOM      5  N   UNL     1       1.979   6.669  20.812  0.00  0.00    +0.000 N 
ATOM      6  C   UNL     1       1.862   7.849  20.115  0.00  0.00    +0.000 A 
ATOM      7  N   UNL     1       2.332   7.715  18.889  0.00  0.00    +0.000 NA
ATOM      8  C   UNL     1       2.794   6.421  18.810  0.00  0.00    +0.000 A 
ATOM      9  C   UNL     1       3.402   5.756  17.736  0.00  0.00    +0.000 A 
ATOM     10  H   UNL     1       1.653   6.536  21.760  0.00  0.00    +0.000 HD
ENDROOT
BRANCH   6  11
ATOM     11  C   UNL     1       1.247   9.067  20.717  0.00  0.00    +0.000 C 
ATOM     12  C   UNL     1       0.154   8.767  21.724  0.00  0.00    +0.000 C 
ATOM     13  C   UNL     1      -0.657  10.037  21.679  0.00  0.00    +0.000 C 
ATOM     14  C   UNL     1      -0.577  10.432  20.218  0.00  0.00    +0.000 C 
ATOM     15  O   UNL     1       0.609   9.832  19.670  0.00  0.00    +0.000 OA
ENDBRANCH   6  11
BRANCH   1  16
ATOM     16  N   UNL     1       4.437   3.736  16.834  0.00  0.00    +0.000 N 
ATOM     17  H   UNL     1       4.728   2.776  17.025  0.00  0.00    +0.000 HD
BRANCH  16  18
ATOM     18  S   UNL     1       5.621   4.537  15.920  0.00  0.00    +0.000 S 
ATOM     19  O   UNL     1       4.968   5.567  15.134  0.00  0.00    +0.000 OA
ATOM     20  O   UNL     1       6.428   3.518  15.285  0.00  0.00    +0.000 OA
BRANCH  18  26
ATOM     21  C   UNL     1       7.894   8.857  17.758  0.00  0.00    +0.000 C 
ATOM     22  C   UNL     1       7.651   7.386  17.924  0.00  0.00    +0.000 A 
ATOM     23  C   UNL     1       8.242   6.666  18.969  0.00  0.00    +0.000 A 
ATOM     24  C   UNL     1       8.024   5.289  19.091  0.00  0.00    +0.000 A 
ATOM     25  C   UNL     1       7.222   4.618  18.166  0.00  0.00    +0.000 A 
ATOM     26  C   UNL     1       6.638   5.336  17.120  0.00  0.00    +0.000 A 
ATOM     27  C   UNL     1       6.839   6.707  17.009  0.00  0.00    +0.000 A 
ATOM     28  F   UNL     1       6.298   7.392  15.989  0.00  0.00    +0.000 F 
ENDBRANCH  18  26
ENDBRANCH  16  18
ENDBRANCH   1  16
TORSDOF 4
ENDMDL
