MODEL 1
REMARK VINA RESULT:      -8.4      0.000      0.000
REMARK  Name = 
REMARK  6 active torsions:
REMARK  status: ('A' for Active; 'I' for Inactive)
REMARK    1  A    between atoms: C_1  and  N_2
REMARK    2  A    between atoms: N_2  and  C_3
REMARK    3  A    between atoms: N_2  and  C_16
REMARK    4  A    between atoms: C_3  and  C_4
REMARK    5  A    between atoms: C_4  and  C_5
REMARK    6  A    between atoms: C_16  and  C_17
REMARK                            x       y       z     vdW  Elec       q    Type
REMARK                         _______ _______ _______ _____ _____    ______ ____
ROOT
ATOM      1  C   UNL     1       0.767  10.303  20.450  0.00  0.00    +0.000 C 
ENDROOT
BRANCH   1   3
ATOM      2  C   UNL     1      -0.427   9.092  22.154  0.00  0.00    +0.000 C 
ATOM      3  N   UNL     1       0.394   8.954  20.941  0.00  0.00    +0.000 NA
BRANCH   3   4
ATOM      4  C   UNL     1       1.595   8.127  21.212  0.00  0.00    +0.000 C 
BRANCH   4   5
ATOM      5  C   UNL     1       1.785   6.976  20.248  0.00  0.00    +0.000 A 
ATOM      6  C   UNL     1       2.355   7.202  18.989  0.00  0.00    +0.000 A 
ATOM      7  C   UNL     1       2.638   6.131  18.143  0.00  0.00    +0.000 A 
ATOM      8  C   UNL     1       2.303   4.820  18.507  0.00  0.00    +0.000 A 
ATOM      9  C   UNL     1       2.612   3.731  17.676  0.00  0.00    +0.000 A 
ATOM     10  C   UNL     1       2.223   2.438  18.020  0.00  0.00    +0.000 A 
ATOM     11  C   UNL     1       1.520   2.215  19.202  0.00  0.00    +0.000 A 
ATOM     12  C   UNL     1       1.238   3.282  20.057  0.00  0.00    +0.000 A 
ATOM     13  C   UNL     1       1.636   4.590  19.732  0.00  0.00    +0.000 A 
ATOM     14  C   UNL     1       1.400   5.672  20.596  0.00  0.00    +0.000 A 
ENDBRANCH   4   5
ENDBRANCH   3   4
ENDBRANCH   1   3
BRANCH   1  15
ATOM     15  C   UNL     1       0.616  10.438  18.935  0.00  0.00    +0.000 C 
BRANCH  15  16
ATOM     16  C   UNL     1      -0.813  10.610  18.497  0.00  0.00    +0.000 A 
ATOM     17  N   UNL     1      -1.638  11.259  19.258  0.00  0.00    +0.000 NA
ATOM     18  C   UNL     1      -2.926  11.514  18.765  0.00  0.00    +0.000 A 
ATOM     19  C   UNL     1      -3.807  12.257  19.548  0.00  0.00    +0.000 A 
ATOM     20  C   UNL     1      -5.077  12.589  19.067  0.00  0.00    +0.000 A 
ATOM     21  C   UNL     1      -5.470  12.184  17.789  0.00  0.00    +0.000 A 
ATOM     22  C   UNL     1      -4.599  11.437  16.996  0.00  0.00    +0.000 A 
ATOM     23  C   UNL     1      -3.340  11.100  17.496  0.00  0.00    +0.000 A 
ATOM     24  C   UNL     1      -2.380  10.317  16.696  0.00  0.00    +0.000 A 
ATOM     25  O   UNL     1      -2.651   9.899  15.573  0.00  0.00    +0.000 OA
ATOM     26  N   UNL     1      -1.156  10.105  17.277  0.00  0.00    +0.000 N 
ATOM     27  H   UNL     1      -0.481   9.608  16.709  0.00  0.00    +0.000 HD
ENDBRANCH  15  16
ENDBRANCH   1  15
TORSDOF 5
ENDMDL
MODEL 2
REMARK VINA RESULT:      -8.2      3.403      5.591
REMARK  Name = 
REMARK  6 active torsions:
REMARK  status: ('A' for Active; 'I' for Inactive)
REMARK    1  A    between atoms: C_1  and  N_2
REMARK    2  A    between atoms: N_2  and  C_3
REMARK    3  A    between atoms: N_2  and  C_16
REMARK    4  A    between atoms: C_3  and  C_4
REMARK    5  A    between atoms: C_4  and  C_5
REMARK    6  A    between atoms: C_16  and  C_17
REMARK                            x       y       z     vdW  Elec       q    Type
REMARK                         _______ _______ _______ _____ _____    ______ ____
ROOT
ATOM      1  C   UNL     1       1.240   4.222  20.424  0.00  0.00    +0.000 C 
ENDROOT
BRANCH   1   3
ATOM      2  C   UNL     1       0.794   2.493  18.808  0.00  0.00    +0.000 C 
ATOM      3  N   UNL     1       1.742   3.549  19.201  0.00  0.00    +0.000 NA
BRANCH   3   4
ATOM      4  C   UNL     1       3.096   2.985  19.412  0.00  0.00    +0.000 C 
BRANCH   4   5
ATOM      5  C   UNL     1       4.167   3.601  18.538  0.00  0.00    +0.000 A 
ATOM      6  C   UNL     1       5.235   4.294  19.119  0.00  0.00    +0.000 A 
ATOM      7  C   UNL     1       6.282   4.764  18.328  0.00  0.00    +0.000 A 
ATOM      8  C   UNL     1       6.256   4.608  16.934  0.00  0.00    +0.000 A 
ATOM      9  C   UNL     1       7.320   5.051  16.132  0.00  0.00    +0.000 A 
ATOM     10  C   UNL     1       7.258   4.943  14.744  0.00  0.00    +0.000 A 
ATOM     11  C   UNL     1       6.131   4.391  14.139  0.00  0.00    +0.000 A 
ATOM     12  C   UNL     1       5.082   3.912  14.925  0.00  0.00    +0.000 A 
ATOM     13  C   UNL     1       5.135   3.999  16.327  0.00  0.00    +0.000 A 
ATOM     14  C   UNL     1       4.109   3.488  17.139  0.00  0.00    +0.000 A 
ENDBRANCH   4   5
ENDBRANCH   3   4
ENDBRANCH   1   3
BRANCH   1  15
ATOM     15  C   UNL     1       2.163   5.345  20.896  0.00  0.00    +0.000 C 
BRANCH  15  16
ATOM     16  C   UNL     1       1.872   6.664  20.233  0.00  0.00    +0.000 A 
ATOM     17  N   UNL     1       1.252   7.588  20.898  0.00  0.00    +0.000 NA
ATOM     18  C   UNL     1       1.111   8.848  20.298  0.00  0.00    +0.000 A 
ATOM     19  C   UNL     1       0.495   9.868  21.019  0.00  0.00    +0.000 A 
ATOM     20  C   UNL     1       0.393  11.155  20.484  0.00  0.00    +0.000 A 
ATOM     21  C   UNL     1       0.919  11.432  19.220  0.00  0.00    +0.000 A 
ATOM     22  C   UNL     1       1.535  10.419  18.484  0.00  0.00    +0.000 A 
ATOM     23  C   UNL     1       1.616   9.135  19.026  0.00  0.00    +0.000 A 
ATOM     24  C   UNL     1       2.262   8.031  18.292  0.00  0.00    +0.000 A 
ATOM     25  O   UNL     1       2.728   8.178  17.166  0.00  0.00    +0.000 OA
ATOM     26  N   UNL     1       2.330   6.834  18.959  0.00  0.00    +0.000 N 
ATOM     27  H   UNL     1       2.816   6.090  18.474  0.00  0.00    +0.000 HD
ENDBRANCH  15  16
ENDBRANCH   1  15
TORSDOF 5
ENDMDL
MODEL 3
REMARK VINA RESULT:      -8.1      3.089      5.149
REMARK  Name = 
REMARK  6 active torsions:
REMARK  status: ('A' for Active; 'I' for Inactive)
REMARK    1  A    between atoms: C_1  and  N_2
REMARK    2  A    between atoms: N_2  and  C_3
REMARK    3  A    between atoms: N_2  and  C_16
REMARK    4  A    between atoms: C_3  and  C_4
REMARK    5  A    between atoms: C_4  and  C_5
REMARK    6  A    between atoms: C_16  and  C_17
REMARK                            x       y       z     vdW  Elec       q    Type
REMARK                         _______ _______ _______ _____ _____    ______ ____
ROOT
ATOM      1  C   UNL     1       2.221   5.591  20.454  0.00  0.00    +0.000 C 
ENDROOT
BRANCH   1   3
ATOM      2  C   UNL     1       0.834   3.640  20.191  0.00  0.00    +0.000 C 
ATOM      3  N   UNL     1       1.993   4.367  19.648  0.00  0.00    +0.000 NA
BRANCH   3   4
ATOM      4  C   UNL     1       3.195   3.498  19.633  0.00  0.00    +0.000 C 
BRANCH   4   5
ATOM      5  C   UNL     1       4.266   3.941  18.659  0.00  0.00    +0.000 A 
ATOM      6  C   UNL     1       5.463   4.490  19.134  0.00  0.00    +0.000 A 
ATOM      7  C   UNL     1       6.497   4.792  18.249  0.00  0.00    +0.000 A 
ATOM      8  C   UNL     1       6.337   4.612  16.868  0.00  0.00    +0.000 A 
ATOM      9  C   UNL     1       7.383   4.884  15.972  0.00  0.00    +0.000 A 
ATOM     10  C   UNL     1       7.196   4.756  14.597  0.00  0.00    +0.000 A 
ATOM     11  C   UNL     1       5.958   4.354  14.099  0.00  0.00    +0.000 A 
ATOM     12  C   UNL     1       4.920   4.043  14.979  0.00  0.00    +0.000 A 
ATOM     13  C   UNL     1       5.098   4.152  16.368  0.00  0.00    +0.000 A 
ATOM     14  C   UNL     1       4.081   3.806  17.274  0.00  0.00    +0.000 A 
ENDBRANCH   4   5
ENDBRANCH   3   4
ENDBRANCH   1   3
BRANCH   1  15
ATOM     15  C   UNL     1       2.468   6.825  19.587  0.00  0.00    +0.000 C 
BRANCH  15  16
ATOM     16  C   UNL     1       1.609   7.999  19.975  0.00  0.00    +0.000 A 
ATOM     17  N   UNL     1       1.017   8.002  21.127  0.00  0.00    +0.000 NA
ATOM     18  C   UNL     1       0.330   9.163  21.511  0.00  0.00    +0.000 A 
ATOM     19  C   UNL     1      -0.266   9.202  22.769  0.00  0.00    +0.000 A 
ATOM     20  C   UNL     1      -0.904  10.363  23.217  0.00  0.00    +0.000 A 
ATOM     21  C   UNL     1      -0.939  11.500  22.407  0.00  0.00    +0.000 A 
ATOM     22  C   UNL     1      -0.349  11.473  21.142  0.00  0.00    +0.000 A 
ATOM     23  C   UNL     1       0.270  10.302  20.703  0.00  0.00    +0.000 A 
ATOM     24  C   UNL     1       0.914  10.224  19.379  0.00  0.00    +0.000 A 
ATOM     25  O   UNL     1       0.909  11.166  18.591  0.00  0.00    +0.000 OA
ATOM     26  N   UNL     1       1.540   9.038  19.092  0.00  0.00    +0.000 N 
ATOM     27  H   UNL     1       2.022   9.000  18.202  0.00  0.00    +0.000 HD
ENDBRANCH  15  16
ENDBRANCH   1  15
TORSDOF 5
ENDMDL
MODEL 4
REMARK VINA RESULT:      -8.0      3.732      6.154
REMARK  Name = 
REMARK  6 active torsions:
REMARK  status: ('A' for Active; 'I' for Inactive)
REMARK    1  A    between atoms: C_1  and  N_2
REMARK    2  A    between atoms: N_2  and  C_3
REMARK    3  A    between atoms: N_2  and  C_16
REMARK    4  A    between atoms: C_3  and  C_4
REMARK    5  A    between atoms: C_4  and  C_5
REMARK    6  A    between atoms: C_16  and  C_17
REMARK                            x       y       z     vdW  Elec       q    Type
REMARK                         _______ _______ _______ _____ _____    ______ ____
ROOT
ATOM      1  C   UNL     1       2.014   3.962  19.489  0.00  0.00    +0.000 C 
ENDROOT
BRANCH   1   3
ATOM      2  C   UNL     1       3.338   2.613  20.981  0.00  0.00    +0.000 C 
ATOM      3  N   UNL     1       2.690   2.653  19.660  0.00  0.00    +0.000 NA
BRANCH   3   4
ATOM      4  C   UNL     1       3.681   2.412  18.584  0.00  0.00    +0.000 C 
BRANCH   4   5
ATOM      5  C   UNL     1       4.425   3.653  18.138  0.00  0.00    +0.000 A 
ATOM      6  C   UNL     1       3.921   4.436  17.093  0.00  0.00    +0.000 A 
ATOM      7  C   UNL     1       4.539   5.639  16.755  0.00  0.00    +0.000 A 
ATOM      8  C   UNL     1       5.707   6.055  17.410  0.00  0.00    +0.000 A 
ATOM      9  C   UNL     1       6.319   7.280  17.098  0.00  0.00    +0.000 A 
ATOM     10  C   UNL     1       7.511   7.658  17.714  0.00  0.00    +0.000 A 
ATOM     11  C   UNL     1       8.107   6.817  18.650  0.00  0.00    +0.000 A 
ATOM     12  C   UNL     1       7.491   5.614  18.998  0.00  0.00    +0.000 A 
ATOM     13  C   UNL     1       6.281   5.224  18.398  0.00  0.00    +0.000 A 
ATOM     14  C   UNL     1       5.622   4.038  18.762  0.00  0.00    +0.000 A 
ENDBRANCH   4   5
ENDBRANCH   3   4
ENDBRANCH   1   3
BRANCH   1  15
ATOM     15  C   UNL     1       1.988   4.781  20.780  0.00  0.00    +0.000 C 
BRANCH  15  16
ATOM     16  C   UNL     1       1.841   6.259  20.537  0.00  0.00    +0.000 A 
ATOM     17  N   UNL     1       2.247   6.763  19.414  0.00  0.00    +0.000 NA
ATOM     18  C   UNL     1       1.979   8.118  19.166  0.00  0.00    +0.000 A 
ATOM     19  C   UNL     1       2.361   8.662  17.942  0.00  0.00    +0.000 A 
ATOM     20  C   UNL     1       2.054   9.990  17.629  0.00  0.00    +0.000 A 
ATOM     21  C   UNL     1       1.352  10.781  18.541  0.00  0.00    +0.000 A 
ATOM     22  C   UNL     1       0.967  10.249  19.772  0.00  0.00    +0.000 A 
ATOM     23  C   UNL     1       1.294   8.927  20.077  0.00  0.00    +0.000 A 
ATOM     24  C   UNL     1       0.904   8.315  21.362  0.00  0.00    +0.000 A 
ATOM     25  O   UNL     1       0.308   8.945  22.232  0.00  0.00    +0.000 OA
ATOM     26  N   UNL     1       1.231   6.993  21.513  0.00  0.00    +0.000 N 
ATOM     27  H   UNL     1       0.923   6.561  22.375  0.00  0.00    +0.000 HD
ENDBRANCH  15  16
ENDBRANCH   1  15
TORSDOF 5
ENDMDL
MODEL 5
REMARK VINA RESULT:      -8.0      3.354      5.389
REMARK  Name = 
REMARK  6 active torsions:
REMARK  status: ('A' for Active; 'I' for Inactive)
REMARK    1  A    between atoms: C_1  and  N_2
REMARK    2  A    between atoms: N_2  and  C_3
REMARK    3  A    between atoms: N_2  and  C_16
REMARK    4  A    between atoms: C_3  and  C_4
REMARK    5  A    between atoms: C_4  and  C_5
REMARK    6  A    between atoms: C_16  and  C_17
REMARK                            x       y       z     vdW  Elec       q    Type
REMARK                         _______ _______ _______ _____ _____    ______ ____
ROOT
ATOM      1  C   UNL     1       1.806   4.540  19.610  0.00  0.00    +0.000 C 
ENDROOT
BRANCH   1   3
ATOM      2  C   UNL     1       2.240   3.218  21.575  0.00  0.00    +0.000 C 
ATOM      3  N   UNL     1       1.978   3.161  20.127  0.00  0.00    +0.000 NA
BRANCH   3   4
ATOM      4  C   UNL     1       3.074   2.453  19.424  0.00  0.00    +0.000 C 
BRANCH   4   5
ATOM      5  C   UNL     1       4.012   3.364  18.663  0.00  0.00    +0.000 A 
ATOM      6  C   UNL     1       3.833   3.566  17.289  0.00  0.00    +0.000 A 
ATOM      7  C   UNL     1       4.620   4.492  16.606  0.00  0.00    +0.000 A 
ATOM      8  C   UNL     1       5.643   5.189  17.264  0.00  0.00    +0.000 A 
ATOM      9  C   UNL     1       6.421   6.146  16.592  0.00  0.00    +0.000 A 
ATOM     10  C   UNL     1       7.473   6.792  17.240  0.00  0.00    +0.000 A 
ATOM     11  C   UNL     1       7.760   6.490  18.570  0.00  0.00    +0.000 A 
ATOM     12  C   UNL     1       6.972   5.569  19.262  0.00  0.00    +0.000 A 
ATOM     13  C   UNL     1       5.899   4.921  18.628  0.00  0.00    +0.000 A 
ATOM     14  C   UNL     1       5.067   4.021  19.316  0.00  0.00    +0.000 A 
ENDBRANCH   4   5
ENDBRANCH   3   4
ENDBRANCH   1   3
BRANCH   1  15
ATOM     15  C   UNL     1       1.980   5.600  20.697  0.00  0.00    +0.000 C 
BRANCH  15  16
ATOM     16  C   UNL     1       1.668   6.992  20.218  0.00  0.00    +0.000 A 
ATOM     17  N   UNL     1       1.108   7.834  21.029  0.00  0.00    +0.000 NA
ATOM     18  C   UNL     1       0.947   9.158  20.595  0.00  0.00    +0.000 A 
ATOM     19  C   UNL     1       0.397  10.088  21.475  0.00  0.00    +0.000 A 
ATOM     20  C   UNL     1       0.280  11.432  21.106  0.00  0.00    +0.000 A 
ATOM     21  C   UNL     1       0.725  11.855  19.851  0.00  0.00    +0.000 A 
ATOM     22  C   UNL     1       1.276  10.933  18.959  0.00  0.00    +0.000 A 
ATOM     23  C   UNL     1       1.371   9.593  19.336  0.00  0.00    +0.000 A 
ATOM     24  C   UNL     1       1.950   8.580  18.433  0.00  0.00    +0.000 A 
ATOM     25  O   UNL     1       2.343   8.859  17.303  0.00  0.00    +0.000 OA
ATOM     26  N   UNL     1       2.043   7.312  18.945  0.00  0.00    +0.000 N 
ATOM     27  H   UNL     1       2.483   6.627  18.343  0.00  0.00    +0.000 HD
ENDBRANCH  15  16
ENDBRANCH   1  15
TORSDOF 5
ENDMDL
MODEL 6
REMARK VINA RESULT:      -8.0      3.515      9.028
REMARK  Name = 
REMARK  6 active torsions:
REMARK  status: ('A' for Active; 'I' for Inactive)
REMARK    1  A    between atoms: C_1  and  N_2
REMARK    2  A    between atoms: N_2  and  C_3
REMARK    3  A    between atoms: N_2  and  C_16
REMARK    4  A    between atoms: C_3  and  C_4
REMARK    5  A    between atoms: C_4  and  C_5
REMARK    6  A    between atoms: C_16  and  C_17
REMARK                            x       y       z     vdW  Elec       q    Type
REMARK                         _______ _______ _______ _____ _____    ______ ____
ROOT
ATOM      1  C   UNL     1       2.179   7.420  19.881  0.00  0.00    +0.000 C 
ENDROOT
BRANCH   1   3
ATOM      2  C   UNL     1       2.749   8.491  17.801  0.00  0.00    +0.000 C 
ATOM      3  N   UNL     1       1.700   8.342  18.822  0.00  0.00    +0.000 NA
BRANCH   3   4
ATOM      4  C   UNL     1       1.324   9.662  19.384  0.00  0.00    +0.000 C 
BRANCH   4   5
ATOM      5  C   UNL     1      -0.066  10.123  19.006  0.00  0.00    +0.000 A 
ATOM      6  C   UNL     1      -0.807  10.919  19.888  0.00  0.00    +0.000 A 
ATOM      7  C   UNL     1      -2.039  11.441  19.498  0.00  0.00    +0.000 A 
ATOM      8  C   UNL     1      -2.587  11.131  18.245  0.00  0.00    +0.000 A 
ATOM      9  C   UNL     1      -3.813  11.676  17.832  0.00  0.00    +0.000 A 
ATOM     10  C   UNL     1      -4.377  11.317  16.609  0.00  0.00    +0.000 A 
ATOM     11  C   UNL     1      -3.722  10.406  15.783  0.00  0.00    +0.000 A 
ATOM     12  C   UNL     1      -2.484   9.884  16.163  0.00  0.00    +0.000 A 
ATOM     13  C   UNL     1      -1.895  10.248  17.386  0.00  0.00    +0.000 A 
ATOM     14  C   UNL     1      -0.633   9.767  17.771  0.00  0.00    +0.000 A 
ENDBRANCH   4   5
ENDBRANCH   3   4
ENDBRANCH   1   3
BRANCH   1  15
ATOM     15  C   UNL     1       2.128   5.955  19.450  0.00  0.00    +0.000 C 
BRANCH  15  16
ATOM     16  C   UNL     1       3.425   5.467  18.864  0.00  0.00    +0.000 A 
ATOM     17  N   UNL     1       3.451   5.043  17.640  0.00  0.00    +0.000 NA
ATOM     18  C   UNL     1       4.697   4.717  17.083  0.00  0.00    +0.000 A 
ATOM     19  C   UNL     1       4.749   4.311  15.751  0.00  0.00    +0.000 A 
ATOM     20  C   UNL     1       5.976   4.040  15.139  0.00  0.00    +0.000 A 
ATOM     21  C   UNL     1       7.165   4.185  15.857  0.00  0.00    +0.000 A 
ATOM     22  C   UNL     1       7.127   4.587  17.193  0.00  0.00    +0.000 A 
ATOM     23  C   UNL     1       5.893   4.839  17.795  0.00  0.00    +0.000 A 
ATOM     24  C   UNL     1       5.799   5.272  19.202  0.00  0.00    +0.000 A 
ATOM     25  O   UNL     1       6.790   5.401  19.915  0.00  0.00    +0.000 OA
ATOM     26  N   UNL     1       4.534   5.546  19.655  0.00  0.00    +0.000 N 
ATOM     27  H   UNL     1       4.474   5.888  20.606  0.00  0.00    +0.000 HD
ENDBRANCH  15  16
ENDBRANCH   1  15
TORSDOF 5
ENDMDL
MODEL 7
REMARK VINA RESULT:      -7.9      7.176      9.842
REMARK  Name = 
REMARK  6 active torsions:
REMARK  status: ('A' for Active; 'I' for Inactive)
REMARK    1  A    between atoms: C_1  and  N_2
REMARK    2  A    between atoms: N_2  and  C_3
REMARK    3  A    between atoms: N_2  and  C_16
REMARK    4  A    between atoms: C_3  and  C_4
REMARK    5  A    between atoms: C_4  and  C_5
REMARK    6  A    between atoms: C_16  and  C_17
REMARK                            x       y       z     vdW  Elec       q    Type
REMARK                         _______ _______ _______ _____ _____    ______ ____
ROOT
ATOM      1  C   UNL     1       8.284   7.500  18.379  0.00  0.00    +0.000 C 
ENDROOT
BRANCH   1   3
ATOM      2  C   UNL     1       6.144   7.304  17.293  0.00  0.00    +0.000 C 
ATOM      3  N   UNL     1       7.242   6.550  17.919  0.00  0.00    +0.000 NA
BRANCH   3   4
ATOM      4  C   UNL     1       6.736   5.718  19.037  0.00  0.00    +0.000 C 
BRANCH   4   5
ATOM      5  C   UNL     1       5.454   4.976  18.726  0.00  0.00    +0.000 A 
ATOM      6  C   UNL     1       5.355   4.205  17.562  0.00  0.00    +0.000 A 
ATOM      7  C   UNL     1       4.221   3.428  17.328  0.00  0.00    +0.000 A 
ATOM      8  C   UNL     1       3.137   3.452  18.218  0.00  0.00    +0.000 A 
ATOM      9  C   UNL     1       2.004   2.650  18.007  0.00  0.00    +0.000 A 
ATOM     10  C   UNL     1       0.909   2.724  18.867  0.00  0.00    +0.000 A 
ATOM     11  C   UNL     1       0.933   3.600  19.949  0.00  0.00    +0.000 A 
ATOM     12  C   UNL     1       2.067   4.376  20.193  0.00  0.00    +0.000 A 
ATOM     13  C   UNL     1       3.186   4.303  19.345  0.00  0.00    +0.000 A 
ATOM     14  C   UNL     1       4.353   5.044  19.594  0.00  0.00    +0.000 A 
ENDBRANCH   4   5
ENDBRANCH   3   4
ENDBRANCH   1   3
BRANCH   1  15
ATOM     15  C   UNL     1       8.048   8.921  17.868  0.00  0.00    +0.000 C 
BRANCH  15  16
ATOM     16  C   UNL     1       8.960   9.935  18.505  0.00  0.00    +0.000 A 
ATOM     17  N   UNL     1       9.772  10.617  17.761  0.00  0.00    +0.000 NA
ATOM     18  C   UNL     1      10.514  11.642  18.365  0.00  0.00    +0.000 A 
ATOM     19  C   UNL     1      11.352  12.421  17.570  0.00  0.00    +0.000 A 
ATOM     20  C   UNL     1      12.059  13.494  18.120  0.00  0.00    +0.000 A 
ATOM     21  C   UNL     1      11.922  13.801  19.476  0.00  0.00    +0.000 A 
ATOM     22  C   UNL     1      11.089  13.028  20.285  0.00  0.00    +0.000 A 
ATOM     23  C   UNL     1      10.402  11.950  19.725  0.00  0.00    +0.000 A 
ATOM     24  C   UNL     1       9.505  11.105  20.535  0.00  0.00    +0.000 A 
ATOM     25  O   UNL     1       9.346  11.286  21.739  0.00  0.00    +0.000 OA
ATOM     26  N   UNL     1       8.843  10.117  19.852  0.00  0.00    +0.000 N 
ATOM     27  H   UNL     1       8.192   9.567  20.399  0.00  0.00    +0.000 HD
ENDBRANCH  15  16
ENDBRANCH   1  15
TORSDOF 5
ENDMDL
MODEL 8
REMARK VINA RESULT:      -7.9      6.640      8.956
REMARK  Name = 
REMARK  6 active torsions:
REMARK  status: ('A' for Active; 'I' for Inactive)
REMARK    1  A    between atoms: C_1  and  N_2
REMARK    2  A    between atoms: N_2  and  C_3
REMARK    3  A    between atoms: N_2  and  C_16
REMARK    4  A    between atoms: C_3  and  C_4
REMARK    5  A    between atoms: C_4  and  C_5
REMARK    6  A    between atoms: C_16  and  C_17
REMARK                            x       y       z     vdW  Elec       q    Type
REMARK                         _______ _______ _______ _____ _____    ______ ____
ROOT
ATOM      1  C   UNL     1       7.502   7.930  17.463  0.00  0.00    +0.000 C 
ENDROOT
BRANCH   1   3
ATOM      2  C   UNL     1       7.494   5.567  17.925  0.00  0.00    +0.000 C 
ATOM      3  N   UNL     1       6.652   6.770  17.826  0.00  0.00    +0.000 NA
BRANCH   3   4
ATOM      4  C   UNL     1       5.564   6.567  16.839  0.00  0.00    +0.000 C 
BRANCH   4   5
ATOM      5  C   UNL     1       4.489   5.602  17.292  0.00  0.00    +0.000 A 
ATOM      6  C   UNL     1       4.257   4.423  16.575  0.00  0.00    +0.000 A 
ATOM      7  C   UNL     1       3.349   3.478  17.051  0.00  0.00    +0.000 A 
ATOM      8  C   UNL     1       2.609   3.716  18.218  0.00  0.00    +0.000 A 
ATOM      9  C   UNL     1       1.716   2.758  18.722  0.00  0.00    +0.000 A 
ATOM     10  C   UNL     1       0.943   3.028  19.850  0.00  0.00    +0.000 A 
ATOM     11  C   UNL     1       1.054   4.260  20.490  0.00  0.00    +0.000 A 
ATOM     12  C   UNL     1       1.965   5.209  20.023  0.00  0.00    +0.000 A 
ATOM     13  C   UNL     1       2.762   4.947  18.896  0.00  0.00    +0.000 A 
ATOM     14  C   UNL     1       3.714   5.870  18.432  0.00  0.00    +0.000 A 
ENDBRANCH   4   5
ENDBRANCH   3   4
ENDBRANCH   1   3
BRANCH   1  15
ATOM     15  C   UNL     1       8.547   8.249  18.532  0.00  0.00    +0.000 C 
BRANCH  15  16
ATOM     16  C   UNL     1       8.822   9.722  18.667  0.00  0.00    +0.000 A 
ATOM     17  N   UNL     1       8.270  10.551  17.838  0.00  0.00    +0.000 NA
ATOM     18  C   UNL     1       8.442  11.924  18.068  0.00  0.00    +0.000 A 
ATOM     19  C   UNL     1       7.811  12.829  17.217  0.00  0.00    +0.000 A 
ATOM     20  C   UNL     1       7.903  14.205  17.450  0.00  0.00    +0.000 A 
ATOM     21  C   UNL     1       8.623  14.683  18.547  0.00  0.00    +0.000 A 
ATOM     22  C   UNL     1       9.262  13.788  19.405  0.00  0.00    +0.000 A 
ATOM     23  C   UNL     1       9.175  12.418  19.151  0.00  0.00    +0.000 A 
ATOM     24  C   UNL     1       9.827  11.430  20.030  0.00  0.00    +0.000 A 
ATOM     25  O   UNL     1      10.501  11.763  21.001  0.00  0.00    +0.000 OA
ATOM     26  N   UNL     1       9.614  10.115  19.706  0.00  0.00    +0.000 N 
ATOM     27  H   UNL     1      10.023   9.436  20.337  0.00  0.00    +0.000 HD
ENDBRANCH  15  16
ENDBRANCH   1  15
TORSDOF 5
ENDMDL
MODEL 9
REMARK VINA RESULT:      -7.8      1.271      1.730
REMARK  Name = 
REMARK  6 active torsions:
REMARK  status: ('A' for Active; 'I' for Inactive)
REMARK    1  A    between atoms: C_1  and  N_2
REMARK    2  A    between atoms: N_2  and  C_3
REMARK    3  A    between atoms: N_2  and  C_16
REMARK    4  A    between atoms: C_3  and  C_4
REMARK    5  A    between atoms: C_4  and  C_5
REMARK    6  A    between atoms: C_16  and  C_17
REMARK                            x       y       z     vdW  Elec       q    Type
REMARK                         _______ _______ _______ _____ _____    ______ ____
ROOT
ATOM      1  C   UNL     1       1.375  10.097  17.999  0.00  0.00    +0.000 C 
ENDROOT
BRANCH   1   3
ATOM      2  C   UNL     1       1.599   8.619  19.887  0.00  0.00    +0.000 C 
ATOM      3  N   UNL     1       1.677   8.707  18.420  0.00  0.00    +0.000 NA
BRANCH   3   4
ATOM      4  C   UNL     1       3.011   8.274  17.939  0.00  0.00    +0.000 C 
BRANCH   4   5
ATOM      5  C   UNL     1       3.165   6.775  17.807  0.00  0.00    +0.000 A 
ATOM      6  C   UNL     1       4.332   6.235  17.253  0.00  0.00    +0.000 A 
ATOM      7  C   UNL     1       4.528   4.855  17.233  0.00  0.00    +0.000 A 
ATOM      8  C   UNL     1       3.539   3.982  17.709  0.00  0.00    +0.000 A 
ATOM      9  C   UNL     1       3.740   2.592  17.722  0.00  0.00    +0.000 A 
ATOM     10  C   UNL     1       2.729   1.730  18.143  0.00  0.00    +0.000 A 
ATOM     11  C   UNL     1       1.503   2.246  18.557  0.00  0.00    +0.000 A 
ATOM     12  C   UNL     1       1.302   3.628  18.585  0.00  0.00    +0.000 A 
ATOM     13  C   UNL     1       2.316   4.511  18.178  0.00  0.00    +0.000 A 
ATOM     14  C   UNL     1       2.150   5.905  18.236  0.00  0.00    +0.000 A 
ENDBRANCH   4   5
ENDBRANCH   3   4
ENDBRANCH   1   3
BRANCH   1  15
ATOM     15  C   UNL     1       0.418  10.805  18.958  0.00  0.00    +0.000 C 
BRANCH  15  16
ATOM     16  C   UNL     1      -0.996  10.858  18.446  0.00  0.00    +0.000 A 
ATOM     17  N   UNL     1      -1.913  11.421  19.168  0.00  0.00    +0.000 NA
ATOM     18  C   UNL     1      -3.191  11.569  18.610  0.00  0.00    +0.000 A 
ATOM     19  C   UNL     1      -4.175  12.220  19.352  0.00  0.00    +0.000 A 
ATOM     20  C   UNL     1      -5.442  12.448  18.806  0.00  0.00    +0.000 A 
ATOM     21  C   UNL     1      -5.730  12.030  17.505  0.00  0.00    +0.000 A 
ATOM     22  C   UNL     1      -4.755  11.374  16.752  0.00  0.00    +0.000 A 
ATOM     23  C   UNL     1      -3.500  11.140  17.316  0.00  0.00    +0.000 A 
ATOM     24  C   UNL     1      -2.434  10.457  16.560  0.00  0.00    +0.000 A 
ATOM     25  O   UNL     1      -2.607  10.034  15.420  0.00  0.00    +0.000 OA
ATOM     26  N   UNL     1      -1.228  10.344  17.204  0.00  0.00    +0.000 N 
ATOM     27  H   UNL     1      -0.483   9.916  16.668  0.00  0.00    +0.000 HD
ENDBRANCH  15  16
ENDBRANCH   1  15
TORSDOF 5
ENDMDL
