MODEL 1
REMARK VINA RESULT:      -8.2      0.000      0.000
REMARK  Name = 
REMARK  4 active torsions:
REMARK  status: ('A' for Active; 'I' for Inactive)
REMARK    1  A    between atoms: C_2  and  C_19
REMARK    2  A    between atoms: N_3  and  C_4
REMARK    3  A    between atoms: C_7  and  S_8
REMARK    4  A    between atoms: S_8  and  N_11
REMARK                            x       y       z     vdW  Elec       q    Type
REMARK                         _______ _______ _______ _____ _____    ______ ____
ROOT
ATOM      1  C   UNL     1       1.512   8.219  19.881  0.00  0.00    +0.000 A 
ATOM      2  C   UNL     1       1.697   6.975  20.489  0.00  0.00    +0.000 A 
ATOM      3  C   UNL     1       2.488   5.988  19.881  0.00  0.00    +0.000 A 
ATOM      4  C   UNL     1       3.114   6.239  18.659  0.00  0.00    +0.000 A 
ATOM      5  C   UNL     1       2.923   7.468  18.024  0.00  0.00    +0.000 A 
ATOM      6  C   UNL     1       2.115   8.447  18.633  0.00  0.00    +0.000 A 
ENDROOT
BRANCH   1   9
ATOM      7  O   UNL     1       1.735   9.488  22.583  0.00  0.00    +0.000 OA
ATOM      8  C   UNL     1       0.903   9.798  21.739  0.00  0.00    +0.000 C 
ATOM      9  N   UNL     1       0.761   9.263  20.467  0.00  0.00    +0.000 N 
ATOM     10  H   UNL     1       0.024   9.689  19.910  0.00  0.00    +0.000 HD
BRANCH   8  11
ATOM     11  C   UNL     1      -0.112  10.842  22.084  0.00  0.00    +0.000 A 
ATOM     12  C   UNL     1      -1.050  10.604  23.075  0.00  0.00    +0.000 A 
ATOM     13  N   UNL     1      -2.063  11.468  23.331  0.00  0.00    +0.000 NA
ATOM     14  C   UNL     1      -2.131  12.561  22.547  0.00  0.00    +0.000 A 
ATOM     15  C   UNL     1      -3.204  13.437  22.680  0.00  0.00    +0.000 A 
ATOM     16  C   UNL     1      -3.347  14.541  21.839  0.00  0.00    +0.000 A 
ATOM     17  C   UNL     1      -2.381  14.797  20.874  0.00  0.00    +0.000 A 
ATOM     18  C   UNL     1      -1.284  13.943  20.752  0.00  0.00    +0.000 A 
ATOM     19  C   UNL     1      -1.151  12.815  21.549  0.00  0.00    +0.000 A 
ATOM     20  N   UNL     1      -0.123  11.971  21.324  0.00  0.00    +0.000 NA
ENDBRANCH   8  11
ENDBRANCH   1   9
BRANCH   4  21
ATOM     21  S   UNL     1       4.343   5.090  18.072  0.00  0.00    +0.000 S 
ATOM     22  O   UNL     1       4.984   4.542  19.254  0.00  0.00    +0.000 OA
ATOM     23  O   UNL     1       3.701   4.214  17.124  0.00  0.00    +0.000 OA
BRANCH  21  24
ATOM     24  N   UNL     1       5.533   5.994  17.236  0.00  0.00    +0.000 NA
ATOM     25  C   UNL     1       5.799   5.657  15.805  0.00  0.00    +0.000 C 
ATOM     26  C   UNL     1       6.607   4.359  15.659  0.00  0.00    +0.000 C 
ATOM     27  O   UNL     1       7.840   4.415  16.392  0.00  0.00    +0.000 OA
ATOM     28  C   UNL     1       7.632   4.714  17.781  0.00  0.00    +0.000 C 
ATOM     29  C   UNL     1       6.859   6.030  17.959  0.00  0.00    +0.000 C 
ENDBRANCH  21  24
ENDBRANCH   4  21
TORSDOF 4
ENDMDL
MODEL 2
REMARK VINA RESULT:      -8.2      0.865      1.520
REMARK  Name = 
REMARK  4 active torsions:
REMARK  status: ('A' for Active; 'I' for Inactive)
REMARK    1  A    between atoms: C_2  and  C_19
REMARK    2  A    between atoms: N_3  and  C_4
REMARK    3  A    between atoms: C_7  and  S_8
REMARK    4  A    between atoms: S_8  and  N_11
REMARK                            x       y       z     vdW  Elec       q    Type
REMARK                         _______ _______ _______ _____ _____    ______ ____
ROOT
ATOM      1  C   UNL     1       1.503   8.613  19.638  0.00  0.00    +0.000 A 
ATOM      2  C   UNL     1       1.657   7.421  20.350  0.00  0.00    +0.000 A 
ATOM      3  C   UNL     1       2.446   6.377  19.844  0.00  0.00    +0.000 A 
ATOM      4  C   UNL     1       3.102   6.518  18.620  0.00  0.00    +0.000 A 
ATOM      5  C   UNL     1       2.944   7.693  17.883  0.00  0.00    +0.000 A 
ATOM      6  C   UNL     1       2.137   8.729  18.390  0.00  0.00    +0.000 A 
ENDROOT
BRANCH   1   9
ATOM      7  O   UNL     1       1.551   9.975  22.303  0.00  0.00    +0.000 OA
ATOM      8  C   UNL     1       0.812  10.289  21.378  0.00  0.00    +0.000 C 
ATOM      9  N   UNL     1       0.756   9.712  20.118  0.00  0.00    +0.000 N 
ATOM     10  H   UNL     1       0.091  10.148  19.484  0.00  0.00    +0.000 HD
BRANCH   8  11
ATOM     11  C   UNL     1      -0.178  11.390  21.596  0.00  0.00    +0.000 A 
ATOM     12  C   UNL     1       0.039  12.643  21.046  0.00  0.00    +0.000 A 
ATOM     13  N   UNL     1      -0.764  13.700  21.322  0.00  0.00    +0.000 NA
ATOM     14  C   UNL     1      -1.769  13.479  22.191  0.00  0.00    +0.000 A 
ATOM     15  C   UNL     1      -2.567  14.541  22.605  0.00  0.00    +0.000 A 
ATOM     16  C   UNL     1      -3.571  14.364  23.556  0.00  0.00    +0.000 A 
ATOM     17  C   UNL     1      -3.810  13.098  24.074  0.00  0.00    +0.000 A 
ATOM     18  C   UNL     1      -3.037  12.019  23.644  0.00  0.00    +0.000 A 
ATOM     19  C   UNL     1      -2.004  12.185  22.733  0.00  0.00    +0.000 A 
ATOM     20  N   UNL     1      -1.225  11.128  22.424  0.00  0.00    +0.000 NA
ENDBRANCH   8  11
ENDBRANCH   1   9
BRANCH   4  21
ATOM     21  S   UNL     1       4.327   5.308  18.159  0.00  0.00    +0.000 S 
ATOM     22  O   UNL     1       4.960   4.880  19.394  0.00  0.00    +0.000 OA
ATOM     23  O   UNL     1       3.684   4.345  17.302  0.00  0.00    +0.000 OA
BRANCH  21  24
ATOM     24  N   UNL     1       5.526   6.116  17.242  0.00  0.00    +0.000 NA
ATOM     25  C   UNL     1       5.758   5.670  15.835  0.00  0.00    +0.000 C 
ATOM     26  C   UNL     1       6.527   4.343  15.770  0.00  0.00    +0.000 C 
ATOM     27  O   UNL     1       7.774   4.416  16.478  0.00  0.00    +0.000 OA
ATOM     28  C   UNL     1       7.598   4.820  17.844  0.00  0.00    +0.000 C 
ATOM     29  C   UNL     1       6.865   6.166  17.940  0.00  0.00    +0.000 C 
ENDBRANCH  21  24
ENDBRANCH   4  21
TORSDOF 4
ENDMDL
MODEL 3
REMARK VINA RESULT:      -8.1      6.599      8.913
REMARK  Name = 
REMARK  4 active torsions:
REMARK  status: ('A' for Active; 'I' for Inactive)
REMARK    1  A    between atoms: C_2  and  C_19
REMARK    2  A    between atoms: N_3  and  C_4
REMARK    3  A    between atoms: C_7  and  S_8
REMARK    4  A    between atoms: S_8  and  N_11
REMARK                            x       y       z     vdW  Elec       q    Type
REMARK                         _______ _______ _______ _____ _____    ______ ____
ROOT
ATOM      1  C   UNL     1       7.772   8.341  17.845  0.00  0.00    +0.000 A 
ATOM      2  C   UNL     1       8.257   7.247  18.566  0.00  0.00    +0.000 A 
ATOM      3  C   UNL     1       7.503   6.070  18.681  0.00  0.00    +0.000 A 
ATOM      4  C   UNL     1       6.254   5.969  18.066  0.00  0.00    +0.000 A 
ATOM      5  C   UNL     1       5.741   7.059  17.360  0.00  0.00    +0.000 A 
ATOM      6  C   UNL     1       6.497   8.242  17.263  0.00  0.00    +0.000 A 
ENDROOT
BRANCH   1   9
ATOM      7  O   UNL     1       9.106  10.124  19.845  0.00  0.00    +0.000 OA
ATOM      8  C   UNL     1       9.087  10.330  18.638  0.00  0.00    +0.000 C 
ATOM      9  N   UNL     1       8.505   9.535  17.661  0.00  0.00    +0.000 N 
ATOM     10  H   UNL     1       8.635   9.871  16.710  0.00  0.00    +0.000 HD
BRANCH   8  11
ATOM     11  C   UNL     1       9.723  11.580  18.115  0.00  0.00    +0.000 A 
ATOM     12  C   UNL     1      11.053  11.578  17.727  0.00  0.00    +0.000 A 
ATOM     13  N   UNL     1      11.701  12.713  17.369  0.00  0.00    +0.000 NA
ATOM     14  C   UNL     1      10.993  13.857  17.444  0.00  0.00    +0.000 A 
ATOM     15  C   UNL     1      11.622  15.072  17.196  0.00  0.00    +0.000 A 
ATOM     16  C   UNL     1      10.941  16.282  17.331  0.00  0.00    +0.000 A 
ATOM     17  C   UNL     1       9.596  16.276  17.682  0.00  0.00    +0.000 A 
ATOM     18  C   UNL     1       8.946  15.061  17.902  0.00  0.00    +0.000 A 
ATOM     19  C   UNL     1       9.621  13.851  17.817  0.00  0.00    +0.000 A 
ATOM     20  N   UNL     1       8.970  12.713  18.134  0.00  0.00    +0.000 NA
ENDBRANCH   8  11
ENDBRANCH   1   9
BRANCH   4  21
ATOM     21  S   UNL     1       5.468   4.371  17.976  0.00  0.00    +0.000 S 
ATOM     22  O   UNL     1       5.807   3.824  16.675  0.00  0.00    +0.000 OA
ATOM     23  O   UNL     1       5.810   3.651  19.177  0.00  0.00    +0.000 OA
BRANCH  21  24
ATOM     24  N   UNL     1       3.775   4.632  17.979  0.00  0.00    +0.000 NA
ATOM     25  C   UNL     1       3.088   4.790  19.296  0.00  0.00    +0.000 C 
ATOM     26  C   UNL     1       2.937   3.451  20.031  0.00  0.00    +0.000 C 
ATOM     27  O   UNL     1       2.251   2.478  19.229  0.00  0.00    +0.000 OA
ATOM     28  C   UNL     1       2.890   2.275  17.960  0.00  0.00    +0.000 C 
ATOM     29  C   UNL     1       3.020   3.594  17.182  0.00  0.00    +0.000 C 
ENDBRANCH  21  24
ENDBRANCH   4  21
TORSDOF 4
ENDMDL
MODEL 4
REMARK VINA RESULT:      -8.1      1.439      1.796
REMARK  Name = 
REMARK  4 active torsions:
REMARK  status: ('A' for Active; 'I' for Inactive)
REMARK    1  A    between atoms: C_2  and  C_19
REMARK    2  A    between atoms: N_3  and  C_4
REMARK    3  A    between atoms: C_7  and  S_8
REMARK    4  A    between atoms: S_8  and  N_11
REMARK                            x       y       z     vdW  Elec       q    Type
REMARK                         _______ _______ _______ _____ _____    ______ ____
ROOT
ATOM      1  C   UNL     1       1.680   8.456  19.808  0.00  0.00    +0.000 A 
ATOM      2  C   UNL     1       1.834   7.211  20.422  0.00  0.00    +0.000 A 
ATOM      3  C   UNL     1       2.508   6.167  19.773  0.00  0.00    +0.000 A 
ATOM      4  C   UNL     1       3.049   6.359  18.501  0.00  0.00    +0.000 A 
ATOM      5  C   UNL     1       2.887   7.589  17.860  0.00  0.00    +0.000 A 
ATOM      6  C   UNL     1       2.194   8.627  18.511  0.00  0.00    +0.000 A 
ENDROOT
BRANCH   1   9
ATOM      7  O   UNL     1      -0.680  10.081  18.941  0.00  0.00    +0.000 OA
ATOM      8  C   UNL     1      -0.040  10.281  19.965  0.00  0.00    +0.000 C 
ATOM      9  N   UNL     1       1.047   9.555  20.430  0.00  0.00    +0.000 N 
ATOM     10  H   UNL     1       1.413   9.870  21.326  0.00  0.00    +0.000 HD
BRANCH   8  11
ATOM     11  C   UNL     1      -0.416  11.446  20.827  0.00  0.00    +0.000 A 
ATOM     12  C   UNL     1       0.509  12.439  21.102  0.00  0.00    +0.000 A 
ATOM     13  N   UNL     1       0.252  13.442  21.978  0.00  0.00    +0.000 NA
ATOM     14  C   UNL     1      -0.944  13.405  22.597  0.00  0.00    +0.000 A 
ATOM     15  C   UNL     1      -1.235  14.339  23.586  0.00  0.00    +0.000 A 
ATOM     16  C   UNL     1      -2.434  14.290  24.297  0.00  0.00    +0.000 A 
ATOM     17  C   UNL     1      -3.376  13.316  23.989  0.00  0.00    +0.000 A 
ATOM     18  C   UNL     1      -3.108  12.394  22.977  0.00  0.00    +0.000 A 
ATOM     19  C   UNL     1      -1.901  12.399  22.291  0.00  0.00    +0.000 A 
ATOM     20  N   UNL     1      -1.654  11.426  21.390  0.00  0.00    +0.000 NA
ENDBRANCH   8  11
ENDBRANCH   1   9
BRANCH   4  21
ATOM     21  S   UNL     1       4.151   5.124  17.841  0.00  0.00    +0.000 S 
ATOM     22  O   UNL     1       4.886   4.589  18.973  0.00  0.00    +0.000 OA
ATOM     23  O   UNL     1       3.371   4.248  17.004  0.00  0.00    +0.000 OA
BRANCH  21  24
ATOM     24  N   UNL     1       5.290   5.930  16.847  0.00  0.00    +0.000 NA
ATOM     25  C   UNL     1       5.597   5.344  15.508  0.00  0.00    +0.000 C 
ATOM     26  C   UNL     1       6.491   4.101  15.615  0.00  0.00    +0.000 C 
ATOM     27  O   UNL     1       7.709   4.380  16.323  0.00  0.00    +0.000 OA
ATOM     28  C   UNL     1       7.462   4.925  17.629  0.00  0.00    +0.000 C 
ATOM     29  C   UNL     1       6.600   6.195  17.551  0.00  0.00    +0.000 C 
ENDBRANCH  21  24
ENDBRANCH   4  21
TORSDOF 4
ENDMDL
MODEL 5
REMARK VINA RESULT:      -8.1      1.005      1.377
REMARK  Name = 
REMARK  4 active torsions:
REMARK  status: ('A' for Active; 'I' for Inactive)
REMARK    1  A    between atoms: C_2  and  C_19
REMARK    2  A    between atoms: N_3  and  C_4
REMARK    3  A    between atoms: C_7  and  S_8
REMARK    4  A    between atoms: S_8  and  N_11
REMARK                            x       y       z     vdW  Elec       q    Type
REMARK                         _______ _______ _______ _____ _____    ______ ____
ROOT
ATOM      1  C   UNL     1       1.389   8.583  19.671  0.00  0.00    +0.000 A 
ATOM      2  C   UNL     1       1.985   8.751  18.418  0.00  0.00    +0.000 A 
ATOM      3  C   UNL     1       2.863   7.785  17.904  0.00  0.00    +0.000 A 
ATOM      4  C   UNL     1       3.149   6.631  18.634  0.00  0.00    +0.000 A 
ATOM      5  C   UNL     1       2.581   6.454  19.898  0.00  0.00    +0.000 A 
ATOM      6  C   UNL     1       1.713   7.435  20.414  0.00  0.00    +0.000 A 
ENDROOT
BRANCH   1   9
ATOM      7  O   UNL     1       1.456  10.088  22.257  0.00  0.00    +0.000 OA
ATOM      8  C   UNL     1       0.546  10.156  21.439  0.00  0.00    +0.000 C 
ATOM      9  N   UNL     1       0.466   9.501  20.219  0.00  0.00    +0.000 N 
ATOM     10  H   UNL     1      -0.363   9.725  19.674  0.00  0.00    +0.000 HD
BRANCH   8  11
ATOM     11  C   UNL     1      -0.645  11.002  21.763  0.00  0.00    +0.000 A 
ATOM     12  C   UNL     1      -1.106  11.090  23.066  0.00  0.00    +0.000 A 
ATOM     13  N   UNL     1      -2.253  11.741  23.383  0.00  0.00    +0.000 NA
ATOM     14  C   UNL     1      -2.944  12.272  22.356  0.00  0.00    +0.000 A 
ATOM     15  C   UNL     1      -4.182  12.860  22.592  0.00  0.00    +0.000 A 
ATOM     16  C   UNL     1      -4.958  13.358  21.545  0.00  0.00    +0.000 A 
ATOM     17  C   UNL     1      -4.473  13.304  20.245  0.00  0.00    +0.000 A 
ATOM     18  C   UNL     1      -3.218  12.745  20.000  0.00  0.00    +0.000 A 
ATOM     19  C   UNL     1      -2.453  12.203  21.023  0.00  0.00    +0.000 A 
ATOM     20  N   UNL     1      -1.291  11.588  20.719  0.00  0.00    +0.000 NA
ENDBRANCH   8  11
ENDBRANCH   1   9
BRANCH   4  21
ATOM     21  S   UNL     1       4.017   5.299  17.829  0.00  0.00    +0.000 S 
ATOM     22  O   UNL     1       4.875   4.704  18.838  0.00  0.00    +0.000 OA
ATOM     23  O   UNL     1       3.037   4.493  17.145  0.00  0.00    +0.000 OA
BRANCH  21  24
ATOM     24  N   UNL     1       5.045   5.995  16.650  0.00  0.00    +0.000 NA
ATOM     25  C   UNL     1       5.398   5.178  15.450  0.00  0.00    +0.000 C 
ATOM     26  C   UNL     1       6.426   4.086  15.779  0.00  0.00    +0.000 C 
ATOM     27  O   UNL     1       7.614   4.635  16.371  0.00  0.00    +0.000 OA
ATOM     28  C   UNL     1       7.325   5.411  17.543  0.00  0.00    +0.000 C 
ATOM     29  C   UNL     1       6.327   6.538  17.236  0.00  0.00    +0.000 C 
ENDBRANCH  21  24
ENDBRANCH   4  21
TORSDOF 4
ENDMDL
MODEL 6
REMARK VINA RESULT:      -8.0      1.235      2.066
REMARK  Name = 
REMARK  4 active torsions:
REMARK  status: ('A' for Active; 'I' for Inactive)
REMARK    1  A    between atoms: C_2  and  C_19
REMARK    2  A    between atoms: N_3  and  C_4
REMARK    3  A    between atoms: C_7  and  S_8
REMARK    4  A    between atoms: S_8  and  N_11
REMARK                            x       y       z     vdW  Elec       q    Type
REMARK                         _______ _______ _______ _____ _____    ______ ____
ROOT
ATOM      1  C   UNL     1       1.158   9.045  19.434  0.00  0.00    +0.000 A 
ATOM      2  C   UNL     1       1.797   9.108  18.192  0.00  0.00    +0.000 A 
ATOM      3  C   UNL     1       2.743   8.142  17.820  0.00  0.00    +0.000 A 
ATOM      4  C   UNL     1       3.057   7.091  18.683  0.00  0.00    +0.000 A 
ATOM      5  C   UNL     1       2.447   7.022  19.938  0.00  0.00    +0.000 A 
ATOM      6  C   UNL     1       1.510   8.005  20.310  0.00  0.00    +0.000 A 
ENDROOT
BRANCH   1   9
ATOM      7  O   UNL     1       1.353  11.427  21.235  0.00  0.00    +0.000 OA
ATOM      8  C   UNL     1       0.319  11.045  20.701  0.00  0.00    +0.000 C 
ATOM      9  N   UNL     1       0.168   9.965  19.844  0.00  0.00    +0.000 N 
ATOM     10  H   UNL     1      -0.775   9.842  19.482  0.00  0.00    +0.000 HD
BRANCH   8  11
ATOM     11  C   UNL     1      -0.953  11.776  21.000  0.00  0.00    +0.000 A 
ATOM     12  C   UNL     1      -1.437  12.726  20.116  0.00  0.00    +0.000 A 
ATOM     13  N   UNL     1      -2.512  13.499  20.407  0.00  0.00    +0.000 NA
ATOM     14  C   UNL     1      -3.069  13.320  21.621  0.00  0.00    +0.000 A 
ATOM     15  C   UNL     1      -4.107  14.150  22.031  0.00  0.00    +0.000 A 
ATOM     16  C   UNL     1      -4.661  14.041  23.306  0.00  0.00    +0.000 A 
ATOM     17  C   UNL     1      -4.198  13.060  24.173  0.00  0.00    +0.000 A 
ATOM     18  C   UNL     1      -3.179  12.200  23.762  0.00  0.00    +0.000 A 
ATOM     19  C   UNL     1      -2.585  12.325  22.514  0.00  0.00    +0.000 A 
ATOM     20  N   UNL     1      -1.539  11.532  22.203  0.00  0.00    +0.000 NA
ENDBRANCH   8  11
ENDBRANCH   1   9
BRANCH   4  21
ATOM     21  S   UNL     1       4.023   5.729  18.062  0.00  0.00    +0.000 S 
ATOM     22  O   UNL     1       4.871   5.298  19.160  0.00  0.00    +0.000 OA
ATOM     23  O   UNL     1       3.115   4.799  17.440  0.00  0.00    +0.000 OA
BRANCH  21  24
ATOM     24  N   UNL     1       5.061   6.348  16.848  0.00  0.00    +0.000 NA
ATOM     25  C   UNL     1       5.342   5.492  15.656  0.00  0.00    +0.000 C 
ATOM     26  C   UNL     1       6.316   4.352  15.983  0.00  0.00    +0.000 C 
ATOM     27  O   UNL     1       7.545   4.845  16.538  0.00  0.00    +0.000 OA
ATOM     28  C   UNL     1       7.326   5.656  17.702  0.00  0.00    +0.000 C 
ATOM     29  C   UNL     1       6.383   6.830  17.396  0.00  0.00    +0.000 C 
ENDBRANCH  21  24
ENDBRANCH   4  21
TORSDOF 4
ENDMDL
MODEL 7
REMARK VINA RESULT:      -8.0      1.036      1.405
REMARK  Name = 
REMARK  4 active torsions:
REMARK  status: ('A' for Active; 'I' for Inactive)
REMARK    1  A    between atoms: C_2  and  C_19
REMARK    2  A    between atoms: N_3  and  C_4
REMARK    3  A    between atoms: C_7  and  S_8
REMARK    4  A    between atoms: S_8  and  N_11
REMARK                            x       y       z     vdW  Elec       q    Type
REMARK                         _______ _______ _______ _____ _____    ______ ____
ROOT
ATOM      1  C   UNL     1       1.461   8.699  19.449  0.00  0.00    +0.000 A 
ATOM      2  C   UNL     1       1.636   7.556  20.233  0.00  0.00    +0.000 A 
ATOM      3  C   UNL     1       2.461   6.507  19.801  0.00  0.00    +0.000 A 
ATOM      4  C   UNL     1       3.130   6.592  18.579  0.00  0.00    +0.000 A 
ATOM      5  C   UNL     1       2.950   7.715  17.770  0.00  0.00    +0.000 A 
ATOM      6  C   UNL     1       2.108   8.757  18.203  0.00  0.00    +0.000 A 
ENDROOT
BRANCH   1   9
ATOM      7  O   UNL     1       1.400  10.189  22.043  0.00  0.00    +0.000 OA
ATOM      8  C   UNL     1       0.683  10.441  21.083  0.00  0.00    +0.000 C 
ATOM      9  N   UNL     1       0.676   9.803  19.852  0.00  0.00    +0.000 N 
ATOM     10  H   UNL     1       0.022  10.193  19.178  0.00  0.00    +0.000 HD
BRANCH   8  11
ATOM     11  C   UNL     1      -0.335  11.530  21.217  0.00  0.00    +0.000 A 
ATOM     12  C   UNL     1      -1.128  11.882  20.138  0.00  0.00    +0.000 A 
ATOM     13  N   UNL     1      -1.970  12.944  20.178  0.00  0.00    +0.000 NA
ATOM     14  C   UNL     1      -1.973  13.664  21.316  0.00  0.00    +0.000 A 
ATOM     15  C   UNL     1      -2.731  14.828  21.391  0.00  0.00    +0.000 A 
ATOM     16  C   UNL     1      -2.705  15.638  22.527  0.00  0.00    +0.000 A 
ATOM     17  C   UNL     1      -1.940  15.258  23.623  0.00  0.00    +0.000 A 
ATOM     18  C   UNL     1      -1.200  14.075  23.571  0.00  0.00    +0.000 A 
ATOM     19  C   UNL     1      -1.178  13.283  22.432  0.00  0.00    +0.000 A 
ATOM     20  N   UNL     1      -0.370  12.203  22.399  0.00  0.00    +0.000 NA
ENDBRANCH   8  11
ENDBRANCH   1   9
BRANCH   4  21
ATOM     21  S   UNL     1       4.394   5.391  18.207  0.00  0.00    +0.000 S 
ATOM     22  O   UNL     1       4.993   5.025  19.478  0.00  0.00    +0.000 OA
ATOM     23  O   UNL     1       3.800   4.381  17.367  0.00  0.00    +0.000 OA
BRANCH  21  24
ATOM     24  N   UNL     1       5.607   6.188  17.299  0.00  0.00    +0.000 NA
ATOM     25  C   UNL     1       5.813   5.772  15.879  0.00  0.00    +0.000 C 
ATOM     26  C   UNL     1       6.543   4.426  15.773  0.00  0.00    +0.000 C 
ATOM     27  O   UNL     1       7.799   4.446  16.470  0.00  0.00    +0.000 OA
ATOM     28  C   UNL     1       7.647   4.819  17.848  0.00  0.00    +0.000 C 
ATOM     29  C   UNL     1       6.953   6.183  17.985  0.00  0.00    +0.000 C 
ENDBRANCH  21  24
ENDBRANCH   4  21
TORSDOF 4
ENDMDL
MODEL 8
REMARK VINA RESULT:      -8.0      6.377      8.688
REMARK  Name = 
REMARK  4 active torsions:
REMARK  status: ('A' for Active; 'I' for Inactive)
REMARK    1  A    between atoms: C_2  and  C_19
REMARK    2  A    between atoms: N_3  and  C_4
REMARK    3  A    between atoms: C_7  and  S_8
REMARK    4  A    between atoms: S_8  and  N_11
REMARK                            x       y       z     vdW  Elec       q    Type
REMARK                         _______ _______ _______ _____ _____    ______ ____
ROOT
ATOM      1  C   UNL     1       7.324   7.965  17.548  0.00  0.00    +0.000 A 
ATOM      2  C   UNL     1       6.063   7.774  16.978  0.00  0.00    +0.000 A 
ATOM      3  C   UNL     1       5.374   6.563  17.143  0.00  0.00    +0.000 A 
ATOM      4  C   UNL     1       5.936   5.528  17.892  0.00  0.00    +0.000 A 
ATOM      5  C   UNL     1       7.205   5.690  18.451  0.00  0.00    +0.000 A 
ATOM      6  C   UNL     1       7.896   6.903  18.267  0.00  0.00    +0.000 A 
ENDROOT
BRANCH   1   9
ATOM      7  O   UNL     1       8.979   9.408  19.582  0.00  0.00    +0.000 OA
ATOM      8  C   UNL     1       8.782   9.806  18.441  0.00  0.00    +0.000 C 
ATOM      9  N   UNL     1       8.044   9.177  17.449  0.00  0.00    +0.000 N 
ATOM     10  H   UNL     1       8.035   9.664  16.556  0.00  0.00    +0.000 HD
BRANCH   8  11
ATOM     11  C   UNL     1       9.356  11.128  18.036  0.00  0.00    +0.000 A 
ATOM     12  C   UNL     1      10.705  11.245  17.747  0.00  0.00    +0.000 A 
ATOM     13  N   UNL     1      11.289  12.443  17.501  0.00  0.00    +0.000 NA
ATOM     14  C   UNL     1      10.492  13.526  17.585  0.00  0.00    +0.000 A 
ATOM     15  C   UNL     1      11.042  14.797  17.451  0.00  0.00    +0.000 A 
ATOM     16  C   UNL     1      10.263  15.944  17.601  0.00  0.00    +0.000 A 
ATOM     17  C   UNL     1       8.902  15.820  17.850  0.00  0.00    +0.000 A 
ATOM     18  C   UNL     1       8.332  14.550  17.955  0.00  0.00    +0.000 A 
ATOM     19  C   UNL     1       9.102  13.400  17.855  0.00  0.00    +0.000 A 
ATOM     20  N   UNL     1       8.519  12.200  18.060  0.00  0.00    +0.000 NA
ENDBRANCH   8  11
ENDBRANCH   1   9
BRANCH   4  21
ATOM     21  S   UNL     1       4.915   4.136  18.333  0.00  0.00    +0.000 S 
ATOM     22  O   UNL     1       4.757   3.349  17.123  0.00  0.00    +0.000 OA
ATOM     23  O   UNL     1       5.480   3.540  19.517  0.00  0.00    +0.000 OA
BRANCH  21  24
ATOM     24  N   UNL     1       3.365   4.743  18.735  0.00  0.00    +0.000 NA
ATOM     25  C   UNL     1       2.955   4.734  20.171  0.00  0.00    +0.000 C 
ATOM     26  C   UNL     1       2.588   3.325  20.658  0.00  0.00    +0.000 C 
ATOM     27  O   UNL     1       1.561   2.734  19.847  0.00  0.00    +0.000 OA
ATOM     28  C   UNL     1       1.921   2.699  18.458  0.00  0.00    +0.000 C 
ATOM     29  C   UNL     1       2.257   4.103  17.932  0.00  0.00    +0.000 C 
ENDBRANCH  21  24
ENDBRANCH   4  21
TORSDOF 4
ENDMDL
MODEL 9
REMARK VINA RESULT:      -7.9      1.567      2.094
REMARK  Name = 
REMARK  4 active torsions:
REMARK  status: ('A' for Active; 'I' for Inactive)
REMARK    1  A    between atoms: C_2  and  C_19
REMARK    2  A    between atoms: N_3  and  C_4
REMARK    3  A    between atoms: C_7  and  S_8
REMARK    4  A    between atoms: S_8  and  N_11
REMARK                            x       y       z     vdW  Elec       q    Type
REMARK                         _______ _______ _______ _____ _____    ______ ____
ROOT
ATOM      1  C   UNL     1       1.592   8.821  19.374  0.00  0.00    +0.000 A 
ATOM      2  C   UNL     1       1.776   7.691  20.174  0.00  0.00    +0.000 A 
ATOM      3  C   UNL     1       2.538   6.604  19.720  0.00  0.00    +0.000 A 
ATOM      4  C   UNL     1       3.136   6.639  18.459  0.00  0.00    +0.000 A 
ATOM      5  C   UNL     1       2.946   7.749  17.635  0.00  0.00    +0.000 A 
ATOM      6  C   UNL     1       2.166   8.829  18.091  0.00  0.00    +0.000 A 
ENDROOT
BRANCH   1   9
ATOM      7  O   UNL     1      -0.854  10.104  18.220  0.00  0.00    +0.000 OA
ATOM      8  C   UNL     1      -0.252  10.518  19.203  0.00  0.00    +0.000 C 
ATOM      9  N   UNL     1       0.871   9.961  19.795  0.00  0.00    +0.000 N 
ATOM     10  H   UNL     1       1.194  10.446  20.629  0.00  0.00    +0.000 HD
BRANCH   8  11
ATOM     11  C   UNL     1      -0.728  11.781  19.851  0.00  0.00    +0.000 A 
ATOM     12  C   UNL     1      -0.868  12.940  19.106  0.00  0.00    +0.000 A 
ATOM     13  N   UNL     1      -1.172  14.132  19.676  0.00  0.00    +0.000 NA
ATOM     14  C   UNL     1      -1.298  14.140  21.017  0.00  0.00    +0.000 A 
ATOM     15  C   UNL     1      -1.503  15.344  21.682  0.00  0.00    +0.000 A 
ATOM     16  C   UNL     1      -1.568  15.402  23.074  0.00  0.00    +0.000 A 
ATOM     17  C   UNL     1      -1.467  14.231  23.814  0.00  0.00    +0.000 A 
ATOM     18  C   UNL     1      -1.294  13.012  23.157  0.00  0.00    +0.000 A 
ATOM     19  C   UNL     1      -1.180  12.943  21.776  0.00  0.00    +0.000 A 
ATOM     20  N   UNL     1      -0.916  11.752  21.199  0.00  0.00    +0.000 NA
ENDBRANCH   8  11
ENDBRANCH   1   9
BRANCH   4  21
ATOM     21  S   UNL     1       4.335   5.387  18.043  0.00  0.00    +0.000 S 
ATOM     22  O   UNL     1       4.924   4.956  19.298  0.00  0.00    +0.000 OA
ATOM     23  O   UNL     1       3.685   4.433  17.181  0.00  0.00    +0.000 OA
BRANCH  21  24
ATOM     24  N   UNL     1       5.580   6.148  17.146  0.00  0.00    +0.000 NA
ATOM     25  C   UNL     1       5.850   5.660  15.760  0.00  0.00    +0.000 C 
ATOM     26  C   UNL     1       6.594   4.317  15.757  0.00  0.00    +0.000 C 
ATOM     27  O   UNL     1       7.818   4.386  16.504  0.00  0.00    +0.000 OA
ATOM     28  C   UNL     1       7.605   4.829  17.853  0.00  0.00    +0.000 C 
ATOM     29  C   UNL     1       6.895   6.192  17.888  0.00  0.00    +0.000 C 
ENDBRANCH  21  24
ENDBRANCH   4  21
TORSDOF 4
ENDMDL
