MODEL 1
REMARK VINA RESULT:      -9.8      0.000      0.000
REMARK  Name = 
REMARK  9 active torsions:
REMARK  status: ('A' for Active; 'I' for Inactive)
REMARK    1  A    between atoms: C_1  and  C_2
REMARK    2  A    between atoms: C_4  and  N_5
REMARK    3  A    between atoms: N_5  and  S_6
REMARK    4  A    between atoms: S_6  and  C_9
REMARK    5  A    between atoms: C_12  and  N_13
REMARK    6  A    between atoms: C_14  and  C_16
REMARK    7  A    between atoms: C_16  and  C_17
REMARK    8  A    between atoms: C_17  and  N_18
REMARK    9  A    between atoms: C_32  and  C_33
REMARK                            x       y       z     vdW  Elec       q    Type
REMARK                         _______ _______ _______ _____ _____    ______ ____
ROOT
ATOM      1  C   UNL     1       2.781   4.936  18.938  0.00  0.00    +0.000 A 
ATOM      2  C   UNL     1       2.380   4.951  20.267  0.00  0.00    +0.000 A 
ATOM      3  C   UNL     1       1.953   6.145  20.855  0.00  0.00    +0.000 A 
ATOM      4  C   UNL     1       1.918   7.345  20.133  0.00  0.00    +0.000 A 
ATOM      5  C   UNL     1       2.338   7.324  18.798  0.00  0.00    +0.000 A 
ATOM      6  C   UNL     1       2.788   6.125  18.205  0.00  0.00    +0.000 A 
ENDROOT
BRANCH   4   7
ATOM      7  N   UNL     1       1.509   8.586  20.701  0.00  0.00    +0.000 N 
ATOM      8  C   UNL     1       0.345   8.792  21.416  0.00  0.00    +0.000 C 
ATOM      9  O   UNL     1      -0.537   7.949  21.576  0.00  0.00    +0.000 OA
ATOM     10  H   UNL     1       2.125   9.377  20.559  0.00  0.00    +0.000 HD
BRANCH   8  11
ATOM     11  C   UNL     1       0.160  10.185  22.016  0.00  0.00    +0.000 C 
BRANCH  11  12
ATOM     12  C   UNL     1      -1.070  10.774  21.325  0.00  0.00    +0.000 C 
BRANCH  12  13
ATOM     13  N   UNL     1      -0.938  11.616  20.146  0.00  0.00    +0.000 N 
ATOM     14  C   UNL     1      -2.128  12.289  19.909  0.00  0.00    +0.000 C 
ATOM     15  O   UNL     1      -2.712  13.077  20.629  0.00  0.00    +0.000 OA
ATOM     16  C   UNL     1      -2.690  11.735  18.684  0.00  0.00    +0.000 A 
ATOM     17  C   UNL     1      -4.013  11.654  18.292  0.00  0.00    +0.000 A 
ATOM     18  C   UNL     1      -4.306  10.809  17.218  0.00  0.00    +0.000 A 
ATOM     19  C   UNL     1      -3.282  10.094  16.560  0.00  0.00    +0.000 A 
ATOM     20  C   UNL     1      -1.955  10.178  16.994  0.00  0.00    +0.000 A 
ATOM     21  C   UNL     1      -1.698  10.988  18.081  0.00  0.00    +0.000 A 
ATOM     22  C   UNL     1      -0.541  11.010  18.974  0.00  0.00    +0.000 C 
ATOM     23  O   UNL     1       0.536  10.511  18.705  0.00  0.00    +0.000 OA
ENDBRANCH  12  13
ENDBRANCH  11  12
ENDBRANCH   8  11
ENDBRANCH   4   7
BRANCH   1  24
ATOM     24  S   UNL     1       3.454   3.428  18.268  0.00  0.00    +0.000 S 
ATOM     25  O   UNL     1       3.236   3.461  16.835  0.00  0.00    +0.000 OA
ATOM     26  O   UNL     1       2.949   2.328  19.064  0.00  0.00    +0.000 OA
BRANCH  24  27
ATOM     27  N   UNL     1       5.112   3.531  18.483  0.00  0.00    +0.000 N 
ATOM     28  H   UNL     1       5.564   2.647  18.689  0.00  0.00    +0.000 HD
BRANCH  27  32
ATOM     29  C   UNL     1       7.733   7.599  17.766  0.00  0.00    +0.000 C 
ATOM     30  C   UNL     1       7.067   6.340  17.303  0.00  0.00    +0.000 A 
ATOM     31  C   UNL     1       6.350   5.560  18.178  0.00  0.00    +0.000 A 
ATOM     32  C   UNL     1       5.816   4.413  17.646  0.00  0.00    +0.000 A 
ATOM     33  N   UNL     1       5.941   4.020  16.375  0.00  0.00    +0.000 NA
ATOM     34  C   UNL     1       6.632   4.860  15.587  0.00  0.00    +0.000 A 
ATOM     35  C   UNL     1       6.777   4.520  14.134  0.00  0.00    +0.000 C 
ATOM     36  N   UNL     1       7.206   6.008  16.002  0.00  0.00    +0.000 NA
ENDBRANCH  27  32
ENDBRANCH  24  27
ENDBRANCH   1  24
TORSDOF 7
ENDMDL
MODEL 2
REMARK VINA RESULT:      -9.6      2.685      9.152
REMARK  Name = 
REMARK  9 active torsions:
REMARK  status: ('A' for Active; 'I' for Inactive)
REMARK    1  A    between atoms: C_1  and  C_2
REMARK    2  A    between atoms: C_4  and  N_5
REMARK    3  A    between atoms: N_5  and  S_6
REMARK    4  A    between atoms: S_6  and  C_9
REMARK    5  A    between atoms: C_12  and  N_13
REMARK    6  A    between atoms: C_14  and  C_16
REMARK    7  A    between atoms: C_16  and  C_17
REMARK    8  A    between atoms: C_17  and  N_18
REMARK    9  A    between atoms: C_32  and  C_33
REMARK                            x       y       z     vdW  Elec       q    Type
REMARK                         _______ _______ _______ _____ _____    ______ ____
ROOT
ATOM      1  C   UNL     1       1.171   9.369  19.792  0.00  0.00    +0.000 A 
ATOM      2  C   UNL     1       1.582   9.525  18.475  0.00  0.00    +0.000 A 
ATOM      3  C   UNL     1       2.283   8.499  17.834  0.00  0.00    +0.000 A 
ATOM      4  C   UNL     1       2.588   7.300  18.492  0.00  0.00    +0.000 A 
ATOM      5  C   UNL     1       2.183   7.158  19.824  0.00  0.00    +0.000 A 
ATOM      6  C   UNL     1       1.492   8.197  20.481  0.00  0.00    +0.000 A 
ENDROOT
BRANCH   4   7
ATOM      7  N   UNL     1       3.317   6.239  17.882  0.00  0.00    +0.000 N 
ATOM      8  C   UNL     1       4.332   5.519  18.481  0.00  0.00    +0.000 C 
ATOM      9  O   UNL     1       4.802   5.764  19.591  0.00  0.00    +0.000 OA
ATOM     10  H   UNL     1       3.068   6.005  16.928  0.00  0.00    +0.000 HD
BRANCH   8  11
ATOM     11  C   UNL     1       4.905   4.359  17.670  0.00  0.00    +0.000 C 
BRANCH  11  12
ATOM     12  C   UNL     1       3.765   3.875  16.774  0.00  0.00    +0.000 C 
BRANCH  12  13
ATOM     13  N   UNL     1       2.828   2.861  17.232  0.00  0.00    +0.000 N 
ATOM     14  C   UNL     1       1.675   3.463  17.715  0.00  0.00    +0.000 C 
ATOM     15  O   UNL     1       0.889   4.181  17.126  0.00  0.00    +0.000 OA
ATOM     16  C   UNL     1       1.655   3.244  19.156  0.00  0.00    +0.000 A 
ATOM     17  C   UNL     1       1.072   4.013  20.145  0.00  0.00    +0.000 A 
ATOM     18  C   UNL     1       1.454   3.747  21.462  0.00  0.00    +0.000 A 
ATOM     19  C   UNL     1       2.379   2.722  21.755  0.00  0.00    +0.000 A 
ATOM     20  C   UNL     1       2.971   1.974  20.731  0.00  0.00    +0.000 A 
ATOM     21  C   UNL     1       2.605   2.283  19.436  0.00  0.00    +0.000 A 
ATOM     22  C   UNL     1       3.278   1.963  18.177  0.00  0.00    +0.000 C 
ATOM     23  O   UNL     1       4.120   1.093  18.057  0.00  0.00    +0.000 OA
ENDBRANCH  12  13
ENDBRANCH  11  12
ENDBRANCH   8  11
ENDBRANCH   4   7
BRANCH   1  24
ATOM     24  S   UNL     1       0.410  10.753  20.616  0.00  0.00    +0.000 S 
ATOM     25  O   UNL     1       1.461  11.466  21.316  0.00  0.00    +0.000 OA
ATOM     26  O   UNL     1      -0.747  10.258  21.334  0.00  0.00    +0.000 OA
BRANCH  24  27
ATOM     27  N   UNL     1      -0.111  11.781  19.400  0.00  0.00    +0.000 N 
ATOM     28  H   UNL     1       0.593  11.999  18.705  0.00  0.00    +0.000 HD
BRANCH  27  32
ATOM     29  C   UNL     1      -4.917  12.660  19.650  0.00  0.00    +0.000 C 
ATOM     30  C   UNL     1      -3.705  12.028  19.039  0.00  0.00    +0.000 A 
ATOM     31  C   UNL     1      -2.462  12.205  19.597  0.00  0.00    +0.000 A 
ATOM     32  C   UNL     1      -1.423  11.607  18.928  0.00  0.00    +0.000 A 
ATOM     33  N   UNL     1      -1.538  10.885  17.810  0.00  0.00    +0.000 NA
ATOM     34  C   UNL     1      -2.794  10.740  17.355  0.00  0.00    +0.000 A 
ATOM     35  C   UNL     1      -3.019   9.901  16.133  0.00  0.00    +0.000 C 
ATOM     36  N   UNL     1      -3.887  11.288  17.925  0.00  0.00    +0.000 NA
ENDBRANCH  27  32
ENDBRANCH  24  27
ENDBRANCH   1  24
TORSDOF 7
ENDMDL
MODEL 3
REMARK VINA RESULT:      -9.4      0.883      1.791
REMARK  Name = 
REMARK  9 active torsions:
REMARK  status: ('A' for Active; 'I' for Inactive)
REMARK    1  A    between atoms: C_1  and  C_2
REMARK    2  A    between atoms: C_4  and  N_5
REMARK    3  A    between atoms: N_5  and  S_6
REMARK    4  A    between atoms: S_6  and  C_9
REMARK    5  A    between atoms: C_12  and  N_13
REMARK    6  A    between atoms: C_14  and  C_16
REMARK    7  A    between atoms: C_16  and  C_17
REMARK    8  A    between atoms: C_17  and  N_18
REMARK    9  A    between atoms: C_32  and  C_33
REMARK                            x       y       z     vdW  Elec       q    Type
REMARK                         _______ _______ _______ _____ _____    ______ ____
ROOT
ATOM      1  C   UNL     1       2.411   4.412  19.099  0.00  0.00    +0.000 A 
ATOM      2  C   UNL     1       2.426   5.514  18.255  0.00  0.00    +0.000 A 
ATOM      3  C   UNL     1       2.201   6.794  18.770  0.00  0.00    +0.000 A 
ATOM      4  C   UNL     1       1.956   7.000  20.134  0.00  0.00    +0.000 A 
ATOM      5  C   UNL     1       1.927   5.882  20.975  0.00  0.00    +0.000 A 
ATOM      6  C   UNL     1       2.135   4.587  20.457  0.00  0.00    +0.000 A 
ENDROOT
BRANCH   4   7
ATOM      7  N   UNL     1       1.702   8.285  20.695  0.00  0.00    +0.000 N 
ATOM      8  C   UNL     1       0.547   8.653  21.358  0.00  0.00    +0.000 C 
ATOM      9  O   UNL     1      -0.453   7.945  21.468  0.00  0.00    +0.000 OA
ATOM     10  H   UNL     1       2.431   8.980  20.590  0.00  0.00    +0.000 HD
BRANCH   8  11
ATOM     11  C   UNL     1       0.536  10.056  21.963  0.00  0.00    +0.000 C 
BRANCH  11  12
ATOM     12  C   UNL     1      -0.690  10.752  21.373  0.00  0.00    +0.000 C 
BRANCH  12  13
ATOM     13  N   UNL     1      -0.590  11.545  20.157  0.00  0.00    +0.000 N 
ATOM     14  C   UNL     1      -1.772  12.241  19.946  0.00  0.00    +0.000 C 
ATOM     15  O   UNL     1      -2.303  13.071  20.660  0.00  0.00    +0.000 OA
ATOM     16  C   UNL     1      -2.403  11.655  18.770  0.00  0.00    +0.000 A 
ATOM     17  C   UNL     1      -3.744  11.596  18.440  0.00  0.00    +0.000 A 
ATOM     18  C   UNL     1      -4.106  10.719  17.414  0.00  0.00    +0.000 A 
ATOM     19  C   UNL     1      -3.131   9.952  16.740  0.00  0.00    +0.000 A 
ATOM     20  C   UNL     1      -1.784  10.016  17.111  0.00  0.00    +0.000 A 
ATOM     21  C   UNL     1      -1.458  10.860  18.153  0.00  0.00    +0.000 A 
ATOM     22  C   UNL     1      -0.261  10.884  18.993  0.00  0.00    +0.000 C 
ATOM     23  O   UNL     1       0.789  10.346  18.696  0.00  0.00    +0.000 OA
ENDBRANCH  12  13
ENDBRANCH  11  12
ENDBRANCH   8  11
ENDBRANCH   4   7
BRANCH   1  24
ATOM     24  S   UNL     1       2.557   2.787  18.382  0.00  0.00    +0.000 S 
ATOM     25  O   UNL     1       2.153   2.894  16.993  0.00  0.00    +0.000 OA
ATOM     26  O   UNL     1       1.899   1.852  19.270  0.00  0.00    +0.000 OA
BRANCH  24  27
ATOM     27  N   UNL     1       4.197   2.444  18.357  0.00  0.00    +0.000 N 
ATOM     28  H   UNL     1       4.422   1.494  18.083  0.00  0.00    +0.000 HD
BRANCH  27  32
ATOM     29  C   UNL     1       5.981   5.240  14.762  0.00  0.00    +0.000 C 
ATOM     30  C   UNL     1       5.903   4.784  16.186  0.00  0.00    +0.000 A 
ATOM     31  C   UNL     1       5.072   3.754  16.551  0.00  0.00    +0.000 A 
ATOM     32  C   UNL     1       5.058   3.450  17.889  0.00  0.00    +0.000 A 
ATOM     33  N   UNL     1       5.781   4.068  18.828  0.00  0.00    +0.000 NA
ATOM     34  C   UNL     1       6.587   5.042  18.375  0.00  0.00    +0.000 A 
ATOM     35  C   UNL     1       7.471   5.753  19.355  0.00  0.00    +0.000 C 
ATOM     36  N   UNL     1       6.676   5.429  17.085  0.00  0.00    +0.000 NA
ENDBRANCH  27  32
ENDBRANCH  24  27
ENDBRANCH   1  24
TORSDOF 7
ENDMDL
MODEL 4
REMARK VINA RESULT:      -9.4      1.512      1.976
REMARK  Name = 
REMARK  9 active torsions:
REMARK  status: ('A' for Active; 'I' for Inactive)
REMARK    1  A    between atoms: C_1  and  C_2
REMARK    2  A    between atoms: C_4  and  N_5
REMARK    3  A    between atoms: N_5  and  S_6
REMARK    4  A    between atoms: S_6  and  C_9
REMARK    5  A    between atoms: C_12  and  N_13
REMARK    6  A    between atoms: C_14  and  C_16
REMARK    7  A    between atoms: C_16  and  C_17
REMARK    8  A    between atoms: C_17  and  N_18
REMARK    9  A    between atoms: C_32  and  C_33
REMARK                            x       y       z     vdW  Elec       q    Type
REMARK                         _______ _______ _______ _____ _____    ______ ____
ROOT
ATOM      1  C   UNL     1       3.254   4.893  18.940  0.00  0.00    +0.000 A 
ATOM      2  C   UNL     1       2.772   5.213  20.202  0.00  0.00    +0.000 A 
ATOM      3  C   UNL     1       2.181   6.460  20.430  0.00  0.00    +0.000 A 
ATOM      4  C   UNL     1       2.060   7.410  19.407  0.00  0.00    +0.000 A 
ATOM      5  C   UNL     1       2.562   7.084  18.142  0.00  0.00    +0.000 A 
ATOM      6  C   UNL     1       3.176   5.835  17.912  0.00  0.00    +0.000 A 
ENDROOT
BRANCH   4   7
ATOM      7  N   UNL     1       1.483   8.698  19.602  0.00  0.00    +0.000 N 
ATOM      8  C   UNL     1       1.399   9.689  18.644  0.00  0.00    +0.000 C 
ATOM      9  O   UNL     1       1.898   9.621  17.521  0.00  0.00    +0.000 OA
ATOM     10  H   UNL     1       1.112   8.895  20.524  0.00  0.00    +0.000 HD
BRANCH   8  11
ATOM     11  C   UNL     1       0.650  10.957  19.050  0.00  0.00    +0.000 C 
BRANCH  11  12
ATOM     12  C   UNL     1      -0.817  10.701  18.703  0.00  0.00    +0.000 C 
BRANCH  12  13
ATOM     13  N   UNL     1      -1.635  11.735  18.088  0.00  0.00    +0.000 N 
ATOM     14  C   UNL     1      -2.264  12.488  19.069  0.00  0.00    +0.000 C 
ATOM     15  O   UNL     1      -1.761  13.157  19.953  0.00  0.00    +0.000 OA
ATOM     16  C   UNL     1      -3.687  12.186  18.987  0.00  0.00    +0.000 A 
ATOM     17  C   UNL     1      -4.646  12.232  19.981  0.00  0.00    +0.000 A 
ATOM     18  C   UNL     1      -5.866  11.607  19.715  0.00  0.00    +0.000 A 
ATOM     19  C   UNL     1      -6.102  10.980  18.472  0.00  0.00    +0.000 A 
ATOM     20  C   UNL     1      -5.105  10.930  17.492  0.00  0.00    +0.000 A 
ATOM     21  C   UNL     1      -3.895  11.521  17.796  0.00  0.00    +0.000 A 
ATOM     22  C   UNL     1      -2.585  11.333  17.174  0.00  0.00    +0.000 C 
ATOM     23  O   UNL     1      -2.419  10.847  16.070  0.00  0.00    +0.000 OA
ENDBRANCH  12  13
ENDBRANCH  11  12
ENDBRANCH   8  11
ENDBRANCH   4   7
BRANCH   1  24
ATOM     24  S   UNL     1       4.128   3.355  18.728  0.00  0.00    +0.000 S 
ATOM     25  O   UNL     1       3.936   2.939  17.352  0.00  0.00    +0.000 OA
ATOM     26  O   UNL     1       3.752   2.480  19.819  0.00  0.00    +0.000 OA
BRANCH  24  27
ATOM     27  N   UNL     1       5.754   3.728  18.872  0.00  0.00    +0.000 N 
ATOM     28  H   UNL     1       6.344   2.942  19.121  0.00  0.00    +0.000 HD
BRANCH  27  32
ATOM     29  C   UNL     1       7.899   7.994  17.809  0.00  0.00    +0.000 C 
ATOM     30  C   UNL     1       7.313   6.665  17.443  0.00  0.00    +0.000 A 
ATOM     31  C   UNL     1       6.760   5.851  18.401  0.00  0.00    +0.000 A 
ATOM     32  C   UNL     1       6.289   4.643  17.950  0.00  0.00    +0.000 A 
ATOM     33  N   UNL     1       6.327   4.224  16.683  0.00  0.00    +0.000 NA
ATOM     34  C   UNL     1       6.858   5.098  15.811  0.00  0.00    +0.000 A 
ATOM     35  C   UNL     1       6.894   4.728  14.359  0.00  0.00    +0.000 C 
ATOM     36  N   UNL     1       7.358   6.307  16.142  0.00  0.00    +0.000 NA
ENDBRANCH  27  32
ENDBRANCH  24  27
ENDBRANCH   1  24
TORSDOF 7
ENDMDL
MODEL 5
REMARK VINA RESULT:      -9.3      3.384      9.032
REMARK  Name = 
REMARK  9 active torsions:
REMARK  status: ('A' for Active; 'I' for Inactive)
REMARK    1  A    between atoms: C_1  and  C_2
REMARK    2  A    between atoms: C_4  and  N_5
REMARK    3  A    between atoms: N_5  and  S_6
REMARK    4  A    between atoms: S_6  and  C_9
REMARK    5  A    between atoms: C_12  and  N_13
REMARK    6  A    between atoms: C_14  and  C_16
REMARK    7  A    between atoms: C_16  and  C_17
REMARK    8  A    between atoms: C_17  and  N_18
REMARK    9  A    between atoms: C_32  and  C_33
REMARK                            x       y       z     vdW  Elec       q    Type
REMARK                         _______ _______ _______ _____ _____    ______ ____
ROOT
ATOM      1  C   UNL     1       0.823   9.653  19.642  0.00  0.00    +0.000 A 
ATOM      2  C   UNL     1       0.469   9.159  20.890  0.00  0.00    +0.000 A 
ATOM      3  C   UNL     1       0.971   7.927  21.322  0.00  0.00    +0.000 A 
ATOM      4  C   UNL     1       1.831   7.165  20.521  0.00  0.00    +0.000 A 
ATOM      5  C   UNL     1       2.170   7.664  19.258  0.00  0.00    +0.000 A 
ATOM      6  C   UNL     1       1.652   8.897  18.809  0.00  0.00    +0.000 A 
ENDROOT
BRANCH   4   7
ATOM      7  N   UNL     1       2.347   5.897  20.916  0.00  0.00    +0.000 N 
ATOM      8  C   UNL     1       1.690   4.690  20.780  0.00  0.00    +0.000 C 
ATOM      9  O   UNL     1       0.531   4.564  20.384  0.00  0.00    +0.000 OA
ATOM     10  H   UNL     1       3.269   5.891  21.334  0.00  0.00    +0.000 HD
BRANCH   8  11
ATOM     11  C   UNL     1       2.477   3.445  21.182  0.00  0.00    +0.000 C 
BRANCH  11  12
ATOM     12  C   UNL     1       2.222   2.417  20.079  0.00  0.00    +0.000 C 
BRANCH  12  13
ATOM     13  N   UNL     1       3.157   2.251  18.977  0.00  0.00    +0.000 N 
ATOM     14  C   UNL     1       4.453   2.480  19.416  0.00  0.00    +0.000 C 
ATOM     15  O   UNL     1       5.080   1.889  20.274  0.00  0.00    +0.000 OA
ATOM     16  C   UNL     1       4.899   3.718  18.789  0.00  0.00    +0.000 A 
ATOM     17  C   UNL     1       5.829   4.636  19.239  0.00  0.00    +0.000 A 
ATOM     18  C   UNL     1       5.851   5.880  18.604  0.00  0.00    +0.000 A 
ATOM     19  C   UNL     1       4.972   6.163  17.536  0.00  0.00    +0.000 A 
ATOM     20  C   UNL     1       4.026   5.222  17.116  0.00  0.00    +0.000 A 
ATOM     21  C   UNL     1       3.998   4.016  17.787  0.00  0.00    +0.000 A 
ATOM     22  C   UNL     1       2.942   3.006  17.844  0.00  0.00    +0.000 C 
ATOM     23  O   UNL     1       2.028   2.932  17.044  0.00  0.00    +0.000 OA
ENDBRANCH  12  13
ENDBRANCH  11  12
ENDBRANCH   8  11
ENDBRANCH   4   7
BRANCH   1  24
ATOM     24  S   UNL     1       0.050  11.154  19.070  0.00  0.00    +0.000 S 
ATOM     25  O   UNL     1      -0.291  11.933  20.244  0.00  0.00    +0.000 OA
ATOM     26  O   UNL     1      -0.969  10.786  18.109  0.00  0.00    +0.000 OA
BRANCH  24  27
ATOM     27  N   UNL     1       1.250  12.015  18.280  0.00  0.00    +0.000 N 
ATOM     28  H   UNL     1       1.245  11.914  17.272  0.00  0.00    +0.000 HD
BRANCH  27  32
ATOM     29  C   UNL     1       0.182  16.744  18.935  0.00  0.00    +0.000 C 
ATOM     30  C   UNL     1       1.053  15.536  19.097  0.00  0.00    +0.000 A 
ATOM     31  C   UNL     1       0.702  14.335  18.531  0.00  0.00    +0.000 A 
ATOM     32  C   UNL     1       1.560  13.292  18.778  0.00  0.00    +0.000 A 
ATOM     33  N   UNL     1       2.678  13.368  19.505  0.00  0.00    +0.000 NA
ATOM     34  C   UNL     1       2.956  14.588  19.993  0.00  0.00    +0.000 A 
ATOM     35  C   UNL     1       4.220  14.773  20.779  0.00  0.00    +0.000 C 
ATOM     36  N   UNL     1       2.183  15.680  19.820  0.00  0.00    +0.000 NA
ENDBRANCH  27  32
ENDBRANCH  24  27
ENDBRANCH   1  24
TORSDOF 7
ENDMDL
MODEL 6
REMARK VINA RESULT:      -9.3      2.037      3.077
REMARK  Name = 
REMARK  9 active torsions:
REMARK  status: ('A' for Active; 'I' for Inactive)
REMARK    1  A    between atoms: C_1  and  C_2
REMARK    2  A    between atoms: C_4  and  N_5
REMARK    3  A    between atoms: N_5  and  S_6
REMARK    4  A    between atoms: S_6  and  C_9
REMARK    5  A    between atoms: C_12  and  N_13
REMARK    6  A    between atoms: C_14  and  C_16
REMARK    7  A    between atoms: C_16  and  C_17
REMARK    8  A    between atoms: C_17  and  N_18
REMARK    9  A    between atoms: C_32  and  C_33
REMARK                            x       y       z     vdW  Elec       q    Type
REMARK                         _______ _______ _______ _____ _____    ______ ____
ROOT
ATOM      1  C   UNL     1       3.395   5.110  19.034  0.00  0.00    +0.000 A 
ATOM      2  C   UNL     1       3.325   5.981  17.955  0.00  0.00    +0.000 A 
ATOM      3  C   UNL     1       2.676   7.212  18.090  0.00  0.00    +0.000 A 
ATOM      4  C   UNL     1       2.084   7.598  19.300  0.00  0.00    +0.000 A 
ATOM      5  C   UNL     1       2.146   6.707  20.378  0.00  0.00    +0.000 A 
ATOM      6  C   UNL     1       2.783   5.456  20.241  0.00  0.00    +0.000 A 
ENDROOT
BRANCH   4   7
ATOM      7  N   UNL     1       1.396   8.834  19.473  0.00  0.00    +0.000 N 
ATOM      8  C   UNL     1       1.344   9.855  18.544  0.00  0.00    +0.000 C 
ATOM      9  O   UNL     1       1.964   9.868  17.482  0.00  0.00    +0.000 OA
ATOM     10  H   UNL     1       0.914   8.967  20.353  0.00  0.00    +0.000 HD
BRANCH   8  11
ATOM     11  C   UNL     1       0.464  11.050  18.906  0.00  0.00    +0.000 C 
BRANCH  11  12
ATOM     12  C   UNL     1       0.019  10.815  20.350  0.00  0.00    +0.000 C 
BRANCH  12  13
ATOM     13  N   UNL     1       0.119  11.870  21.348  0.00  0.00    +0.000 N 
ATOM     14  C   UNL     1      -0.503  11.472  22.522  0.00  0.00    +0.000 C 
ATOM     15  O   UNL     1      -0.241  10.523  23.237  0.00  0.00    +0.000 OA
ATOM     16  C   UNL     1      -1.694  12.300  22.671  0.00  0.00    +0.000 A 
ATOM     17  C   UNL     1      -2.880  12.009  23.318  0.00  0.00    +0.000 A 
ATOM     18  C   UNL     1      -3.966  12.848  23.056  0.00  0.00    +0.000 A 
ATOM     19  C   UNL     1      -3.836  13.951  22.186  0.00  0.00    +0.000 A 
ATOM     20  C   UNL     1      -2.628  14.208  21.527  0.00  0.00    +0.000 A 
ATOM     21  C   UNL     1      -1.582  13.341  21.773  0.00  0.00    +0.000 A 
ATOM     22  C   UNL     1      -0.359  13.116  21.003  0.00  0.00    +0.000 C 
ATOM     23  O   UNL     1       0.077  13.895  20.176  0.00  0.00    +0.000 OA
ENDBRANCH  12  13
ENDBRANCH  11  12
ENDBRANCH   8  11
ENDBRANCH   4   7
BRANCH   1  24
ATOM     24  S   UNL     1       4.102   3.494  18.781  0.00  0.00    +0.000 S 
ATOM     25  O   UNL     1       3.780   3.094  17.424  0.00  0.00    +0.000 OA
ATOM     26  O   UNL     1       3.719   2.664  19.903  0.00  0.00    +0.000 OA
BRANCH  24  27
ATOM     27  N   UNL     1       5.763   3.711  18.813  0.00  0.00    +0.000 N 
ATOM     28  H   UNL     1       6.294   2.860  18.960  0.00  0.00    +0.000 HD
BRANCH  27  32
ATOM     29  C   UNL     1       7.936   7.985  17.844  0.00  0.00    +0.000 C 
ATOM     30  C   UNL     1       7.347   6.666  17.449  0.00  0.00    +0.000 A 
ATOM     31  C   UNL     1       6.783   5.838  18.388  0.00  0.00    +0.000 A 
ATOM     32  C   UNL     1       6.308   4.641  17.912  0.00  0.00    +0.000 A 
ATOM     33  N   UNL     1       6.355   4.244  16.637  0.00  0.00    +0.000 NA
ATOM     34  C   UNL     1       6.896   5.132  15.786  0.00  0.00    +0.000 A 
ATOM     35  C   UNL     1       6.940   4.788  14.327  0.00  0.00    +0.000 C 
ATOM     36  N   UNL     1       7.399   6.332  16.142  0.00  0.00    +0.000 NA
ENDBRANCH  27  32
ENDBRANCH  24  27
ENDBRANCH   1  24
TORSDOF 7
ENDMDL
MODEL 7
REMARK VINA RESULT:      -9.3      0.846      1.121
REMARK  Name = 
REMARK  9 active torsions:
REMARK  status: ('A' for Active; 'I' for Inactive)
REMARK    1  A    between atoms: C_1  and  C_2
REMARK    2  A    between atoms: C_4  and  N_5
REMARK    3  A    between atoms: N_5  and  S_6
REMARK    4  A    between atoms: S_6  and  C_9
REMARK    5  A    between atoms: C_12  and  N_13
REMARK    6  A    between atoms: C_14  and  C_16
REMARK    7  A    between atoms: C_16  and  C_17
REMARK    8  A    between atoms: C_17  and  N_18
REMARK    9  A    between atoms: C_32  and  C_33
REMARK                            x       y       z     vdW  Elec       q    Type
REMARK                         _______ _______ _______ _____ _____    ______ ____
ROOT
ATOM      1  C   UNL     1       2.973   4.931  19.086  0.00  0.00    +0.000 A 
ATOM      2  C   UNL     1       2.522   4.984  20.398  0.00  0.00    +0.000 A 
ATOM      3  C   UNL     1       1.982   6.170  20.905  0.00  0.00    +0.000 A 
ATOM      4  C   UNL     1       1.884   7.324  20.118  0.00  0.00    +0.000 A 
ATOM      5  C   UNL     1       2.356   7.266  18.801  0.00  0.00    +0.000 A 
ATOM      6  C   UNL     1       2.917   6.078  18.290  0.00  0.00    +0.000 A 
ENDROOT
BRANCH   4   7
ATOM      7  N   UNL     1       1.361   8.557  20.603  0.00  0.00    +0.000 N 
ATOM      8  C   UNL     1       0.164   8.708  21.275  0.00  0.00    +0.000 C 
ATOM      9  O   UNL     1      -0.653   7.807  21.460  0.00  0.00    +0.000 OA
ATOM     10  H   UNL     1       1.916   9.387  20.431  0.00  0.00    +0.000 HD
BRANCH   8  11
ATOM     11  C   UNL     1      -0.149  10.112  21.789  0.00  0.00    +0.000 C 
BRANCH  11  12
ATOM     12  C   UNL     1       0.981  11.004  21.273  0.00  0.00    +0.000 C 
BRANCH  12  13
ATOM     13  N   UNL     1       0.747  11.976  20.216  0.00  0.00    +0.000 N 
ATOM     14  C   UNL     1      -0.282  12.833  20.580  0.00  0.00    +0.000 C 
ATOM     15  O   UNL     1      -0.342  13.586  21.534  0.00  0.00    +0.000 OA
ATOM     16  C   UNL     1      -1.408  12.538  19.703  0.00  0.00    +0.000 A 
ATOM     17  C   UNL     1      -2.760  12.697  19.940  0.00  0.00    +0.000 A 
ATOM     18  C   UNL     1      -3.637  12.059  19.059  0.00  0.00    +0.000 A 
ATOM     19  C   UNL     1      -3.149  11.308  17.968  0.00  0.00    +0.000 A 
ATOM     20  C   UNL     1      -1.773  11.147  17.766  0.00  0.00    +0.000 A 
ATOM     21  C   UNL     1      -0.929  11.754  18.673  0.00  0.00    +0.000 A 
ATOM     22  C   UNL     1       0.482  11.490  18.954  0.00  0.00    +0.000 C 
ATOM     23  O   UNL     1       1.225  10.890  18.199  0.00  0.00    +0.000 OA
ENDBRANCH  12  13
ENDBRANCH  11  12
ENDBRANCH   8  11
ENDBRANCH   4   7
BRANCH   1  24
ATOM     24  S   UNL     1       3.783   3.447  18.523  0.00  0.00    +0.000 S 
ATOM     25  O   UNL     1       3.564   3.356  17.093  0.00  0.00    +0.000 OA
ATOM     26  O   UNL     1       3.382   2.366  19.399  0.00  0.00    +0.000 OA
BRANCH  24  27
ATOM     27  N   UNL     1       5.424   3.718  18.720  0.00  0.00    +0.000 N 
ATOM     28  H   UNL     1       5.956   2.899  18.990  0.00  0.00    +0.000 HD
BRANCH  27  32
ATOM     29  C   UNL     1       7.884   7.826  17.717  0.00  0.00    +0.000 C 
ATOM     30  C   UNL     1       7.219   6.540  17.334  0.00  0.00    +0.000 A 
ATOM     31  C   UNL     1       6.586   5.768  18.276  0.00  0.00    +0.000 A 
ATOM     32  C   UNL     1       6.045   4.594  17.813  0.00  0.00    +0.000 A 
ATOM     33  N   UNL     1       6.090   4.171  16.547  0.00  0.00    +0.000 NA
ATOM     34  C   UNL     1       6.702   5.005  15.690  0.00  0.00    +0.000 A 
ATOM     35  C   UNL     1       6.752   4.631  14.240  0.00  0.00    +0.000 C 
ATOM     36  N   UNL     1       7.274   6.178  16.035  0.00  0.00    +0.000 NA
ENDBRANCH  27  32
ENDBRANCH  24  27
ENDBRANCH   1  24
TORSDOF 7
ENDMDL
MODEL 8
REMARK VINA RESULT:      -9.3      2.048      3.100
REMARK  Name = 
REMARK  9 active torsions:
REMARK  status: ('A' for Active; 'I' for Inactive)
REMARK    1  A    between atoms: C_1  and  C_2
REMARK    2  A    between atoms: C_4  and  N_5
REMARK    3  A    between atoms: N_5  and  S_6
REMARK    4  A    between atoms: S_6  and  C_9
REMARK    5  A    between atoms: C_12  and  N_13
REMARK    6  A    between atoms: C_14  and  C_16
REMARK    7  A    between atoms: C_16  and  C_17
REMARK    8  A    between atoms: C_17  and  N_18
REMARK    9  A    between atoms: C_32  and  C_33
REMARK                            x       y       z     vdW  Elec       q    Type
REMARK                         _______ _______ _______ _____ _____    ______ ____
ROOT
ATOM      1  C   UNL     1       3.285   5.024  18.881  0.00  0.00    +0.000 A 
ATOM      2  C   UNL     1       2.817   5.582  20.063  0.00  0.00    +0.000 A 
ATOM      3  C   UNL     1       2.284   6.875  20.063  0.00  0.00    +0.000 A 
ATOM      4  C   UNL     1       2.208   7.634  18.888  0.00  0.00    +0.000 A 
ATOM      5  C   UNL     1       2.696   7.069  17.704  0.00  0.00    +0.000 A 
ATOM      6  C   UNL     1       3.252   5.773  17.703  0.00  0.00    +0.000 A 
ENDROOT
BRANCH   4   7
ATOM      7  N   UNL     1       1.691   8.962  18.849  0.00  0.00    +0.000 N 
ATOM      8  C   UNL     1       0.890   9.536  19.818  0.00  0.00    +0.000 C 
ATOM      9  O   UNL     1       0.442   8.942  20.797  0.00  0.00    +0.000 OA
ATOM     10  H   UNL     1       1.931   9.520  18.039  0.00  0.00    +0.000 HD
BRANCH   8  11
ATOM     11  C   UNL     1       0.535  11.007  19.613  0.00  0.00    +0.000 C 
BRANCH  11  12
ATOM     12  C   UNL     1      -0.616  11.294  20.577  0.00  0.00    +0.000 C 
BRANCH  12  13
ATOM     13  N   UNL     1      -0.447  12.208  21.697  0.00  0.00    +0.000 N 
ATOM     14  C   UNL     1      -1.029  11.673  22.837  0.00  0.00    +0.000 C 
ATOM     15  O   UNL     1      -0.762  10.634  23.411  0.00  0.00    +0.000 OA
ATOM     16  C   UNL     1      -2.190  12.498  23.146  0.00  0.00    +0.000 A 
ATOM     17  C   UNL     1      -3.355  12.150  23.803  0.00  0.00    +0.000 A 
ATOM     18  C   UNL     1      -4.430  13.037  23.701  0.00  0.00    +0.000 A 
ATOM     19  C   UNL     1      -4.307  14.242  22.975  0.00  0.00    +0.000 A 
ATOM     20  C   UNL     1      -3.122  14.557  22.302  0.00  0.00    +0.000 A 
ATOM     21  C   UNL     1      -2.090  13.645  22.385  0.00  0.00    +0.000 A 
ATOM     22  C   UNL     1      -0.906  13.498  21.538  0.00  0.00    +0.000 C 
ATOM     23  O   UNL     1      -0.486  14.368  20.800  0.00  0.00    +0.000 OA
ENDBRANCH  12  13
ENDBRANCH  11  12
ENDBRANCH   8  11
ENDBRANCH   4   7
BRANCH   1  24
ATOM     24  S   UNL     1       4.087   3.434  18.950  0.00  0.00    +0.000 S 
ATOM     25  O   UNL     1       3.880   2.794  17.665  0.00  0.00    +0.000 OA
ATOM     26  O   UNL     1       3.669   2.781  20.173  0.00  0.00    +0.000 OA
BRANCH  24  27
ATOM     27  N   UNL     1       5.729   3.753  19.044  0.00  0.00    +0.000 N 
ATOM     28  H   UNL     1       6.299   2.950  19.286  0.00  0.00    +0.000 HD
BRANCH  27  32
ATOM     29  C   UNL     1       7.966   7.941  17.866  0.00  0.00    +0.000 C 
ATOM     30  C   UNL     1       7.336   6.624  17.533  0.00  0.00    +0.000 A 
ATOM     31  C   UNL     1       6.782   5.840  18.516  0.00  0.00    +0.000 A 
ATOM     32  C   UNL     1       6.268   4.639  18.096  0.00  0.00    +0.000 A 
ATOM     33  N   UNL     1       6.267   4.199  16.834  0.00  0.00    +0.000 NA
ATOM     34  C   UNL     1       6.802   5.045  15.938  0.00  0.00    +0.000 A 
ATOM     35  C   UNL     1       6.795   4.651  14.491  0.00  0.00    +0.000 C 
ATOM     36  N   UNL     1       7.342   6.244  16.238  0.00  0.00    +0.000 NA
ENDBRANCH  27  32
ENDBRANCH  24  27
ENDBRANCH   1  24
TORSDOF 7
ENDMDL
MODEL 9
REMARK VINA RESULT:      -9.3      1.106      1.905
REMARK  Name = 
REMARK  9 active torsions:
REMARK  status: ('A' for Active; 'I' for Inactive)
REMARK    1  A    between atoms: C_1  and  C_2
REMARK    2  A    between atoms: C_4  and  N_5
REMARK    3  A    between atoms: N_5  and  S_6
REMARK    4  A    between atoms: S_6  and  C_9
REMARK    5  A    between atoms: C_12  and  N_13
REMARK    6  A    between atoms: C_14  and  C_16
REMARK    7  A    between atoms: C_16  and  C_17
REMARK    8  A    between atoms: C_17  and  N_18
REMARK    9  A    between atoms: C_32  and  C_33
REMARK                            x       y       z     vdW  Elec       q    Type
REMARK                         _______ _______ _______ _____ _____    ______ ____
ROOT
ATOM      1  C   UNL     1       3.274   4.936  18.960  0.00  0.00    +0.000 A 
ATOM      2  C   UNL     1       2.712   5.206  20.200  0.00  0.00    +0.000 A 
ATOM      3  C   UNL     1       2.125   6.451  20.446  0.00  0.00    +0.000 A 
ATOM      4  C   UNL     1       2.089   7.450  19.464  0.00  0.00    +0.000 A 
ATOM      5  C   UNL     1       2.672   7.174  18.222  0.00  0.00    +0.000 A 
ATOM      6  C   UNL     1       3.281   5.926  17.975  0.00  0.00    +0.000 A 
ENDROOT
BRANCH   4   7
ATOM      7  N   UNL     1       1.521   8.738  19.681  0.00  0.00    +0.000 N 
ATOM      8  C   UNL     1       1.195   9.270  20.914  0.00  0.00    +0.000 C 
ATOM      9  O   UNL     1       1.269   8.661  21.980  0.00  0.00    +0.000 OA
ATOM     10  H   UNL     1       1.338   9.300  18.858  0.00  0.00    +0.000 HD
BRANCH   8  11
ATOM     11  C   UNL     1       0.687  10.711  20.913  0.00  0.00    +0.000 C 
BRANCH  11  12
ATOM     12  C   UNL     1      -0.749  10.644  20.392  0.00  0.00    +0.000 C 
BRANCH  12  13
ATOM     13  N   UNL     1      -1.181  11.466  19.273  0.00  0.00    +0.000 N 
ATOM     14  C   UNL     1      -2.012  12.481  19.723  0.00  0.00    +0.000 C 
ATOM     15  O   UNL     1      -1.764  13.371  20.515  0.00  0.00    +0.000 OA
ATOM     16  C   UNL     1      -3.348  12.190  19.218  0.00  0.00    +0.000 A 
ATOM     17  C   UNL     1      -4.575  12.538  19.751  0.00  0.00    +0.000 A 
ATOM     18  C   UNL     1      -5.697  11.880  19.241  0.00  0.00    +0.000 A 
ATOM     19  C   UNL     1      -5.569  10.922  18.212  0.00  0.00    +0.000 A 
ATOM     20  C   UNL     1      -4.311  10.574  17.708  0.00  0.00    +0.000 A 
ATOM     21  C   UNL     1      -3.216  11.209  18.256  0.00  0.00    +0.000 A 
ATOM     22  C   UNL     1      -1.804  10.829  18.221  0.00  0.00    +0.000 C 
ATOM     23  O   UNL     1      -1.332  10.040  17.424  0.00  0.00    +0.000 OA
ENDBRANCH  12  13
ENDBRANCH  11  12
ENDBRANCH   8  11
ENDBRANCH   4   7
BRANCH   1  24
ATOM     24  S   UNL     1       4.136   3.393  18.735  0.00  0.00    +0.000 S 
ATOM     25  O   UNL     1       3.942   2.991  17.354  0.00  0.00    +0.000 OA
ATOM     26  O   UNL     1       3.754   2.511  19.818  0.00  0.00    +0.000 OA
BRANCH  24  27
ATOM     27  N   UNL     1       5.765   3.753  18.883  0.00  0.00    +0.000 N 
ATOM     28  H   UNL     1       6.339   2.978  19.196  0.00  0.00    +0.000 HD
BRANCH  27  32
ATOM     29  C   UNL     1       6.934   4.774  14.243  0.00  0.00    +0.000 C 
ATOM     30  C   UNL     1       6.880   5.086  15.707  0.00  0.00    +0.000 A 
ATOM     31  C   UNL     1       6.359   4.182  16.601  0.00  0.00    +0.000 A 
ATOM     32  C   UNL     1       6.330   4.595  17.910  0.00  0.00    +0.000 A 
ATOM     33  N   UNL     1       6.764   5.776  18.356  0.00  0.00    +0.000 NA
ATOM     34  C   UNL     1       7.284   6.583  17.416  0.00  0.00    +0.000 A 
ATOM     35  C   UNL     1       7.842   7.908  17.840  0.00  0.00    +0.000 C 
ATOM     36  N   UNL     1       7.357   6.285  16.102  0.00  0.00    +0.000 NA
ENDBRANCH  27  32
ENDBRANCH  24  27
ENDBRANCH   1  24
TORSDOF 7
ENDMDL
