MODEL 1
REMARK VINA RESULT:      -8.6      0.000      0.000
REMARK  Name = 
REMARK  6 active torsions:
REMARK  status: ('A' for Active; 'I' for Inactive)
REMARK    1  A    between atoms: C_1  and  N_2
REMARK    2  A    between atoms: N_2  and  C_3
REMARK    3  A    between atoms: N_2  and  C_18
REMARK    4  A    between atoms: C_3  and  C_4
REMARK    5  A    between atoms: N_6  and  C_7
REMARK    6  A    between atoms: C_7  and  C_8
REMARK                            x       y       z     vdW  Elec       q    Type
REMARK                         _______ _______ _______ _____ _____    ______ ____
ROOT
ATOM      1  C   UNL     1       1.846   4.461  19.971  0.00  0.00    +0.000 C 
ATOM      2  O   UNL     1       1.087   3.596  20.407  0.00  0.00    +0.000 OA
ATOM      3  N   UNL     1       1.780   5.759  20.438  0.00  0.00    +0.000 N 
ATOM      4  H   UNL     1       1.286   5.888  21.313  0.00  0.00    +0.000 HD
ENDROOT
BRANCH   1   5
ATOM      5  C   UNL     1       2.866   4.190  18.857  0.00  0.00    +0.000 C 
BRANCH   5   7
ATOM      6  C   UNL     1       4.357   2.306  19.802  0.00  0.00    +0.000 C 
ATOM      7  N   UNL     1       4.179   3.672  19.320  0.00  0.00    +0.000 N 
BRANCH   7   8
ATOM      8  C   UNL     1       5.358   4.273  18.860  0.00  0.00    +0.000 A 
ATOM      9  N   UNL     1       6.063   5.073  19.708  0.00  0.00    +0.000 NA
ATOM     10  C   UNL     1       7.183   5.691  19.264  0.00  0.00    +0.000 A 
ATOM     11  N   UNL     1       7.717   5.637  18.047  0.00  0.00    +0.000 NA
ATOM     12  C   UNL     1       7.001   4.867  17.203  0.00  0.00    +0.000 A 
ATOM     13  N   UNL     1       7.289   4.690  15.877  0.00  0.00    +0.000 NA
ATOM     14  C   UNL     1       6.313   3.919  15.429  0.00  0.00    +0.000 A 
ATOM     15  N   UNL     1       5.428   3.601  16.415  0.00  0.00    +0.000 N 
ATOM     16  C   UNL     1       5.849   4.198  17.579  0.00  0.00    +0.000 A 
ATOM     17  H   UNL     1       4.583   3.076  16.282  0.00  0.00    +0.000 HD
ENDBRANCH   7   8
ENDBRANCH   5   7
ENDBRANCH   1   5
BRANCH   3  18
ATOM     18  C   UNL     1       2.622   6.825  19.921  0.00  0.00    +0.000 C 
BRANCH  18  19
ATOM     19  C   UNL     1       1.892   8.053  19.469  0.00  0.00    +0.000 A 
ATOM     20  C   UNL     1       1.927   8.438  18.126  0.00  0.00    +0.000 A 
ATOM     21  C   UNL     1       1.265   9.586  17.716  0.00  0.00    +0.000 A 
ATOM     22  C   UNL     1       0.562  10.346  18.644  0.00  0.00    +0.000 A 
ATOM     23  C   UNL     1       0.511   9.965  19.997  0.00  0.00    +0.000 A 
ATOM     24  C   UNL     1      -0.159  10.743  20.950  0.00  0.00    +0.000 A 
ATOM     25  C   UNL     1      -0.186  10.349  22.280  0.00  0.00    +0.000 A 
ATOM     26  C   UNL     1       0.476   9.189  22.625  0.00  0.00    +0.000 A 
ATOM     27  N   UNL     1       1.156   8.440  21.740  0.00  0.00    +0.000 NA
ATOM     28  C   UNL     1       1.180   8.800  20.431  0.00  0.00    +0.000 A 
ENDBRANCH  18  19
ENDBRANCH   3  18
TORSDOF 5
ENDMDL
MODEL 2
REMARK VINA RESULT:      -8.2      0.956      1.280
REMARK  Name = 
REMARK  6 active torsions:
REMARK  status: ('A' for Active; 'I' for Inactive)
REMARK    1  A    between atoms: C_1  and  N_2
REMARK    2  A    between atoms: N_2  and  C_3
REMARK    3  A    between atoms: N_2  and  C_18
REMARK    4  A    between atoms: C_3  and  C_4
REMARK    5  A    between atoms: N_6  and  C_7
REMARK    6  A    between atoms: C_7  and  C_8
REMARK                            x       y       z     vdW  Elec       q    Type
REMARK                         _______ _______ _______ _____ _____    ______ ____
ROOT
ATOM      1  C   UNL     1       2.015   3.370  19.840  0.00  0.00    +0.000 C 
ATOM      2  O   UNL     1       1.207   2.475  19.596  0.00  0.00    +0.000 OA
ATOM      3  N   UNL     1       1.585   4.624  20.226  0.00  0.00    +0.000 N 
ATOM      4  H   UNL     1       0.625   4.681  20.550  0.00  0.00    +0.000 HD
ENDROOT
BRANCH   1   5
ATOM      5  C   UNL     1       3.530   3.190  19.684  0.00  0.00    +0.000 C 
BRANCH   5   7
ATOM      6  C   UNL     1       3.207   3.506  17.142  0.00  0.00    +0.000 C 
ATOM      7  N   UNL     1       4.060   3.474  18.325  0.00  0.00    +0.000 N 
BRANCH   7   8
ATOM      8  C   UNL     1       5.254   4.195  18.187  0.00  0.00    +0.000 A 
ATOM      9  N   UNL     1       5.787   4.801  19.285  0.00  0.00    +0.000 NA
ATOM     10  C   UNL     1       6.919   5.533  19.157  0.00  0.00    +0.000 A 
ATOM     11  N   UNL     1       7.618   5.769  18.050  0.00  0.00    +0.000 NA
ATOM     12  C   UNL     1       7.072   5.191  16.961  0.00  0.00    +0.000 A 
ATOM     13  N   UNL     1       7.550   5.324  15.686  0.00  0.00    +0.000 NA
ATOM     14  C   UNL     1       6.692   4.649  14.941  0.00  0.00    +0.000 A 
ATOM     15  N   UNL     1       5.700   4.093  15.692  0.00  0.00    +0.000 N 
ATOM     16  C   UNL     1       5.920   4.424  17.007  0.00  0.00    +0.000 A 
ATOM     17  H   UNL     1       4.913   3.589  15.323  0.00  0.00    +0.000 HD
ENDBRANCH   7   8
ENDBRANCH   5   7
ENDBRANCH   1   5
BRANCH   3  18
ATOM     18  C   UNL     1       2.497   5.726  20.479  0.00  0.00    +0.000 C 
BRANCH  18  19
ATOM     19  C   UNL     1       2.300   6.932  19.610  0.00  0.00    +0.000 A 
ATOM     20  C   UNL     1       2.810   6.952  18.310  0.00  0.00    +0.000 A 
ATOM     21  C   UNL     1       2.641   8.077  17.516  0.00  0.00    +0.000 A 
ATOM     22  C   UNL     1       1.957   9.179  18.018  0.00  0.00    +0.000 A 
ATOM     23  C   UNL     1       1.431   9.168  19.322  0.00  0.00    +0.000 A 
ATOM     24  C   UNL     1       0.776  10.286  19.854  0.00  0.00    +0.000 A 
ATOM     25  C   UNL     1       0.274  10.252  21.148  0.00  0.00    +0.000 A 
ATOM     26  C   UNL     1       0.458   9.100  21.883  0.00  0.00    +0.000 A 
ATOM     27  N   UNL     1       1.112   8.023  21.412  0.00  0.00    +0.000 NA
ATOM     28  C   UNL     1       1.595   8.032  20.143  0.00  0.00    +0.000 A 
ENDBRANCH  18  19
ENDBRANCH   3  18
TORSDOF 5
ENDMDL
MODEL 3
REMARK VINA RESULT:      -7.9      1.180      2.019
REMARK  Name = 
REMARK  6 active torsions:
REMARK  status: ('A' for Active; 'I' for Inactive)
REMARK    1  A    between atoms: C_1  and  N_2
REMARK    2  A    between atoms: N_2  and  C_3
REMARK    3  A    between atoms: N_2  and  C_18
REMARK    4  A    between atoms: C_3  and  C_4
REMARK    5  A    between atoms: N_6  and  C_7
REMARK    6  A    between atoms: C_7  and  C_8
REMARK                            x       y       z     vdW  Elec       q    Type
REMARK                         _______ _______ _______ _____ _____    ______ ____
ROOT
ATOM      1  C   UNL     1       2.051   3.638  19.927  0.00  0.00    +0.000 C 
ATOM      2  O   UNL     1       1.336   2.688  19.612  0.00  0.00    +0.000 OA
ATOM      3  N   UNL     1       1.497   4.849  20.291  0.00  0.00    +0.000 N 
ATOM      4  H   UNL     1       0.514   4.827  20.540  0.00  0.00    +0.000 HD
ENDROOT
BRANCH   1   5
ATOM      5  C   UNL     1       3.584   3.577  19.887  0.00  0.00    +0.000 C 
BRANCH   5   7
ATOM      6  C   UNL     1       3.681   2.313  17.639  0.00  0.00    +0.000 C 
ATOM      7  N   UNL     1       4.169   3.351  18.540  0.00  0.00    +0.000 N 
BRANCH   7   8
ATOM      8  C   UNL     1       4.840   4.398  17.895  0.00  0.00    +0.000 A 
ATOM      9  N   UNL     1       4.431   4.775  16.651  0.00  0.00    +0.000 NA
ATOM     10  C   UNL     1       5.095   5.759  16.001  0.00  0.00    +0.000 A 
ATOM     11  N   UNL     1       6.157   6.441  16.421  0.00  0.00    +0.000 NA
ATOM     12  C   UNL     1       6.576   6.048  17.640  0.00  0.00    +0.000 A 
ATOM     13  N   UNL     1       7.682   6.537  18.280  0.00  0.00    +0.000 NA
ATOM     14  C   UNL     1       7.747   5.842  19.402  0.00  0.00    +0.000 A 
ATOM     15  N   UNL     1       6.729   4.942  19.498  0.00  0.00    +0.000 N 
ATOM     16  C   UNL     1       5.950   5.053  18.372  0.00  0.00    +0.000 A 
ATOM     17  H   UNL     1       6.621   4.273  20.240  0.00  0.00    +0.000 HD
ENDBRANCH   7   8
ENDBRANCH   5   7
ENDBRANCH   1   5
BRANCH   3  18
ATOM     18  C   UNL     1       2.299   6.014  20.625  0.00  0.00    +0.000 C 
BRANCH  18  19
ATOM     19  C   UNL     1       2.089   7.209  19.745  0.00  0.00    +0.000 A 
ATOM     20  C   UNL     1       2.552   7.202  18.427  0.00  0.00    +0.000 A 
ATOM     21  C   UNL     1       2.371   8.317  17.622  0.00  0.00    +0.000 A 
ATOM     22  C   UNL     1       1.722   9.437  18.131  0.00  0.00    +0.000 A 
ATOM     23  C   UNL     1       1.243   9.453  19.453  0.00  0.00    +0.000 A 
ATOM     24  C   UNL     1       0.624  10.589  19.991  0.00  0.00    +0.000 A 
ATOM     25  C   UNL     1       0.169  10.583  21.302  0.00  0.00    +0.000 A 
ATOM     26  C   UNL     1       0.361   9.439  22.048  0.00  0.00    +0.000 A 
ATOM     27  N   UNL     1       0.982   8.346  21.571  0.00  0.00    +0.000 NA
ATOM     28  C   UNL     1       1.419   8.328  20.285  0.00  0.00    +0.000 A 
ENDBRANCH  18  19
ENDBRANCH   3  18
TORSDOF 5
ENDMDL
MODEL 4
REMARK VINA RESULT:      -7.9      1.128      1.900
REMARK  Name = 
REMARK  6 active torsions:
REMARK  status: ('A' for Active; 'I' for Inactive)
REMARK    1  A    between atoms: C_1  and  N_2
REMARK    2  A    between atoms: N_2  and  C_3
REMARK    3  A    between atoms: N_2  and  C_18
REMARK    4  A    between atoms: C_3  and  C_4
REMARK    5  A    between atoms: N_6  and  C_7
REMARK    6  A    between atoms: C_7  and  C_8
REMARK                            x       y       z     vdW  Elec       q    Type
REMARK                         _______ _______ _______ _____ _____    ______ ____
ROOT
ATOM      1  C   UNL     1       1.916   5.105  20.253  0.00  0.00    +0.000 C 
ATOM      2  O   UNL     1       1.503   4.270  21.056  0.00  0.00    +0.000 OA
ATOM      3  N   UNL     1       2.017   6.436  20.608  0.00  0.00    +0.000 N 
ATOM      4  H   UNL     1       1.996   6.630  21.603  0.00  0.00    +0.000 HD
ENDROOT
BRANCH   1   5
ATOM      5  C   UNL     1       2.291   4.758  18.807  0.00  0.00    +0.000 C 
BRANCH   5   7
ATOM      6  C   UNL     1       4.007   2.836  18.645  0.00  0.00    +0.000 C 
ATOM      7  N   UNL     1       3.678   4.257  18.619  0.00  0.00    +0.000 N 
BRANCH   7   8
ATOM      8  C   UNL     1       4.610   5.047  17.934  0.00  0.00    +0.000 A 
ATOM      9  N   UNL     1       4.326   5.445  16.662  0.00  0.00    +0.000 NA
ATOM     10  C   UNL     1       5.236   6.176  15.975  0.00  0.00    +0.000 A 
ATOM     11  N   UNL     1       6.438   6.573  16.381  0.00  0.00    +0.000 NA
ATOM     12  C   UNL     1       6.727   6.154  17.629  0.00  0.00    +0.000 A 
ATOM     13  N   UNL     1       7.919   6.367  18.267  0.00  0.00    +0.000 NA
ATOM     14  C   UNL     1       7.787   5.746  19.427  0.00  0.00    +0.000 A 
ATOM     15  N   UNL     1       6.563   5.159  19.548  0.00  0.00    +0.000 N 
ATOM     16  C   UNL     1       5.851   5.408  18.400  0.00  0.00    +0.000 A 
ATOM     17  H   UNL     1       6.274   4.588  20.322  0.00  0.00    +0.000 HD
ENDBRANCH   7   8
ENDBRANCH   5   7
ENDBRANCH   1   5
BRANCH   3  18
ATOM     18  C   UNL     1       2.454   7.467  19.681  0.00  0.00    +0.000 C 
BRANCH  18  19
ATOM     19  C   UNL     1       1.473   8.578  19.451  0.00  0.00    +0.000 A 
ATOM     20  C   UNL     1       1.204   9.019  18.154  0.00  0.00    +0.000 A 
ATOM     21  C   UNL     1       0.309  10.060  17.947  0.00  0.00    +0.000 A 
ATOM     22  C   UNL     1      -0.321  10.654  19.035  0.00  0.00    +0.000 A 
ATOM     23  C   UNL     1      -0.065  10.212  20.345  0.00  0.00    +0.000 A 
ATOM     24  C   UNL     1      -0.663  10.828  21.453  0.00  0.00    +0.000 A 
ATOM     25  C   UNL     1      -0.386  10.378  22.736  0.00  0.00    +0.000 A 
ATOM     26  C   UNL     1       0.498   9.329  22.878  0.00  0.00    +0.000 A 
ATOM     27  N   UNL     1       1.113   8.740  21.837  0.00  0.00    +0.000 NA
ATOM     28  C   UNL     1       0.842   9.156  20.573  0.00  0.00    +0.000 A 
ENDBRANCH  18  19
ENDBRANCH   3  18
TORSDOF 5
ENDMDL
MODEL 5
REMARK VINA RESULT:      -7.8      1.181      2.033
REMARK  Name = 
REMARK  6 active torsions:
REMARK  status: ('A' for Active; 'I' for Inactive)
REMARK    1  A    between atoms: C_1  and  N_2
REMARK    2  A    between atoms: N_2  and  C_3
REMARK    3  A    between atoms: N_2  and  C_18
REMARK    4  A    between atoms: C_3  and  C_4
REMARK    5  A    between atoms: N_6  and  C_7
REMARK    6  A    between atoms: C_7  and  C_8
REMARK                            x       y       z     vdW  Elec       q    Type
REMARK                         _______ _______ _______ _____ _____    ______ ____
ROOT
ATOM      1  C   UNL     1       1.831   4.382  18.781  0.00  0.00    +0.000 C 
ATOM      2  O   UNL     1       1.033   3.447  18.833  0.00  0.00    +0.000 OA
ATOM      3  N   UNL     1       1.919   5.293  19.815  0.00  0.00    +0.000 N 
ATOM      4  H   UNL     1       1.507   5.003  20.695  0.00  0.00    +0.000 HD
ENDROOT
BRANCH   1   5
ATOM      5  C   UNL     1       2.734   4.641  17.569  0.00  0.00    +0.000 C 
BRANCH   5   7
ATOM      6  C   UNL     1       4.118   2.499  17.971  0.00  0.00    +0.000 C 
ATOM      7  N   UNL     1       4.022   3.900  17.574  0.00  0.00    +0.000 N 
BRANCH   7   8
ATOM      8  C   UNL     1       5.071   4.334  16.752  0.00  0.00    +0.000 A 
ATOM      9  N   UNL     1       5.370   3.617  15.633  0.00  0.00    +0.000 NA
ATOM     10  C   UNL     1       6.406   4.003  14.852  0.00  0.00    +0.000 A 
ATOM     11  N   UNL     1       7.227   5.033  15.036  0.00  0.00    +0.000 NA
ATOM     12  C   UNL     1       6.946   5.724  16.159  0.00  0.00    +0.000 A 
ATOM     13  N   UNL     1       7.671   6.789  16.621  0.00  0.00    +0.000 NA
ATOM     14  C   UNL     1       7.084   7.117  17.760  0.00  0.00    +0.000 A 
ATOM     15  N   UNL     1       6.020   6.309  18.030  0.00  0.00    +0.000 N 
ATOM     16  C   UNL     1       5.903   5.397  17.009  0.00  0.00    +0.000 A 
ATOM     17  H   UNL     1       5.470   6.345  18.869  0.00  0.00    +0.000 HD
ENDBRANCH   7   8
ENDBRANCH   5   7
ENDBRANCH   1   5
BRANCH   3  18
ATOM     18  C   UNL     1       2.813   6.439  19.781  0.00  0.00    +0.000 C 
BRANCH  18  19
ATOM     19  C   UNL     1       2.193   7.718  19.303  0.00  0.00    +0.000 A 
ATOM     20  C   UNL     1       2.394   8.148  17.989  0.00  0.00    +0.000 A 
ATOM     21  C   UNL     1       1.834   9.341  17.556  0.00  0.00    +0.000 A 
ATOM     22  C   UNL     1       1.068  10.102  18.434  0.00  0.00    +0.000 A 
ATOM     23  C   UNL     1       0.852   9.675  19.756  0.00  0.00    +0.000 A 
ATOM     24  C   UNL     1       0.116  10.451  20.662  0.00  0.00    +0.000 A 
ATOM     25  C   UNL     1      -0.075  10.012  21.964  0.00  0.00    +0.000 A 
ATOM     26  C   UNL     1       0.491   8.809  22.331  0.00  0.00    +0.000 A 
ATOM     27  N   UNL     1       1.230   8.059  21.495  0.00  0.00    +0.000 NA
ATOM     28  C   UNL     1       1.414   8.464  20.212  0.00  0.00    +0.000 A 
ENDBRANCH  18  19
ENDBRANCH   3  18
TORSDOF 5
ENDMDL
MODEL 6
REMARK VINA RESULT:      -7.6      0.971      1.100
REMARK  Name = 
REMARK  6 active torsions:
REMARK  status: ('A' for Active; 'I' for Inactive)
REMARK    1  A    between atoms: C_1  and  N_2
REMARK    2  A    between atoms: N_2  and  C_3
REMARK    3  A    between atoms: N_2  and  C_18
REMARK    4  A    between atoms: C_3  and  C_4
REMARK    5  A    between atoms: N_6  and  C_7
REMARK    6  A    between atoms: C_7  and  C_8
REMARK                            x       y       z     vdW  Elec       q    Type
REMARK                         _______ _______ _______ _____ _____    ______ ____
ROOT
ATOM      1  C   UNL     1       2.479   4.439  20.103  0.00  0.00    +0.000 C 
ATOM      2  O   UNL     1       1.778   3.451  20.316  0.00  0.00    +0.000 OA
ATOM      3  N   UNL     1       1.941   5.710  20.154  0.00  0.00    +0.000 N 
ATOM      4  H   UNL     1       1.048   5.792  20.628  0.00  0.00    +0.000 HD
ENDROOT
BRANCH   1   5
ATOM      5  C   UNL     1       3.959   4.343  19.713  0.00  0.00    +0.000 C 
BRANCH   5   7
ATOM      6  C   UNL     1       3.170   3.952  17.287  0.00  0.00    +0.000 C 
ATOM      7  N   UNL     1       4.221   4.253  18.253  0.00  0.00    +0.000 N 
BRANCH   7   8
ATOM      8  C   UNL     1       5.324   4.923  17.708  0.00  0.00    +0.000 A 
ATOM      9  N   UNL     1       5.873   5.960  18.400  0.00  0.00    +0.000 NA
ATOM     10  C   UNL     1       6.915   6.640  17.866  0.00  0.00    +0.000 A 
ATOM     11  N   UNL     1       7.504   6.438  16.691  0.00  0.00    +0.000 NA
ATOM     12  C   UNL     1       6.941   5.429  15.996  0.00  0.00    +0.000 A 
ATOM     13  N   UNL     1       7.310   5.051  14.734  0.00  0.00    +0.000 NA
ATOM     14  C   UNL     1       6.471   4.077  14.424  0.00  0.00    +0.000 A 
ATOM     15  N   UNL     1       5.596   3.824  15.438  0.00  0.00    +0.000 N 
ATOM     16  C   UNL     1       5.877   4.682  16.473  0.00  0.00    +0.000 A 
ATOM     17  H   UNL     1       4.838   3.165  15.392  0.00  0.00    +0.000 HD
ENDBRANCH   7   8
ENDBRANCH   5   7
ENDBRANCH   1   5
BRANCH   3  18
ATOM     18  C   UNL     1       2.716   6.905  19.864  0.00  0.00    +0.000 C 
BRANCH  18  19
ATOM     19  C   UNL     1       1.915   8.098  19.437  0.00  0.00    +0.000 A 
ATOM     20  C   UNL     1       1.899   8.490  18.096  0.00  0.00    +0.000 A 
ATOM     21  C   UNL     1       1.171   9.606  17.708  0.00  0.00    +0.000 A 
ATOM     22  C   UNL     1       0.453  10.325  18.657  0.00  0.00    +0.000 A 
ATOM     23  C   UNL     1       0.454   9.935  20.008  0.00  0.00    +0.000 A 
ATOM     24  C   UNL     1      -0.232  10.674  20.981  0.00  0.00    +0.000 A 
ATOM     25  C   UNL     1      -0.208  10.273  22.309  0.00  0.00    +0.000 A 
ATOM     26  C   UNL     1       0.519   9.146  22.632  0.00  0.00    +0.000 A 
ATOM     27  N   UNL     1       1.215   8.436  21.727  0.00  0.00    +0.000 NA
ATOM     28  C   UNL     1       1.189   8.804  20.420  0.00  0.00    +0.000 A 
ENDBRANCH  18  19
ENDBRANCH   3  18
TORSDOF 5
ENDMDL
MODEL 7
REMARK VINA RESULT:      -7.6      3.187      8.453
REMARK  Name = 
REMARK  6 active torsions:
REMARK  status: ('A' for Active; 'I' for Inactive)
REMARK    1  A    between atoms: C_1  and  N_2
REMARK    2  A    between atoms: N_2  and  C_3
REMARK    3  A    between atoms: N_2  and  C_18
REMARK    4  A    between atoms: C_3  and  C_4
REMARK    5  A    between atoms: N_6  and  C_7
REMARK    6  A    between atoms: C_7  and  C_8
REMARK                            x       y       z     vdW  Elec       q    Type
REMARK                         _______ _______ _______ _____ _____    ______ ____
ROOT
ATOM      1  C   UNL     1       1.011   8.845  21.103  0.00  0.00    +0.000 C 
ATOM      2  O   UNL     1       0.590   9.302  22.164  0.00  0.00    +0.000 OA
ATOM      3  N   UNL     1       1.705   7.651  21.074  0.00  0.00    +0.000 N 
ATOM      4  H   UNL     1       1.608   7.065  21.896  0.00  0.00    +0.000 HD
ENDROOT
BRANCH   1   5
ATOM      5  C   UNL     1       0.857   9.574  19.762  0.00  0.00    +0.000 C 
BRANCH   5   7
ATOM      6  C   UNL     1       1.401  12.097  19.776  0.00  0.00    +0.000 C 
ATOM      7  N   UNL     1       0.445  10.998  19.864  0.00  0.00    +0.000 N 
BRANCH   7   8
ATOM      8  C   UNL     1      -0.872  11.359  19.551  0.00  0.00    +0.000 A 
ATOM      9  N   UNL     1      -1.599  12.055  20.469  0.00  0.00    +0.000 NA
ATOM     10  C   UNL     1      -2.885  12.376  20.195  0.00  0.00    +0.000 A 
ATOM     11  N   UNL     1      -3.584  12.083  19.101  0.00  0.00    +0.000 NA
ATOM     12  C   UNL     1      -2.870  11.371  18.207  0.00  0.00    +0.000 A 
ATOM     13  N   UNL     1      -3.363  10.884  17.027  0.00  0.00    +0.000 NA
ATOM     14  C   UNL     1      -2.353  10.211  16.502  0.00  0.00    +0.000 A 
ATOM     15  N   UNL     1      -1.248  10.259  17.296  0.00  0.00    +0.000 N 
ATOM     16  C   UNL     1      -1.550  11.006  18.409  0.00  0.00    +0.000 A 
ATOM     17  H   UNL     1      -0.389   9.769  17.117  0.00  0.00    +0.000 HD
ENDBRANCH   7   8
ENDBRANCH   5   7
ENDBRANCH   1   5
BRANCH   3  18
ATOM     18  C   UNL     1       2.263   7.094  19.853  0.00  0.00    +0.000 C 
BRANCH  18  19
ATOM     19  C   UNL     1       2.137   5.607  19.713  0.00  0.00    +0.000 A 
ATOM     20  C   UNL     1       1.276   4.893  20.550  0.00  0.00    +0.000 A 
ATOM     21  C   UNL     1       1.177   3.514  20.429  0.00  0.00    +0.000 A 
ATOM     22  C   UNL     1       1.932   2.850  19.469  0.00  0.00    +0.000 A 
ATOM     23  C   UNL     1       2.796   3.558  18.616  0.00  0.00    +0.000 A 
ATOM     24  C   UNL     1       3.593   2.897  17.671  0.00  0.00    +0.000 A 
ATOM     25  C   UNL     1       4.444   3.619  16.847  0.00  0.00    +0.000 A 
ATOM     26  C   UNL     1       4.487   4.989  17.001  0.00  0.00    +0.000 A 
ATOM     27  N   UNL     1       3.760   5.648  17.921  0.00  0.00    +0.000 NA
ATOM     28  C   UNL     1       2.909   4.960  18.725  0.00  0.00    +0.000 A 
ENDBRANCH  18  19
ENDBRANCH   3  18
TORSDOF 5
ENDMDL
MODEL 8
REMARK VINA RESULT:      -7.6      1.004      1.965
REMARK  Name = 
REMARK  6 active torsions:
REMARK  status: ('A' for Active; 'I' for Inactive)
REMARK    1  A    between atoms: C_1  and  N_2
REMARK    2  A    between atoms: N_2  and  C_3
REMARK    3  A    between atoms: N_2  and  C_18
REMARK    4  A    between atoms: C_3  and  C_4
REMARK    5  A    between atoms: N_6  and  C_7
REMARK    6  A    between atoms: C_7  and  C_8
REMARK                            x       y       z     vdW  Elec       q    Type
REMARK                         _______ _______ _______ _____ _____    ______ ____
ROOT
ATOM      1  C   UNL     1       1.886   4.624  18.262  0.00  0.00    +0.000 C 
ATOM      2  O   UNL     1       1.328   3.893  17.444  0.00  0.00    +0.000 OA
ATOM      3  N   UNL     1       1.720   5.994  18.212  0.00  0.00    +0.000 N 
ATOM      4  H   UNL     1       0.933   6.324  17.665  0.00  0.00    +0.000 HD
ENDROOT
BRANCH   1   5
ATOM      5  C   UNL     1       2.835   4.093  19.343  0.00  0.00    +0.000 C 
BRANCH   5   7
ATOM      6  C   UNL     1       3.853   1.782  18.807  0.00  0.00    +0.000 C 
ATOM      7  N   UNL     1       3.943   3.238  18.842  0.00  0.00    +0.000 N 
BRANCH   7   8
ATOM      8  C   UNL     1       4.878   3.775  17.948  0.00  0.00    +0.000 A 
ATOM      9  N   UNL     1       4.802   3.433  16.632  0.00  0.00    +0.000 NA
ATOM     10  C   UNL     1       5.724   3.915  15.764  0.00  0.00    +0.000 A 
ATOM     11  N   UNL     1       6.758   4.707  16.030  0.00  0.00    +0.000 NA
ATOM     12  C   UNL     1       6.847   5.021  17.338  0.00  0.00    +0.000 A 
ATOM     13  N   UNL     1       7.850   5.768  17.894  0.00  0.00    +0.000 NA
ATOM     14  C   UNL     1       7.574   5.778  19.187  0.00  0.00    +0.000 A 
ATOM     15  N   UNL     1       6.440   5.075  19.466  0.00  0.00    +0.000 N 
ATOM     16  C   UNL     1       5.944   4.575  18.287  0.00  0.00    +0.000 A 
ATOM     17  H   UNL     1       6.082   4.905  20.389  0.00  0.00    +0.000 HD
ENDBRANCH   7   8
ENDBRANCH   5   7
ENDBRANCH   1   5
BRANCH   3  18
ATOM     18  C   UNL     1       2.395   6.902  19.125  0.00  0.00    +0.000 C 
BRANCH  18  19
ATOM     19  C   UNL     1       1.959   8.334  19.039  0.00  0.00    +0.000 A 
ATOM     20  C   UNL     1       2.270   9.097  17.911  0.00  0.00    +0.000 A 
ATOM     21  C   UNL     1       1.881  10.427  17.844  0.00  0.00    +0.000 A 
ATOM     22  C   UNL     1       1.176  10.993  18.901  0.00  0.00    +0.000 A 
ATOM     23  C   UNL     1       0.849  10.233  20.038  0.00  0.00    +0.000 A 
ATOM     24  C   UNL     1       0.174  10.802  21.126  0.00  0.00    +0.000 A 
ATOM     25  C   UNL     1      -0.128  10.032  22.241  0.00  0.00    +0.000 A 
ATOM     26  C   UNL     1       0.269   8.712  22.242  0.00  0.00    +0.000 A 
ATOM     27  N   UNL     1       0.947   8.146  21.228  0.00  0.00    +0.000 NA
ATOM     28  C   UNL     1       1.237   8.880  20.122  0.00  0.00    +0.000 A 
ENDBRANCH  18  19
ENDBRANCH   3  18
TORSDOF 5
ENDMDL
MODEL 9
REMARK VINA RESULT:      -7.6      1.155      2.011
REMARK  Name = 
REMARK  6 active torsions:
REMARK  status: ('A' for Active; 'I' for Inactive)
REMARK    1  A    between atoms: C_1  and  N_2
REMARK    2  A    between atoms: N_2  and  C_3
REMARK    3  A    between atoms: N_2  and  C_18
REMARK    4  A    between atoms: C_3  and  C_4
REMARK    5  A    between atoms: N_6  and  C_7
REMARK    6  A    between atoms: C_7  and  C_8
REMARK                            x       y       z     vdW  Elec       q    Type
REMARK                         _______ _______ _______ _____ _____    ______ ____
ROOT
ATOM      1  C   UNL     1       1.739   3.412  20.081  0.00  0.00    +0.000 C 
ATOM      2  O   UNL     1       1.025   2.510  19.642  0.00  0.00    +0.000 OA
ATOM      3  N   UNL     1       1.410   4.737  19.874  0.00  0.00    +0.000 N 
ATOM      4  H   UNL     1       0.451   4.915  19.596  0.00  0.00    +0.000 HD
ENDROOT
BRANCH   1   5
ATOM      5  C   UNL     1       3.053   3.146  20.827  0.00  0.00    +0.000 C 
BRANCH   5   7
ATOM      6  C   UNL     1       4.740   1.435  19.884  0.00  0.00    +0.000 C 
ATOM      7  N   UNL     1       4.207   2.791  19.960  0.00  0.00    +0.000 N 
BRANCH   7   8
ATOM      8  C   UNL     1       4.501   3.585  18.844  0.00  0.00    +0.000 A 
ATOM      9  N   UNL     1       3.746   3.442  17.718  0.00  0.00    +0.000 NA
ATOM     10  C   UNL     1       4.045   4.175  16.620  0.00  0.00    +0.000 A 
ATOM     11  N   UNL     1       5.032   5.054  16.469  0.00  0.00    +0.000 NA
ATOM     12  C   UNL     1       5.793   5.172  17.575  0.00  0.00    +0.000 A 
ATOM     13  N   UNL     1       6.909   5.957  17.673  0.00  0.00    +0.000 NA
ATOM     14  C   UNL     1       7.366   5.729  18.892  0.00  0.00    +0.000 A 
ATOM     15  N   UNL     1       6.583   4.841  19.566  0.00  0.00    +0.000 N 
ATOM     16  C   UNL     1       5.552   4.463  18.739  0.00  0.00    +0.000 A 
ATOM     17  H   UNL     1       6.779   4.482  20.484  0.00  0.00    +0.000 HD
ENDBRANCH   7   8
ENDBRANCH   5   7
ENDBRANCH   1   5
BRANCH   3  18
ATOM     18  C   UNL     1       2.244   5.836  20.330  0.00  0.00    +0.000 C 
BRANCH  18  19
ATOM     19  C   UNL     1       2.082   7.119  19.572  0.00  0.00    +0.000 A 
ATOM     20  C   UNL     1       2.570   7.230  18.267  0.00  0.00    +0.000 A 
ATOM     21  C   UNL     1       2.434   8.425  17.576  0.00  0.00    +0.000 A 
ATOM     22  C   UNL     1       1.806   9.507  18.184  0.00  0.00    +0.000 A 
ATOM     23  C   UNL     1       1.303   9.404  19.493  0.00  0.00    +0.000 A 
ATOM     24  C   UNL     1       0.704  10.498  20.133  0.00  0.00    +0.000 A 
ATOM     25  C   UNL     1       0.224  10.373  21.429  0.00  0.00    +0.000 A 
ATOM     26  C   UNL     1       0.372   9.155  22.059  0.00  0.00    +0.000 A 
ATOM     27  N   UNL     1       0.972   8.098  21.485  0.00  0.00    +0.000 NA
ATOM     28  C   UNL     1       1.433   8.196  20.211  0.00  0.00    +0.000 A 
ENDBRANCH  18  19
ENDBRANCH   3  18
TORSDOF 5
ENDMDL
