MODEL 1
REMARK VINA RESULT:      -7.0      0.000      0.000
REMARK  Name = 
REMARK  5 active torsions:
REMARK  status: ('A' for Active; 'I' for Inactive)
REMARK    1  A    between atoms: C_1  and  C_2
REMARK    2  A    between atoms: C_2  and  C_3
REMARK    3  A    between atoms: C_2  and  N_4
REMARK    4  A    between atoms: C_8  and  C_9
REMARK    5  A    between atoms: C_14  and  N_15
REMARK                            x       y       z     vdW  Elec       q    Type
REMARK                         _______ _______ _______ _____ _____    ______ ____
ROOT
ATOM      1  N   UNL     1      -1.189  12.319  23.165  0.00  0.00    +0.000 N 
ATOM      2  C   UNL     1      -0.684  11.146  22.645  0.00  0.00    +0.000 C 
ATOM      3  O   UNL     1      -0.102  10.354  23.382  0.00  0.00    +0.000 OA
ATOM      4  N   UNL     1      -0.771  10.968  21.265  0.00  0.00    +0.000 N 
ATOM      5  C   UNL     1      -0.305   9.665  20.698  0.00  0.00    +0.000 C 
ATOM      6  C   UNL     1       0.195   9.795  19.241  0.00  0.00    +0.000 C 
ATOM      7  C   UNL     1      -0.948  10.385  18.448  0.00  0.00    +0.000 A 
ATOM      8  C   UNL     1      -1.498   9.799  17.314  0.00  0.00    +0.000 A 
ATOM      9  C   UNL     1      -2.735  10.247  16.860  0.00  0.00    +0.000 A 
ATOM     10  F   UNL     1      -3.310   9.636  15.814  0.00  0.00    +0.000 F 
ATOM     11  C   UNL     1      -3.414  11.279  17.498  0.00  0.00    +0.000 A 
ATOM     12  C   UNL     1      -2.825  11.930  18.578  0.00  0.00    +0.000 A 
ATOM     13  C   UNL     1      -1.584  11.496  19.049  0.00  0.00    +0.000 A 
ATOM     14  C   UNL     1      -0.923  12.036  20.283  0.00  0.00    +0.000 C 
ATOM     15  H   UNL     1      -0.736  12.592  24.028  0.00  0.00    +0.000 HD
ENDROOT
BRANCH   1  21
ATOM     16  C   UNL     1      -2.257  14.414  22.494  0.00  0.00    +0.000 A 
ATOM     17  C   UNL     1      -3.431  15.097  22.112  0.00  0.00    +0.000 A 
ATOM     18  C   UNL     1      -4.634  14.427  21.924  0.00  0.00    +0.000 A 
ATOM     19  C   UNL     1      -4.725  13.077  22.234  0.00  0.00    +0.000 A 
ATOM     20  C   UNL     1      -3.603  12.411  22.736  0.00  0.00    +0.000 A 
ATOM     21  C   UNL     1      -2.355  13.045  22.818  0.00  0.00    +0.000 A 
BRANCH  16  26
ATOM     22  N   UNL     1      -0.427  15.721  21.283  0.00  0.00    +0.000 N 
ATOM     23  N   UNL     1       0.766  16.262  21.601  0.00  0.00    +0.000 NA
ATOM     24  N   UNL     1       0.976  15.935  22.862  0.00  0.00    +0.000 NA
ATOM     25  N   UNL     1      -0.066  15.220  23.370  0.00  0.00    +0.000 NA
ATOM     26  C   UNL     1      -0.969  15.112  22.407  0.00  0.00    +0.000 A 
BRANCH  22  28
ATOM     27  C   UNL     1      -1.443  17.123  19.504  0.00  0.00    +0.000 C 
ATOM     28  C   UNL     1      -0.911  15.743  19.907  0.00  0.00    +0.000 C 
ATOM     29  C   UNL     1       0.137  15.285  18.890  0.00  0.00    +0.000 C 
ENDBRANCH  22  28
ENDBRANCH  16  26
ENDBRANCH   1  21
TORSDOF 3
ENDMDL
MODEL 2
REMARK VINA RESULT:      -6.7      1.386      2.347
REMARK  Name = 
REMARK  5 active torsions:
REMARK  status: ('A' for Active; 'I' for Inactive)
REMARK    1  A    between atoms: C_1  and  C_2
REMARK    2  A    between atoms: C_2  and  C_3
REMARK    3  A    between atoms: C_2  and  N_4
REMARK    4  A    between atoms: C_8  and  C_9
REMARK    5  A    between atoms: C_14  and  N_15
REMARK                            x       y       z     vdW  Elec       q    Type
REMARK                         _______ _______ _______ _____ _____    ______ ____
ROOT
ATOM      1  N   UNL     1      -1.178  12.168  23.348  0.00  0.00    +0.000 N 
ATOM      2  C   UNL     1      -0.689  11.013  22.775  0.00  0.00    +0.000 C 
ATOM      3  O   UNL     1      -0.121  10.179  23.476  0.00  0.00    +0.000 OA
ATOM      4  N   UNL     1      -0.776  10.899  21.388  0.00  0.00    +0.000 N 
ATOM      5  C   UNL     1      -0.329   9.616  20.764  0.00  0.00    +0.000 C 
ATOM      6  C   UNL     1       0.176   9.805  19.315  0.00  0.00    +0.000 C 
ATOM      7  C   UNL     1      -0.957  10.448  18.548  0.00  0.00    +0.000 A 
ATOM      8  C   UNL     1      -1.513   9.922  17.387  0.00  0.00    +0.000 A 
ATOM      9  C   UNL     1      -2.743  10.408  16.953  0.00  0.00    +0.000 A 
ATOM     10  F   UNL     1      -3.324   9.855  15.879  0.00  0.00    +0.000 F 
ATOM     11  C   UNL     1      -3.407  11.421  17.636  0.00  0.00    +0.000 A 
ATOM     12  C   UNL     1      -2.811  12.013  18.746  0.00  0.00    +0.000 A 
ATOM     13  C   UNL     1      -1.577  11.540  19.198  0.00  0.00    +0.000 A 
ATOM     14  C   UNL     1      -0.911  12.013  20.456  0.00  0.00    +0.000 C 
ATOM     15  H   UNL     1      -0.723  12.395  24.223  0.00  0.00    +0.000 HD
ENDROOT
BRANCH   1  21
ATOM     16  C   UNL     1      -2.264  14.336  23.024  0.00  0.00    +0.000 A 
ATOM     17  C   UNL     1      -3.420  15.059  22.665  0.00  0.00    +0.000 A 
ATOM     18  C   UNL     1      -4.563  14.420  22.199  0.00  0.00    +0.000 A 
ATOM     19  C   UNL     1      -4.624  13.034  22.199  0.00  0.00    +0.000 A 
ATOM     20  C   UNL     1      -3.533  12.298  22.672  0.00  0.00    +0.000 A 
ATOM     21  C   UNL     1      -2.332  12.927  23.032  0.00  0.00    +0.000 A 
BRANCH  16  26
ATOM     22  N   UNL     1      -0.691  15.876  24.320  0.00  0.00    +0.000 N 
ATOM     23  N   UNL     1       0.555  16.362  24.162  0.00  0.00    +0.000 NA
ATOM     24  N   UNL     1       0.961  15.914  22.989  0.00  0.00    +0.000 NA
ATOM     25  N   UNL     1       0.015  15.131  22.401  0.00  0.00    +0.000 NA
ATOM     26  C   UNL     1      -1.009  15.064  23.239  0.00  0.00    +0.000 A 
BRANCH  22  28
ATOM     27  C   UNL     1      -0.713  16.430  26.740  0.00  0.00    +0.000 C 
ATOM     28  C   UNL     1      -1.520  16.302  25.443  0.00  0.00    +0.000 C 
ATOM     29  C   UNL     1      -2.269  17.611  25.178  0.00  0.00    +0.000 C 
ENDBRANCH  22  28
ENDBRANCH  16  26
ENDBRANCH   1  21
TORSDOF 3
ENDMDL
MODEL 3
REMARK VINA RESULT:      -6.6      5.217      7.579
REMARK  Name = 
REMARK  5 active torsions:
REMARK  status: ('A' for Active; 'I' for Inactive)
REMARK    1  A    between atoms: C_1  and  C_2
REMARK    2  A    between atoms: C_2  and  C_3
REMARK    3  A    between atoms: C_2  and  N_4
REMARK    4  A    between atoms: C_8  and  C_9
REMARK    5  A    between atoms: C_14  and  N_15
REMARK                            x       y       z     vdW  Elec       q    Type
REMARK                         _______ _______ _______ _____ _____    ______ ____
ROOT
ATOM      1  N   UNL     1       1.619   6.943  20.619  0.00  0.00    +0.000 N 
ATOM      2  C   UNL     1       1.939   5.616  20.429  0.00  0.00    +0.000 C 
ATOM      3  O   UNL     1       1.326   4.748  21.046  0.00  0.00    +0.000 OA
ATOM      4  N   UNL     1       3.031   5.331  19.610  0.00  0.00    +0.000 N 
ATOM      5  C   UNL     1       3.336   3.895  19.328  0.00  0.00    +0.000 C 
ATOM      6  C   UNL     1       4.835   3.651  19.037  0.00  0.00    +0.000 C 
ATOM      7  C   UNL     1       5.196   4.550  17.877  0.00  0.00    +0.000 A 
ATOM      8  C   UNL     1       5.761   4.102  16.688  0.00  0.00    +0.000 A 
ATOM      9  C   UNL     1       5.750   4.947  15.581  0.00  0.00    +0.000 A 
ATOM     10  F   UNL     1       6.223   4.497  14.409  0.00  0.00    +0.000 F 
ATOM     11  C   UNL     1       5.214   6.228  15.648  0.00  0.00    +0.000 A 
ATOM     12  C   UNL     1       4.731   6.713  16.860  0.00  0.00    +0.000 A 
ATOM     13  C   UNL     1       4.733   5.882  17.983  0.00  0.00    +0.000 A 
ATOM     14  C   UNL     1       4.116   6.254  19.299  0.00  0.00    +0.000 C 
ATOM     15  H   UNL     1       1.153   7.112  21.501  0.00  0.00    +0.000 HD
ENDROOT
BRANCH   1  21
ATOM     16  C   UNL     1       1.207   9.303  20.126  0.00  0.00    +0.000 A 
ATOM     17  C   UNL     1       1.269  10.367  19.201  0.00  0.00    +0.000 A 
ATOM     18  C   UNL     1       1.851  10.210  17.949  0.00  0.00    +0.000 A 
ATOM     19  C   UNL     1       2.274   8.953  17.540  0.00  0.00    +0.000 A 
ATOM     20  C   UNL     1       2.104   7.860  18.395  0.00  0.00    +0.000 A 
ATOM     21  C   UNL     1       1.629   8.025  19.704  0.00  0.00    +0.000 A 
BRANCH  16  26
ATOM     22  N   UNL     1      -0.030  10.578  21.962  0.00  0.00    +0.000 N 
ATOM     23  N   UNL     1      -0.114  10.525  23.306  0.00  0.00    +0.000 NA
ATOM     24  N   UNL     1       0.730   9.580  23.674  0.00  0.00    +0.000 NA
ATOM     25  N   UNL     1       1.335   9.006  22.598  0.00  0.00    +0.000 NA
ATOM     26  C   UNL     1       0.841   9.592  21.517  0.00  0.00    +0.000 A 
BRANCH  22  28
ATOM     27  C   UNL     1      -2.107  11.924  21.774  0.00  0.00    +0.000 C 
ATOM     28  C   UNL     1      -0.711  11.629  21.214  0.00  0.00    +0.000 C 
ATOM     29  C   UNL     1       0.091  12.931  21.134  0.00  0.00    +0.000 C 
ENDBRANCH  22  28
ENDBRANCH  16  26
ENDBRANCH   1  21
TORSDOF 3
ENDMDL
MODEL 4
REMARK VINA RESULT:      -6.5      2.370      3.319
REMARK  Name = 
REMARK  5 active torsions:
REMARK  status: ('A' for Active; 'I' for Inactive)
REMARK    1  A    between atoms: C_1  and  C_2
REMARK    2  A    between atoms: C_2  and  C_3
REMARK    3  A    between atoms: C_2  and  N_4
REMARK    4  A    between atoms: C_8  and  C_9
REMARK    5  A    between atoms: C_14  and  N_15
REMARK                            x       y       z     vdW  Elec       q    Type
REMARK                         _______ _______ _______ _____ _____    ______ ____
ROOT
ATOM      1  N   UNL     1       0.850  11.130  19.877  0.00  0.00    +0.000 N 
ATOM      2  C   UNL     1       0.331  10.343  18.871  0.00  0.00    +0.000 C 
ATOM      3  O   UNL     1       1.002   9.424  18.408  0.00  0.00    +0.000 OA
ATOM      4  N   UNL     1      -0.912  10.705  18.351  0.00  0.00    +0.000 N 
ATOM      5  C   UNL     1      -1.524   9.812  17.320  0.00  0.00    +0.000 C 
ATOM      6  C   UNL     1      -2.465  10.573  16.358  0.00  0.00    +0.000 C 
ATOM      7  C   UNL     1      -3.507  11.245  17.222  0.00  0.00    +0.000 A 
ATOM      8  C   UNL     1      -4.878  11.071  17.072  0.00  0.00    +0.000 A 
ATOM      9  C   UNL     1      -5.722  11.467  18.106  0.00  0.00    +0.000 A 
ATOM     10  F   UNL     1      -7.038  11.233  18.004  0.00  0.00    +0.000 F 
ATOM     11  C   UNL     1      -5.226  12.055  19.265  0.00  0.00    +0.000 A 
ATOM     12  C   UNL     1      -3.863  12.315  19.380  0.00  0.00    +0.000 A 
ATOM     13  C   UNL     1      -3.000  11.925  18.353  0.00  0.00    +0.000 A 
ATOM     14  C   UNL     1      -1.506  12.035  18.432  0.00  0.00    +0.000 C 
ATOM     15  H   UNL     1       1.861  11.111  19.907  0.00  0.00    +0.000 HD
ENDROOT
BRANCH   1  21
ATOM     16  C   UNL     1       0.498  13.092  21.294  0.00  0.00    +0.000 A 
ATOM     17  C   UNL     1      -0.191  13.690  22.369  0.00  0.00    +0.000 A 
ATOM     18  C   UNL     1      -1.227  13.036  23.024  0.00  0.00    +0.000 A 
ATOM     19  C   UNL     1      -1.518  11.717  22.703  0.00  0.00    +0.000 A 
ATOM     20  C   UNL     1      -0.761  11.065  21.726  0.00  0.00    +0.000 A 
ATOM     21  C   UNL     1       0.207  11.749  20.976  0.00  0.00    +0.000 A 
BRANCH  16  26
ATOM     22  N   UNL     1       1.077  15.151  19.897  0.00  0.00    +0.000 N 
ATOM     23  N   UNL     1       2.147  15.605  19.216  0.00  0.00    +0.000 NA
ATOM     24  N   UNL     1       3.055  14.652  19.313  0.00  0.00    +0.000 NA
ATOM     25  N   UNL     1       2.603  13.608  20.061  0.00  0.00    +0.000 NA
ATOM     26  C   UNL     1       1.382  13.922  20.467  0.00  0.00    +0.000 A 
BRANCH  22  28
ATOM     27  C   UNL     1      -0.222  17.018  20.893  0.00  0.00    +0.000 C 
ATOM     28  C   UNL     1      -0.188  15.879  19.868  0.00  0.00    +0.000 C 
ATOM     29  C   UNL     1      -0.535  16.431  18.483  0.00  0.00    +0.000 C 
ENDBRANCH  22  28
ENDBRANCH  16  26
ENDBRANCH   1  21
TORSDOF 3
ENDMDL
MODEL 5
REMARK VINA RESULT:      -6.5      2.623      3.788
REMARK  Name = 
REMARK  5 active torsions:
REMARK  status: ('A' for Active; 'I' for Inactive)
REMARK    1  A    between atoms: C_1  and  C_2
REMARK    2  A    between atoms: C_2  and  C_3
REMARK    3  A    between atoms: C_2  and  N_4
REMARK    4  A    between atoms: C_8  and  C_9
REMARK    5  A    between atoms: C_14  and  N_15
REMARK                            x       y       z     vdW  Elec       q    Type
REMARK                         _______ _______ _______ _____ _____    ______ ____
ROOT
ATOM      1  N   UNL     1       0.805  11.190  19.820  0.00  0.00    +0.000 N 
ATOM      2  C   UNL     1       0.280  10.408  18.813  0.00  0.00    +0.000 C 
ATOM      3  O   UNL     1       0.963   9.515  18.317  0.00  0.00    +0.000 OA
ATOM      4  N   UNL     1      -0.983  10.748  18.330  0.00  0.00    +0.000 N 
ATOM      5  C   UNL     1      -1.599   9.858  17.299  0.00  0.00    +0.000 C 
ATOM      6  C   UNL     1      -2.582  10.611  16.373  0.00  0.00    +0.000 C 
ATOM      7  C   UNL     1      -3.618  11.242  17.275  0.00  0.00    +0.000 A 
ATOM      8  C   UNL     1      -4.988  11.035  17.154  0.00  0.00    +0.000 A 
ATOM      9  C   UNL     1      -5.815  11.392  18.216  0.00  0.00    +0.000 A 
ATOM     10  F   UNL     1      -7.128  11.127  18.142  0.00  0.00    +0.000 F 
ATOM     11  C   UNL     1      -5.306  11.972  19.373  0.00  0.00    +0.000 A 
ATOM     12  C   UNL     1      -3.948  12.264  19.459  0.00  0.00    +0.000 A 
ATOM     13  C   UNL     1      -3.101  11.914  18.405  0.00  0.00    +0.000 A 
ATOM     14  C   UNL     1      -1.608  12.060  18.450  0.00  0.00    +0.000 C 
ATOM     15  H   UNL     1       1.816  11.196  19.825  0.00  0.00    +0.000 HD
ENDROOT
BRANCH   1  21
ATOM     16  C   UNL     1       0.360  13.144  21.223  0.00  0.00    +0.000 A 
ATOM     17  C   UNL     1      -0.317  13.701  22.328  0.00  0.00    +0.000 A 
ATOM     18  C   UNL     1      -1.249  12.971  23.055  0.00  0.00    +0.000 A 
ATOM     19  C   UNL     1      -1.437  11.625  22.775  0.00  0.00    +0.000 A 
ATOM     20  C   UNL     1      -0.682  11.021  21.765  0.00  0.00    +0.000 A 
ATOM     21  C   UNL     1       0.173  11.773  20.946  0.00  0.00    +0.000 A 
BRANCH  16  26
ATOM     22  N   UNL     1       2.294  14.700  20.623  0.00  0.00    +0.000 N 
ATOM     23  N   UNL     1       2.684  15.410  19.547  0.00  0.00    +0.000 NA
ATOM     24  N   UNL     1       1.735  15.233  18.646  0.00  0.00    +0.000 NA
ATOM     25  N   UNL     1       0.759  14.405  19.110  0.00  0.00    +0.000 NA
ATOM     26  C   UNL     1       1.113  14.031  20.330  0.00  0.00    +0.000 A 
BRANCH  22  28
ATOM     27  C   UNL     1       4.466  14.282  21.751  0.00  0.00    +0.000 C 
ATOM     28  C   UNL     1       3.027  14.794  21.882  0.00  0.00    +0.000 C 
ATOM     29  C   UNL     1       3.041  16.207  22.469  0.00  0.00    +0.000 C 
ENDBRANCH  22  28
ENDBRANCH  16  26
ENDBRANCH   1  21
TORSDOF 3
ENDMDL
MODEL 6
REMARK VINA RESULT:      -6.2      7.596     10.540
REMARK  Name = 
REMARK  5 active torsions:
REMARK  status: ('A' for Active; 'I' for Inactive)
REMARK    1  A    between atoms: C_1  and  C_2
REMARK    2  A    between atoms: C_2  and  C_3
REMARK    3  A    between atoms: C_2  and  N_4
REMARK    4  A    between atoms: C_8  and  C_9
REMARK    5  A    between atoms: C_14  and  N_15
REMARK                            x       y       z     vdW  Elec       q    Type
REMARK                         _______ _______ _______ _____ _____    ______ ____
ROOT
ATOM      1  N   UNL     1       4.728   5.010  19.680  0.00  0.00    +0.000 N 
ATOM      2  C   UNL     1       6.033   5.124  19.248  0.00  0.00    +0.000 C 
ATOM      3  O   UNL     1       6.939   5.228  20.071  0.00  0.00    +0.000 OA
ATOM      4  N   UNL     1       6.246   5.223  17.874  0.00  0.00    +0.000 N 
ATOM      5  C   UNL     1       7.659   5.262  17.388  0.00  0.00    +0.000 C 
ATOM      6  C   UNL     1       7.808   6.024  16.051  0.00  0.00    +0.000 C 
ATOM      7  C   UNL     1       6.885   5.343  15.067  0.00  0.00    +0.000 A 
ATOM      8  C   UNL     1       7.293   4.825  13.843  0.00  0.00    +0.000 A 
ATOM      9  C   UNL     1       6.448   3.944  13.173  0.00  0.00    +0.000 A 
ATOM     10  F   UNL     1       6.863   3.379  12.030  0.00  0.00    +0.000 F 
ATOM     11  C   UNL     1       5.203   3.599  13.686  0.00  0.00    +0.000 A 
ATOM     12  C   UNL     1       4.753   4.186  14.865  0.00  0.00    +0.000 A 
ATOM     13  C   UNL     1       5.585   5.072  15.553  0.00  0.00    +0.000 A 
ATOM     14  C   UNL     1       5.256   5.656  16.895  0.00  0.00    +0.000 C 
ATOM     15  H   UNL     1       4.591   5.371  20.615  0.00  0.00    +0.000 HD
ENDROOT
BRANCH   1  21
ATOM     16  C   UNL     1       2.326   4.749  19.301  0.00  0.00    +0.000 A 
ATOM     17  C   UNL     1       1.275   4.021  18.705  0.00  0.00    +0.000 A 
ATOM     18  C   UNL     1       1.522   2.946  17.860  0.00  0.00    +0.000 A 
ATOM     19  C   UNL     1       2.822   2.492  17.687  0.00  0.00    +0.000 A 
ATOM     20  C   UNL     1       3.866   3.122  18.370  0.00  0.00    +0.000 A 
ATOM     21  C   UNL     1       3.645   4.280  19.131  0.00  0.00    +0.000 A 
BRANCH  16  26
ATOM     22  N   UNL     1       1.916   7.270  19.334  0.00  0.00    +0.000 N 
ATOM     23  N   UNL     1       1.621   8.204  20.260  0.00  0.00    +0.000 NA
ATOM     24  N   UNL     1       1.614   7.564  21.415  0.00  0.00    +0.000 NA
ATOM     25  N   UNL     1       1.872   6.237  21.249  0.00  0.00    +0.000 NA
ATOM     26  C   UNL     1       2.024   6.030  19.949  0.00  0.00    +0.000 A 
BRANCH  22  28
ATOM     27  C   UNL     1       1.416   8.925  17.553  0.00  0.00    +0.000 C 
ATOM     28  C   UNL     1       2.170   7.651  17.949  0.00  0.00    +0.000 C 
ATOM     29  C   UNL     1       3.658   7.820  17.632  0.00  0.00    +0.000 C 
ENDBRANCH  22  28
ENDBRANCH  16  26
ENDBRANCH   1  21
TORSDOF 3
ENDMDL
MODEL 7
REMARK VINA RESULT:      -6.2      2.837      6.169
REMARK  Name = 
REMARK  5 active torsions:
REMARK  status: ('A' for Active; 'I' for Inactive)
REMARK    1  A    between atoms: C_1  and  C_2
REMARK    2  A    between atoms: C_2  and  C_3
REMARK    3  A    between atoms: C_2  and  N_4
REMARK    4  A    between atoms: C_8  and  C_9
REMARK    5  A    between atoms: C_14  and  N_15
REMARK                            x       y       z     vdW  Elec       q    Type
REMARK                         _______ _______ _______ _____ _____    ______ ____
ROOT
ATOM      1  N   UNL     1      -0.100  12.311  21.048  0.00  0.00    +0.000 N 
ATOM      2  C   UNL     1      -0.338  13.292  21.987  0.00  0.00    +0.000 C 
ATOM      3  O   UNL     1       0.589  13.997  22.379  0.00  0.00    +0.000 OA
ATOM      4  N   UNL     1      -1.621  13.363  22.528  0.00  0.00    +0.000 N 
ATOM      5  C   UNL     1      -1.915  14.475  23.483  0.00  0.00    +0.000 C 
ATOM      6  C   UNL     1      -3.023  14.110  24.498  0.00  0.00    +0.000 C 
ATOM      7  C   UNL     1      -4.236  13.721  23.684  0.00  0.00    +0.000 A 
ATOM      8  C   UNL     1      -5.487  14.313  23.815  0.00  0.00    +0.000 A 
ATOM      9  C   UNL     1      -6.431  14.113  22.811  0.00  0.00    +0.000 A 
ATOM     10  F   UNL     1      -7.613  14.741  22.889  0.00  0.00    +0.000 F 
ATOM     11  C   UNL     1      -6.159  13.317  21.704  0.00  0.00    +0.000 A 
ATOM     12  C   UNL     1      -4.941  12.649  21.616  0.00  0.00    +0.000 A 
ATOM     13  C   UNL     1      -3.980  12.836  22.612  0.00  0.00    +0.000 A 
ATOM     14  C   UNL     1      -2.590  12.274  22.549  0.00  0.00    +0.000 C 
ATOM     15  H   UNL     1       0.869  12.021  21.020  0.00  0.00    +0.000 HD
ENDROOT
BRANCH   1  21
ATOM     16  C   UNL     1      -0.788  10.503  19.551  0.00  0.00    +0.000 A 
ATOM     17  C   UNL     1      -1.650  10.049  18.532  0.00  0.00    +0.000 A 
ATOM     18  C   UNL     1      -2.696  10.832  18.060  0.00  0.00    +0.000 A 
ATOM     19  C   UNL     1      -2.832  12.139  18.507  0.00  0.00    +0.000 A 
ATOM     20  C   UNL     1      -1.909  12.650  19.425  0.00  0.00    +0.000 A 
ATOM     21  C   UNL     1      -0.922  11.835  19.997  0.00  0.00    +0.000 A 
BRANCH  16  26
ATOM     22  N   UNL     1       1.216   8.921  19.631  0.00  0.00    +0.000 N 
ATOM     23  N   UNL     1       1.793   8.115  20.544  0.00  0.00    +0.000 NA
ATOM     24  N   UNL     1       1.026   8.191  21.615  0.00  0.00    +0.000 NA
ATOM     25  N   UNL     1      -0.015   9.048  21.422  0.00  0.00    +0.000 NA
ATOM     26  C   UNL     1       0.112   9.543  20.200  0.00  0.00    +0.000 A 
BRANCH  22  28
ATOM     27  C   UNL     1       2.234  10.347  17.872  0.00  0.00    +0.000 C 
ATOM     28  C   UNL     1       1.705   8.960  18.257  0.00  0.00    +0.000 C 
ATOM     29  C   UNL     1       2.779   7.908  17.968  0.00  0.00    +0.000 C 
ENDBRANCH  22  28
ENDBRANCH  16  26
ENDBRANCH   1  21
TORSDOF 3
ENDMDL
MODEL 8
REMARK VINA RESULT:      -6.2      7.629     10.616
REMARK  Name = 
REMARK  5 active torsions:
REMARK  status: ('A' for Active; 'I' for Inactive)
REMARK    1  A    between atoms: C_1  and  C_2
REMARK    2  A    between atoms: C_2  and  C_3
REMARK    3  A    between atoms: C_2  and  N_4
REMARK    4  A    between atoms: C_8  and  C_9
REMARK    5  A    between atoms: C_14  and  N_15
REMARK                            x       y       z     vdW  Elec       q    Type
REMARK                         _______ _______ _______ _____ _____    ______ ____
ROOT
ATOM      1  N   UNL     1       4.642   5.231  19.485  0.00  0.00    +0.000 N 
ATOM      2  C   UNL     1       5.960   5.318  19.088  0.00  0.00    +0.000 C 
ATOM      3  O   UNL     1       6.843   5.440  19.933  0.00  0.00    +0.000 OA
ATOM      4  N   UNL     1       6.214   5.369  17.718  0.00  0.00    +0.000 N 
ATOM      5  C   UNL     1       7.641   5.377  17.273  0.00  0.00    +0.000 C 
ATOM      6  C   UNL     1       7.837   6.093  15.917  0.00  0.00    +0.000 C 
ATOM      7  C   UNL     1       6.936   5.389  14.929  0.00  0.00    +0.000 A 
ATOM      8  C   UNL     1       7.373   4.827  13.734  0.00  0.00    +0.000 A 
ATOM      9  C   UNL     1       6.537   3.934  13.069  0.00  0.00    +0.000 A 
ATOM     10  F   UNL     1       6.980   3.327  11.958  0.00  0.00    +0.000 F 
ATOM     11  C   UNL     1       5.274   3.618  13.557  0.00  0.00    +0.000 A 
ATOM     12  C   UNL     1       4.797   4.249  14.702  0.00  0.00    +0.000 A 
ATOM     13  C   UNL     1       5.619   5.148  15.385  0.00  0.00    +0.000 A 
ATOM     14  C   UNL     1       5.258   5.780  16.697  0.00  0.00    +0.000 C 
ATOM     15  H   UNL     1       4.482   5.624  20.403  0.00  0.00    +0.000 HD
ENDROOT
BRANCH   1  21
ATOM     16  C   UNL     1       2.450   5.175  18.401  0.00  0.00    +0.000 A 
ATOM     17  C   UNL     1       1.417   4.413  17.816  0.00  0.00    +0.000 A 
ATOM     18  C   UNL     1       1.538   3.041  17.635  0.00  0.00    +0.000 A 
ATOM     19  C   UNL     1       2.643   2.375  18.146  0.00  0.00    +0.000 A 
ATOM     20  C   UNL     1       3.619   3.096  18.842  0.00  0.00    +0.000 A 
ATOM     21  C   UNL     1       3.568   4.494  18.928  0.00  0.00    +0.000 A 
BRANCH  16  26
ATOM     22  N   UNL     1       2.177   7.526  19.361  0.00  0.00    +0.000 N 
ATOM     23  N   UNL     1       2.197   8.788  18.887  0.00  0.00    +0.000 NA
ATOM     24  N   UNL     1       2.351   8.670  17.581  0.00  0.00    +0.000 NA
ATOM     25  N   UNL     1       2.456   7.365  17.209  0.00  0.00    +0.000 NA
ATOM     26  C   UNL     1       2.390   6.639  18.315  0.00  0.00    +0.000 A 
BRANCH  22  28
ATOM     27  C   UNL     1       1.059   8.405  21.396  0.00  0.00    +0.000 C 
ATOM     28  C   UNL     1       1.859   7.262  20.760  0.00  0.00    +0.000 C 
ATOM     29  C   UNL     1       1.115   5.941  20.971  0.00  0.00    +0.000 C 
ENDBRANCH  22  28
ENDBRANCH  16  26
ENDBRANCH   1  21
TORSDOF 3
ENDMDL
MODEL 9
REMARK VINA RESULT:      -6.1      1.727      2.293
REMARK  Name = 
REMARK  5 active torsions:
REMARK  status: ('A' for Active; 'I' for Inactive)
REMARK    1  A    between atoms: C_1  and  C_2
REMARK    2  A    between atoms: C_2  and  C_3
REMARK    3  A    between atoms: C_2  and  N_4
REMARK    4  A    between atoms: C_8  and  C_9
REMARK    5  A    between atoms: C_14  and  N_15
REMARK                            x       y       z     vdW  Elec       q    Type
REMARK                         _______ _______ _______ _____ _____    ______ ____
ROOT
ATOM      1  N   UNL     1      -0.097  12.244  21.808  0.00  0.00    +0.000 N 
ATOM      2  C   UNL     1      -0.174  11.358  20.754  0.00  0.00    +0.000 C 
ATOM      3  O   UNL     1       0.756  10.585  20.540  0.00  0.00    +0.000 OA
ATOM      4  N   UNL     1      -1.279  11.462  19.910  0.00  0.00    +0.000 N 
ATOM      5  C   UNL     1      -1.418  10.453  18.815  0.00  0.00    +0.000 C 
ATOM      6  C   UNL     1      -2.195  11.002  17.596  0.00  0.00    +0.000 C 
ATOM      7  C   UNL     1      -3.536  11.465  18.119  0.00  0.00    +0.000 A 
ATOM      8  C   UNL     1      -4.760  11.022  17.631  0.00  0.00    +0.000 A 
ATOM      9  C   UNL     1      -5.906  11.256  18.386  0.00  0.00    +0.000 A 
ATOM     10  F   UNL     1      -7.081  10.766  17.963  0.00  0.00    +0.000 F 
ATOM     11  C   UNL     1      -5.855  11.943  19.594  0.00  0.00    +0.000 A 
ATOM     12  C   UNL     1      -4.645  12.469  20.039  0.00  0.00    +0.000 A 
ATOM     13  C   UNL     1      -3.483  12.245  19.297  0.00  0.00    +0.000 A 
ATOM     14  C   UNL     1      -2.111  12.649  19.751  0.00  0.00    +0.000 C 
ATOM     15  H   UNL     1       0.855  12.425  22.099  0.00  0.00    +0.000 HD
ENDROOT
BRANCH   1  21
ATOM     16  C   UNL     1      -1.121  14.098  23.031  0.00  0.00    +0.000 A 
ATOM     17  C   UNL     1      -2.171  14.564  23.850  0.00  0.00    +0.000 A 
ATOM     18  C   UNL     1      -3.247  13.752  24.186  0.00  0.00    +0.000 A 
ATOM     19  C   UNL     1      -3.242  12.415  23.815  0.00  0.00    +0.000 A 
ATOM     20  C   UNL     1      -2.148  11.902  23.110  0.00  0.00    +0.000 A 
ATOM     21  C   UNL     1      -1.113  12.736  22.663  0.00  0.00    +0.000 A 
BRANCH  16  26
ATOM     22  N   UNL     1      -0.399  15.989  21.473  0.00  0.00    +0.000 N 
ATOM     23  N   UNL     1       0.721  16.706  21.254  0.00  0.00    +0.000 NA
ATOM     24  N   UNL     1       1.631  16.192  22.060  0.00  0.00    +0.000 NA
ATOM     25  N   UNL     1       1.115  15.179  22.810  0.00  0.00    +0.000 NA
ATOM     26  C   UNL     1      -0.164  15.066  22.483  0.00  0.00    +0.000 A 
BRANCH  22  28
ATOM     27  C   UNL     1      -2.634  17.057  21.306  0.00  0.00    +0.000 C 
ATOM     28  C   UNL     1      -1.577  16.174  20.632  0.00  0.00    +0.000 C 
ATOM     29  C   UNL     1      -1.249  16.739  19.248  0.00  0.00    +0.000 C 
ENDBRANCH  22  28
ENDBRANCH  16  26
ENDBRANCH   1  21
TORSDOF 3
ENDMDL
