MODEL 1
REMARK VINA RESULT:      -9.1      0.000      0.000
REMARK  Name = 
REMARK  7 active torsions:
REMARK  status: ('A' for Active; 'I' for Inactive)
REMARK    1  A    between atoms: C_1  and  C_2
REMARK    2  A    between atoms: C_2  and  C_3
REMARK    3  A    between atoms: C_2  and  C_5
REMARK    4  A    between atoms: C_9  and  C_10
REMARK    5  A    between atoms: N_16  and  C_17
REMARK    6  A    between atoms: C_21  and  C_22
REMARK    7  A    between atoms: C_22  and  C_23
REMARK                            x       y       z     vdW  Elec       q    Type
REMARK                         _______ _______ _______ _____ _____    ______ ____
ROOT
ATOM      1  C   UNL     1       0.447  11.530  19.483  0.00  0.00    +0.000 A 
ATOM      2  C   UNL     1       1.140  10.574  18.736  0.00  0.00    +0.000 A 
ATOM      3  C   UNL     1       1.364   9.337  19.326  0.00  0.00    +0.000 A 
ATOM      4  C   UNL     1       0.943   9.003  20.606  0.00  0.00    +0.000 A 
ATOM      5  C   UNL     1       0.301   9.945  21.397  0.00  0.00    +0.000 A 
ATOM      6  C   UNL     1       0.070  11.213  20.815  0.00  0.00    +0.000 A 
ATOM      7  C   UNL     1       1.307   7.584  20.895  0.00  0.00    +0.000 C 
ATOM      8  N   UNL     1       1.991   7.168  19.680  0.00  0.00    +0.000 N 
ATOM      9  C   UNL     1       2.060   8.194  18.743  0.00  0.00    +0.000 C 
ATOM     10  O   UNL     1       2.584   8.263  17.647  0.00  0.00    +0.000 OA
ENDROOT
BRANCH   8  11
ATOM     11  C   UNL     1       2.687   5.942  19.610  0.00  0.00    +0.000 A 
ATOM     12  C   UNL     1       2.019   4.723  19.753  0.00  0.00    +0.000 A 
ATOM     13  C   UNL     1       2.690   3.519  19.577  0.00  0.00    +0.000 A 
ATOM     14  C   UNL     1       4.047   3.515  19.257  0.00  0.00    +0.000 A 
ATOM     15  C   UNL     1       4.745   4.719  19.112  0.00  0.00    +0.000 A 
ATOM     16  C   UNL     1       4.058   5.923  19.321  0.00  0.00    +0.000 A 
BRANCH  15  17
ATOM     17  C   UNL     1       6.209   4.758  18.743  0.00  0.00    +0.000 C 
BRANCH  17  18
ATOM     18  C   UNL     1       6.438   4.761  17.261  0.00  0.00    +0.000 C 
ATOM     19  N   UNL     1       7.605   4.703  16.698  0.00  0.00    +0.000 NA
ATOM     20  N   UNL     1       7.425   4.797  15.283  0.00  0.00    +0.000 NA
ATOM     21  C   UNL     1       6.159   4.916  15.050  0.00  0.00    +0.000 C 
ATOM     22  C   UNL     1       5.325   4.876  16.278  0.00  0.00    +0.000 C 
ENDBRANCH  17  18
ENDBRANCH  15  17
ENDBRANCH   8  11
BRANCH   1  24
ATOM     23  C   UNL     1       1.270  13.673  18.438  0.00  0.00    +0.000 C 
ATOM     24  C   UNL     1       0.041  12.870  18.877  0.00  0.00    +0.000 C 
ATOM     25  C   UNL     1      -0.803  13.723  19.824  0.00  0.00    +0.000 C 
ATOM     26  F   UNL     1      -0.720  12.686  17.747  0.00  0.00    +0.000 F 
ENDBRANCH   1  24
BRANCH   5  27
ATOM     27  C   UNL     1      -0.149   9.662  22.805  0.00  0.00    +0.000 C 
ATOM     28  F   UNL     1       0.873   9.366  23.655  0.00  0.00    +0.000 F 
ATOM     29  F   UNL     1      -0.805  10.715  23.363  0.00  0.00    +0.000 F 
ATOM     30  F   UNL     1      -1.004   8.606  22.873  0.00  0.00    +0.000 F 
ENDBRANCH   5  27
TORSDOF 5
ENDMDL
MODEL 2
REMARK VINA RESULT:      -9.0      3.646      8.098
REMARK  Name = 
REMARK  7 active torsions:
REMARK  status: ('A' for Active; 'I' for Inactive)
REMARK    1  A    between atoms: C_1  and  C_2
REMARK    2  A    between atoms: C_2  and  C_3
REMARK    3  A    between atoms: C_2  and  C_5
REMARK    4  A    between atoms: C_9  and  C_10
REMARK    5  A    between atoms: N_16  and  C_17
REMARK    6  A    between atoms: C_21  and  C_22
REMARK    7  A    between atoms: C_22  and  C_23
REMARK                            x       y       z     vdW  Elec       q    Type
REMARK                         _______ _______ _______ _____ _____    ______ ____
ROOT
ATOM      1  C   UNL     1       3.892   5.429  17.753  0.00  0.00    +0.000 A 
ATOM      2  C   UNL     1       3.455   6.753  17.842  0.00  0.00    +0.000 A 
ATOM      3  C   UNL     1       2.619   7.083  18.901  0.00  0.00    +0.000 A 
ATOM      4  C   UNL     1       2.197   6.178  19.864  0.00  0.00    +0.000 A 
ATOM      5  C   UNL     1       2.566   4.844  19.776  0.00  0.00    +0.000 A 
ATOM      6  C   UNL     1       3.412   4.487  18.701  0.00  0.00    +0.000 A 
ATOM      7  C   UNL     1       1.354   6.883  20.875  0.00  0.00    +0.000 C 
ATOM      8  N   UNL     1       1.319   8.250  20.375  0.00  0.00    +0.000 N 
ATOM      9  C   UNL     1       2.041   8.391  19.194  0.00  0.00    +0.000 C 
ATOM     10  O   UNL     1       2.210   9.340  18.450  0.00  0.00    +0.000 OA
ENDROOT
BRANCH   8  11
ATOM     11  C   UNL     1       0.451   9.214  20.929  0.00  0.00    +0.000 A 
ATOM     12  C   UNL     1       0.141   9.210  22.291  0.00  0.00    +0.000 A 
ATOM     13  C   UNL     1      -0.629  10.225  22.849  0.00  0.00    +0.000 A 
ATOM     14  C   UNL     1      -1.105  11.261  22.050  0.00  0.00    +0.000 A 
ATOM     15  C   UNL     1      -0.816  11.291  20.681  0.00  0.00    +0.000 A 
ATOM     16  C   UNL     1      -0.063  10.246  20.130  0.00  0.00    +0.000 A 
BRANCH  15  17
ATOM     17  C   UNL     1      -1.294  12.409  19.784  0.00  0.00    +0.000 C 
BRANCH  17  18
ATOM     18  C   UNL     1      -2.320  11.960  18.786  0.00  0.00    +0.000 C 
ATOM     19  N   UNL     1      -2.056  11.624  17.562  0.00  0.00    +0.000 NA
ATOM     20  N   UNL     1      -3.288  11.322  16.904  0.00  0.00    +0.000 NA
ATOM     21  C   UNL     1      -4.246  11.497  17.754  0.00  0.00    +0.000 C 
ATOM     22  C   UNL     1      -3.774  11.899  19.104  0.00  0.00    +0.000 C 
ENDBRANCH  17  18
ENDBRANCH  15  17
ENDBRANCH   8  11
BRANCH   1  24
ATOM     23  C   UNL     1       6.214   4.527  17.360  0.00  0.00    +0.000 C 
ATOM     24  C   UNL     1       4.913   4.999  16.703  0.00  0.00    +0.000 C 
ATOM     25  C   UNL     1       5.233   6.101  15.693  0.00  0.00    +0.000 C 
ATOM     26  F   UNL     1       4.445   3.934  15.972  0.00  0.00    +0.000 F 
ENDBRANCH   1  24
BRANCH   5  27
ATOM     27  C   UNL     1       2.115   3.802  20.765  0.00  0.00    +0.000 C 
ATOM     28  F   UNL     1       2.473   4.080  22.050  0.00  0.00    +0.000 F 
ATOM     29  F   UNL     1       0.763   3.649  20.780  0.00  0.00    +0.000 F 
ATOM     30  F   UNL     1       2.631   2.573  20.495  0.00  0.00    +0.000 F 
ENDBRANCH   5  27
TORSDOF 5
ENDMDL
MODEL 3
REMARK VINA RESULT:      -9.0      1.115      1.412
REMARK  Name = 
REMARK  7 active torsions:
REMARK  status: ('A' for Active; 'I' for Inactive)
REMARK    1  A    between atoms: C_1  and  C_2
REMARK    2  A    between atoms: C_2  and  C_3
REMARK    3  A    between atoms: C_2  and  C_5
REMARK    4  A    between atoms: C_9  and  C_10
REMARK    5  A    between atoms: N_16  and  C_17
REMARK    6  A    between atoms: C_21  and  C_22
REMARK    7  A    between atoms: C_22  and  C_23
REMARK                            x       y       z     vdW  Elec       q    Type
REMARK                         _______ _______ _______ _____ _____    ______ ____
ROOT
ATOM      1  C   UNL     1       0.448  11.713  19.418  0.00  0.00    +0.000 A 
ATOM      2  C   UNL     1       1.123  10.783  18.624  0.00  0.00    +0.000 A 
ATOM      3  C   UNL     1       1.365   9.529  19.168  0.00  0.00    +0.000 A 
ATOM      4  C   UNL     1       0.978   9.153  20.446  0.00  0.00    +0.000 A 
ATOM      5  C   UNL     1       0.355  10.068  21.283  0.00  0.00    +0.000 A 
ATOM      6  C   UNL     1       0.105  11.352  20.748  0.00  0.00    +0.000 A 
ATOM      7  C   UNL     1       1.353   7.727  20.681  0.00  0.00    +0.000 C 
ATOM      8  N   UNL     1       2.007   7.352  19.436  0.00  0.00    +0.000 N 
ATOM      9  C   UNL     1       2.049   8.408  18.531  0.00  0.00    +0.000 C 
ATOM     10  O   UNL     1       2.546   8.514  17.424  0.00  0.00    +0.000 OA
ENDROOT
BRANCH   8  11
ATOM     11  C   UNL     1       2.704   6.131  19.309  0.00  0.00    +0.000 A 
ATOM     12  C   UNL     1       2.212   4.956  19.883  0.00  0.00    +0.000 A 
ATOM     13  C   UNL     1       2.846   3.738  19.665  0.00  0.00    +0.000 A 
ATOM     14  C   UNL     1       3.988   3.677  18.869  0.00  0.00    +0.000 A 
ATOM     15  C   UNL     1       4.508   4.838  18.285  0.00  0.00    +0.000 A 
ATOM     16  C   UNL     1       3.872   6.061  18.538  0.00  0.00    +0.000 A 
BRANCH  15  17
ATOM     17  C   UNL     1       5.730   4.811  17.397  0.00  0.00    +0.000 C 
BRANCH  17  18
ATOM     18  C   UNL     1       6.599   6.022  17.563  0.00  0.00    +0.000 C 
ATOM     19  N   UNL     1       6.624   7.027  16.743  0.00  0.00    +0.000 NA
ATOM     20  N   UNL     1       7.617   7.950  17.194  0.00  0.00    +0.000 NA
ATOM     21  C   UNL     1       8.159   7.461  18.261  0.00  0.00    +0.000 C 
ATOM     22  C   UNL     1       7.568   6.166  18.686  0.00  0.00    +0.000 C 
ENDBRANCH  17  18
ENDBRANCH  15  17
ENDBRANCH   8  11
BRANCH   1  24
ATOM     23  C   UNL     1       1.239  13.896  18.434  0.00  0.00    +0.000 C 
ATOM     24  C   UNL     1       0.022  13.071  18.865  0.00  0.00    +0.000 C 
ATOM     25  C   UNL     1      -0.811  13.885  19.855  0.00  0.00    +0.000 C 
ATOM     26  F   UNL     1      -0.755  12.921  17.743  0.00  0.00    +0.000 F 
ENDBRANCH   1  24
BRANCH   5  27
ATOM     27  C   UNL     1      -0.059   9.738  22.693  0.00  0.00    +0.000 C 
ATOM     28  F   UNL     1       0.985   9.410  23.503  0.00  0.00    +0.000 F 
ATOM     29  F   UNL     1      -0.695  10.774  23.304  0.00  0.00    +0.000 F 
ATOM     30  F   UNL     1      -0.917   8.684  22.747  0.00  0.00    +0.000 F 
ENDBRANCH   5  27
TORSDOF 5
ENDMDL
MODEL 4
REMARK VINA RESULT:      -9.0      3.641      8.130
REMARK  Name = 
REMARK  7 active torsions:
REMARK  status: ('A' for Active; 'I' for Inactive)
REMARK    1  A    between atoms: C_1  and  C_2
REMARK    2  A    between atoms: C_2  and  C_3
REMARK    3  A    between atoms: C_2  and  C_5
REMARK    4  A    between atoms: C_9  and  C_10
REMARK    5  A    between atoms: N_16  and  C_17
REMARK    6  A    between atoms: C_21  and  C_22
REMARK    7  A    between atoms: C_22  and  C_23
REMARK                            x       y       z     vdW  Elec       q    Type
REMARK                         _______ _______ _______ _____ _____    ______ ____
ROOT
ATOM      1  C   UNL     1       4.102   5.373  17.571  0.00  0.00    +0.000 A 
ATOM      2  C   UNL     1       3.675   6.700  17.490  0.00  0.00    +0.000 A 
ATOM      3  C   UNL     1       2.804   7.155  18.471  0.00  0.00    +0.000 A 
ATOM      4  C   UNL     1       2.339   6.370  19.516  0.00  0.00    +0.000 A 
ATOM      5  C   UNL     1       2.698   5.033  19.597  0.00  0.00    +0.000 A 
ATOM      6  C   UNL     1       3.580   4.549  18.603  0.00  0.00    +0.000 A 
ATOM      7  C   UNL     1       1.466   7.192  20.406  0.00  0.00    +0.000 C 
ATOM      8  N   UNL     1       1.463   8.492  19.751  0.00  0.00    +0.000 N 
ATOM      9  C   UNL     1       2.228   8.491  18.588  0.00  0.00    +0.000 C 
ATOM     10  O   UNL     1       2.432   9.347  17.747  0.00  0.00    +0.000 OA
ENDROOT
BRANCH   8  11
ATOM     11  C   UNL     1       0.583   9.519  20.156  0.00  0.00    +0.000 A 
ATOM     12  C   UNL     1       0.368   9.793  21.509  0.00  0.00    +0.000 A 
ATOM     13  C   UNL     1      -0.415  10.873  21.900  0.00  0.00    +0.000 A 
ATOM     14  C   UNL     1      -1.000  11.697  20.941  0.00  0.00    +0.000 A 
ATOM     15  C   UNL     1      -0.807  11.445  19.578  0.00  0.00    +0.000 A 
ATOM     16  C   UNL     1      -0.038  10.336  19.201  0.00  0.00    +0.000 A 
BRANCH  15  17
ATOM     17  C   UNL     1      -1.404  12.328  18.507  0.00  0.00    +0.000 C 
BRANCH  17  18
ATOM     18  C   UNL     1      -2.554  11.682  17.793  0.00  0.00    +0.000 C 
ATOM     19  N   UNL     1      -2.472  11.115  16.630  0.00  0.00    +0.000 NA
ATOM     20  N   UNL     1      -3.779  10.679  16.249  0.00  0.00    +0.000 NA
ATOM     21  C   UNL     1      -4.598  11.009  17.193  0.00  0.00    +0.000 C 
ATOM     22  C   UNL     1      -3.938  11.673  18.346  0.00  0.00    +0.000 C 
ENDBRANCH  17  18
ENDBRANCH  15  17
ENDBRANCH   8  11
BRANCH   1  24
ATOM     23  C   UNL     1       6.482   4.568  17.344  0.00  0.00    +0.000 C 
ATOM     24  C   UNL     1       5.157   4.818  16.617  0.00  0.00    +0.000 C 
ATOM     25  C   UNL     1       5.410   5.725  15.413  0.00  0.00    +0.000 C 
ATOM     26  F   UNL     1       4.765   3.604  16.106  0.00  0.00    +0.000 F 
ENDBRANCH   1  24
BRANCH   5  27
ATOM     27  C   UNL     1       2.201   4.116  20.683  0.00  0.00    +0.000 C 
ATOM     28  F   UNL     1       2.697   2.850  20.596  0.00  0.00    +0.000 F 
ATOM     29  F   UNL     1       2.527   4.558  21.928  0.00  0.00    +0.000 F 
ATOM     30  F   UNL     1       0.847   3.985  20.671  0.00  0.00    +0.000 F 
ENDBRANCH   5  27
TORSDOF 5
ENDMDL
MODEL 5
REMARK VINA RESULT:      -8.9      2.223      3.454
REMARK  Name = 
REMARK  7 active torsions:
REMARK  status: ('A' for Active; 'I' for Inactive)
REMARK    1  A    between atoms: C_1  and  C_2
REMARK    2  A    between atoms: C_2  and  C_3
REMARK    3  A    between atoms: C_2  and  C_5
REMARK    4  A    between atoms: C_9  and  C_10
REMARK    5  A    between atoms: N_16  and  C_17
REMARK    6  A    between atoms: C_21  and  C_22
REMARK    7  A    between atoms: C_22  and  C_23
REMARK                            x       y       z     vdW  Elec       q    Type
REMARK                         _______ _______ _______ _____ _____    ______ ____
ROOT
ATOM      1  C   UNL     1       0.083  12.444  20.169  0.00  0.00    +0.000 A 
ATOM      2  C   UNL     1       0.751  11.842  19.100  0.00  0.00    +0.000 A 
ATOM      3  C   UNL     1       1.079  10.498  19.222  0.00  0.00    +0.000 A 
ATOM      4  C   UNL     1       0.783   9.729  20.338  0.00  0.00    +0.000 A 
ATOM      5  C   UNL     1       0.170  10.306  21.440  0.00  0.00    +0.000 A 
ATOM      6  C   UNL     1      -0.166  11.676  21.337  0.00  0.00    +0.000 A 
ATOM      7  C   UNL     1       1.233   8.324  20.108  0.00  0.00    +0.000 C 
ATOM      8  N   UNL     1       1.829   8.385  18.781  0.00  0.00    +0.000 N 
ATOM      9  C   UNL     1       1.772   9.667  18.243  0.00  0.00    +0.000 C 
ATOM     10  O   UNL     1       2.199  10.134  17.203  0.00  0.00    +0.000 OA
ENDROOT
BRANCH   8  11
ATOM     11  C   UNL     1       2.570   7.305  18.256  0.00  0.00    +0.000 A 
ATOM     12  C   UNL     1       3.805   7.509  17.635  0.00  0.00    +0.000 A 
ATOM     13  C   UNL     1       4.579   6.432  17.218  0.00  0.00    +0.000 A 
ATOM     14  C   UNL     1       4.126   5.129  17.413  0.00  0.00    +0.000 A 
ATOM     15  C   UNL     1       2.892   4.891  18.027  0.00  0.00    +0.000 A 
ATOM     16  C   UNL     1       2.112   5.989  18.417  0.00  0.00    +0.000 A 
BRANCH  15  17
ATOM     17  C   UNL     1       2.376   3.494  18.278  0.00  0.00    +0.000 C 
BRANCH  17  18
ATOM     18  C   UNL     1       2.270   3.164  19.737  0.00  0.00    +0.000 C 
ATOM     19  N   UNL     1       3.272   2.825  20.489  0.00  0.00    +0.000 NA
ATOM     20  N   UNL     1       2.773   2.522  21.793  0.00  0.00    +0.000 NA
ATOM     21  C   UNL     1       1.490   2.680  21.774  0.00  0.00    +0.000 C 
ATOM     22  C   UNL     1       0.970   3.150  20.464  0.00  0.00    +0.000 C 
ENDBRANCH  17  18
ENDBRANCH  15  17
ENDBRANCH   8  11
BRANCH   1  24
ATOM     23  C   UNL     1       0.216  14.624  18.908  0.00  0.00    +0.000 C 
ATOM     24  C   UNL     1      -0.433  13.877  20.078  0.00  0.00    +0.000 C 
ATOM     25  C   UNL     1      -0.213  14.674  21.364  0.00  0.00    +0.000 C 
ATOM     26  F   UNL     1      -1.786  13.897  19.842  0.00  0.00    +0.000 F 
ENDBRANCH   1  24
BRANCH   5  27
ATOM     27  C   UNL     1      -0.146   9.539  22.697  0.00  0.00    +0.000 C 
ATOM     28  F   UNL     1      -0.872  10.252  23.602  0.00  0.00    +0.000 F 
ATOM     29  F   UNL     1      -0.863   8.409  22.451  0.00  0.00    +0.000 F 
ATOM     30  F   UNL     1       0.976   9.139  23.355  0.00  0.00    +0.000 F 
ENDBRANCH   5  27
TORSDOF 5
ENDMDL
MODEL 6
REMARK VINA RESULT:      -8.9      3.823      8.717
REMARK  Name = 
REMARK  7 active torsions:
REMARK  status: ('A' for Active; 'I' for Inactive)
REMARK    1  A    between atoms: C_1  and  C_2
REMARK    2  A    between atoms: C_2  and  C_3
REMARK    3  A    between atoms: C_2  and  C_5
REMARK    4  A    between atoms: C_9  and  C_10
REMARK    5  A    between atoms: N_16  and  C_17
REMARK    6  A    between atoms: C_21  and  C_22
REMARK    7  A    between atoms: C_22  and  C_23
REMARK                            x       y       z     vdW  Elec       q    Type
REMARK                         _______ _______ _______ _____ _____    ______ ____
ROOT
ATOM      1  C   UNL     1       4.706   5.104  17.261  0.00  0.00    +0.000 A 
ATOM      2  C   UNL     1       4.246   6.416  17.121  0.00  0.00    +0.000 A 
ATOM      3  C   UNL     1       3.326   6.877  18.054  0.00  0.00    +0.000 A 
ATOM      4  C   UNL     1       2.844   6.113  19.107  0.00  0.00    +0.000 A 
ATOM      5  C   UNL     1       3.236   4.789  19.245  0.00  0.00    +0.000 A 
ATOM      6  C   UNL     1       4.167   4.300  18.301  0.00  0.00    +0.000 A 
ATOM      7  C   UNL     1       1.916   6.938  19.937  0.00  0.00    +0.000 C 
ATOM      8  N   UNL     1       1.903   8.216  19.240  0.00  0.00    +0.000 N 
ATOM      9  C   UNL     1       2.711   8.199  18.107  0.00  0.00    +0.000 C 
ATOM     10  O   UNL     1       2.923   9.033  17.246  0.00  0.00    +0.000 OA
ENDROOT
BRANCH   8  11
ATOM     11  C   UNL     1       0.981   9.229  19.579  0.00  0.00    +0.000 A 
ATOM     12  C   UNL     1       0.309   9.954  18.591  0.00  0.00    +0.000 A 
ATOM     13  C   UNL     1      -0.676  10.875  18.931  0.00  0.00    +0.000 A 
ATOM     14  C   UNL     1      -1.002  11.089  20.269  0.00  0.00    +0.000 A 
ATOM     15  C   UNL     1      -0.342  10.382  21.281  0.00  0.00    +0.000 A 
ATOM     16  C   UNL     1       0.666   9.478  20.922  0.00  0.00    +0.000 A 
BRANCH  15  17
ATOM     17  C   UNL     1      -0.682  10.567  22.741  0.00  0.00    +0.000 C 
BRANCH  17  18
ATOM     18  C   UNL     1      -1.274  11.914  23.036  0.00  0.00    +0.000 C 
ATOM     19  N   UNL     1      -0.583  12.995  23.223  0.00  0.00    +0.000 NA
ATOM     20  N   UNL     1      -1.486  14.055  23.546  0.00  0.00    +0.000 NA
ATOM     21  C   UNL     1      -2.684  13.569  23.550  0.00  0.00    +0.000 C 
ATOM     22  C   UNL     1      -2.740  12.128  23.191  0.00  0.00    +0.000 C 
ENDBRANCH  17  18
ENDBRANCH  15  17
ENDBRANCH   8  11
BRANCH   1  24
ATOM     23  C   UNL     1       7.173   4.620  17.061  0.00  0.00    +0.000 C 
ATOM     24  C   UNL     1       5.810   4.549  16.365  0.00  0.00    +0.000 C 
ATOM     25  C   UNL     1       5.899   5.262  15.016  0.00  0.00    +0.000 C 
ATOM     26  F   UNL     1       5.592   3.222  16.084  0.00  0.00    +0.000 F 
ENDBRANCH   1  24
BRANCH   5  27
ATOM     27  C   UNL     1       2.724   3.893  20.342  0.00  0.00    +0.000 C 
ATOM     28  F   UNL     1       1.476   3.402  20.105  0.00  0.00    +0.000 F 
ATOM     29  F   UNL     1       3.520   2.808  20.542  0.00  0.00    +0.000 F 
ATOM     30  F   UNL     1       2.649   4.533  21.540  0.00  0.00    +0.000 F 
ENDBRANCH   5  27
TORSDOF 5
ENDMDL
MODEL 7
REMARK VINA RESULT:      -8.9      3.992      8.369
REMARK  Name = 
REMARK  7 active torsions:
REMARK  status: ('A' for Active; 'I' for Inactive)
REMARK    1  A    between atoms: C_1  and  C_2
REMARK    2  A    between atoms: C_2  and  C_3
REMARK    3  A    between atoms: C_2  and  C_5
REMARK    4  A    between atoms: C_9  and  C_10
REMARK    5  A    between atoms: N_16  and  C_17
REMARK    6  A    between atoms: C_21  and  C_22
REMARK    7  A    between atoms: C_22  and  C_23
REMARK                            x       y       z     vdW  Elec       q    Type
REMARK                         _______ _______ _______ _____ _____    ______ ____
ROOT
ATOM      1  C   UNL     1       4.803   4.646  16.855  0.00  0.00    +0.000 A 
ATOM      2  C   UNL     1       4.417   5.978  17.022  0.00  0.00    +0.000 A 
ATOM      3  C   UNL     1       3.530   6.265  18.051  0.00  0.00    +0.000 A 
ATOM      4  C   UNL     1       3.009   5.310  18.912  0.00  0.00    +0.000 A 
ATOM      5  C   UNL     1       3.326   3.970  18.741  0.00  0.00    +0.000 A 
ATOM      6  C   UNL     1       4.224   3.657  17.694  0.00  0.00    +0.000 A 
ATOM      7  C   UNL     1       2.134   5.975  19.923  0.00  0.00    +0.000 C 
ATOM      8  N   UNL     1       2.190   7.376  19.532  0.00  0.00    +0.000 N 
ATOM      9  C   UNL     1       2.991   7.573  18.411  0.00  0.00    +0.000 C 
ATOM     10  O   UNL     1       3.247   8.567  17.757  0.00  0.00    +0.000 OA
ENDROOT
BRANCH   8  11
ATOM     11  C   UNL     1       1.329   8.335  20.107  0.00  0.00    +0.000 A 
ATOM     12  C   UNL     1       1.046   8.324  21.475  0.00  0.00    +0.000 A 
ATOM     13  C   UNL     1       0.285   9.334  22.053  0.00  0.00    +0.000 A 
ATOM     14  C   UNL     1      -0.210  10.372  21.267  0.00  0.00    +0.000 A 
ATOM     15  C   UNL     1       0.052  10.409  19.893  0.00  0.00    +0.000 A 
ATOM     16  C   UNL     1       0.798   9.369  19.323  0.00  0.00    +0.000 A 
BRANCH  15  17
ATOM     17  C   UNL     1      -0.447  11.530  19.010  0.00  0.00    +0.000 C 
BRANCH  17  18
ATOM     18  C   UNL     1      -1.867  11.337  18.569  0.00  0.00    +0.000 C 
ATOM     19  N   UNL     1      -2.880  11.993  19.043  0.00  0.00    +0.000 NA
ATOM     20  N   UNL     1      -4.069  11.489  18.432  0.00  0.00    +0.000 NA
ATOM     21  C   UNL     1      -3.727  10.543  17.620  0.00  0.00    +0.000 C 
ATOM     22  C   UNL     1      -2.260  10.320  17.554  0.00  0.00    +0.000 C 
ENDBRANCH  17  18
ENDBRANCH  15  17
ENDBRANCH   8  11
BRANCH   1  24
ATOM     23  C   UNL     1       7.277   4.510  16.383  0.00  0.00    +0.000 C 
ATOM     24  C   UNL     1       5.869   4.249  15.837  0.00  0.00    +0.000 C 
ATOM     25  C   UNL     1       5.711   4.964  14.496  0.00  0.00    +0.000 C 
ATOM     26  F   UNL     1       5.808   2.904  15.563  0.00  0.00    +0.000 F 
ENDBRANCH   1  24
BRANCH   5  27
ATOM     27  C   UNL     1       2.769   2.879  19.616  0.00  0.00    +0.000 C 
ATOM     28  F   UNL     1       3.083   1.625  19.188  0.00  0.00    +0.000 F 
ATOM     29  F   UNL     1       3.218   2.959  20.898  0.00  0.00    +0.000 F 
ATOM     30  F   UNL     1       1.411   2.916  19.688  0.00  0.00    +0.000 F 
ENDBRANCH   5  27
TORSDOF 5
ENDMDL
MODEL 8
REMARK VINA RESULT:      -8.8      3.845      8.262
REMARK  Name = 
REMARK  7 active torsions:
REMARK  status: ('A' for Active; 'I' for Inactive)
REMARK    1  A    between atoms: C_1  and  C_2
REMARK    2  A    between atoms: C_2  and  C_3
REMARK    3  A    between atoms: C_2  and  C_5
REMARK    4  A    between atoms: C_9  and  C_10
REMARK    5  A    between atoms: N_16  and  C_17
REMARK    6  A    between atoms: C_21  and  C_22
REMARK    7  A    between atoms: C_22  and  C_23
REMARK                            x       y       z     vdW  Elec       q    Type
REMARK                         _______ _______ _______ _____ _____    ______ ____
ROOT
ATOM      1  C   UNL     1       4.747   4.579  16.886  0.00  0.00    +0.000 A 
ATOM      2  C   UNL     1       4.376   5.918  17.031  0.00  0.00    +0.000 A 
ATOM      3  C   UNL     1       3.503   6.234  18.064  0.00  0.00    +0.000 A 
ATOM      4  C   UNL     1       2.983   5.301  18.949  0.00  0.00    +0.000 A 
ATOM      5  C   UNL     1       3.285   3.955  18.801  0.00  0.00    +0.000 A 
ATOM      6  C   UNL     1       4.168   3.613  17.751  0.00  0.00    +0.000 A 
ATOM      7  C   UNL     1       2.125   5.994  19.956  0.00  0.00    +0.000 C 
ATOM      8  N   UNL     1       2.190   7.387  19.537  0.00  0.00    +0.000 N 
ATOM      9  C   UNL     1       2.981   7.553  18.404  0.00  0.00    +0.000 C 
ATOM     10  O   UNL     1       3.239   8.532  17.728  0.00  0.00    +0.000 OA
ENDROOT
BRANCH   8  11
ATOM     11  C   UNL     1       1.345   8.365  20.102  0.00  0.00    +0.000 A 
ATOM     12  C   UNL     1       1.126   8.421  21.481  0.00  0.00    +0.000 A 
ATOM     13  C   UNL     1       0.379   9.451  22.042  0.00  0.00    +0.000 A 
ATOM     14  C   UNL     1      -0.164  10.444  21.229  0.00  0.00    +0.000 A 
ATOM     15  C   UNL     1       0.034  10.413  19.844  0.00  0.00    +0.000 A 
ATOM     16  C   UNL     1       0.765   9.352  19.293  0.00  0.00    +0.000 A 
BRANCH  15  17
ATOM     17  C   UNL     1      -0.518  11.482  18.930  0.00  0.00    +0.000 C 
BRANCH  17  18
ATOM     18  C   UNL     1      -1.796  11.074  18.259  0.00  0.00    +0.000 C 
ATOM     19  N   UNL     1      -1.874  10.225  17.282  0.00  0.00    +0.000 NA
ATOM     20  N   UNL     1      -3.238  10.145  16.864  0.00  0.00    +0.000 NA
ATOM     21  C   UNL     1      -3.927  10.956  17.599  0.00  0.00    +0.000 C 
ATOM     22  C   UNL     1      -3.117  11.652  18.632  0.00  0.00    +0.000 C 
ENDBRANCH  17  18
ENDBRANCH  15  17
ENDBRANCH   8  11
BRANCH   1  24
ATOM     23  C   UNL     1       7.203   4.564  16.315  0.00  0.00    +0.000 C 
ATOM     24  C   UNL     1       5.798   4.151  15.865  0.00  0.00    +0.000 C 
ATOM     25  C   UNL     1       5.535   4.710  14.467  0.00  0.00    +0.000 C 
ATOM     26  F   UNL     1       5.825   2.784  15.732  0.00  0.00    +0.000 F 
ENDBRANCH   1  24
BRANCH   5  27
ATOM     27  C   UNL     1       2.726   2.886  19.703  0.00  0.00    +0.000 C 
ATOM     28  F   UNL     1       3.128   3.003  20.999  0.00  0.00    +0.000 F 
ATOM     29  F   UNL     1       1.366   2.889  19.732  0.00  0.00    +0.000 F 
ATOM     30  F   UNL     1       3.094   1.636  19.312  0.00  0.00    +0.000 F 
ENDBRANCH   5  27
TORSDOF 5
ENDMDL
MODEL 9
REMARK VINA RESULT:      -8.8      3.867      8.445
REMARK  Name = 
REMARK  7 active torsions:
REMARK  status: ('A' for Active; 'I' for Inactive)
REMARK    1  A    between atoms: C_1  and  C_2
REMARK    2  A    between atoms: C_2  and  C_3
REMARK    3  A    between atoms: C_2  and  C_5
REMARK    4  A    between atoms: C_9  and  C_10
REMARK    5  A    between atoms: N_16  and  C_17
REMARK    6  A    between atoms: C_21  and  C_22
REMARK    7  A    between atoms: C_22  and  C_23
REMARK                            x       y       z     vdW  Elec       q    Type
REMARK                         _______ _______ _______ _____ _____    ______ ____
ROOT
ATOM      1  C   UNL     1       4.248   5.310  17.512  0.00  0.00    +0.000 A 
ATOM      2  C   UNL     1       3.833   6.639  17.400  0.00  0.00    +0.000 A 
ATOM      3  C   UNL     1       2.945   7.118  18.354  0.00  0.00    +0.000 A 
ATOM      4  C   UNL     1       2.452   6.354  19.403  0.00  0.00    +0.000 A 
ATOM      5  C   UNL     1       2.799   5.016  19.514  0.00  0.00    +0.000 A 
ATOM      6  C   UNL     1       3.697   4.509  18.547  0.00  0.00    +0.000 A 
ATOM      7  C   UNL     1       1.567   7.198  20.260  0.00  0.00    +0.000 C 
ATOM      8  N   UNL     1       1.588   8.487  19.583  0.00  0.00    +0.000 N 
ATOM      9  C   UNL     1       2.378   8.460  18.437  0.00  0.00    +0.000 C 
ATOM     10  O   UNL     1       2.607   9.299  17.586  0.00  0.00    +0.000 OA
ENDROOT
BRANCH   8  11
ATOM     11  C   UNL     1       0.709   9.526  19.952  0.00  0.00    +0.000 A 
ATOM     12  C   UNL     1       0.686  10.023  21.258  0.00  0.00    +0.000 A 
ATOM     13  C   UNL     1      -0.105  11.118  21.589  0.00  0.00    +0.000 A 
ATOM     14  C   UNL     1      -0.890  11.733  20.616  0.00  0.00    +0.000 A 
ATOM     15  C   UNL     1      -0.893  11.255  19.300  0.00  0.00    +0.000 A 
ATOM     16  C   UNL     1      -0.111  10.134  18.991  0.00  0.00    +0.000 A 
BRANCH  15  17
ATOM     17  C   UNL     1      -1.712  11.908  18.211  0.00  0.00    +0.000 C 
BRANCH  17  18
ATOM     18  C   UNL     1      -3.179  11.620  18.333  0.00  0.00    +0.000 C 
ATOM     19  N   UNL     1      -3.979  12.220  19.158  0.00  0.00    +0.000 NA
ATOM     20  N   UNL     1      -5.276  11.633  19.033  0.00  0.00    +0.000 NA
ATOM     21  C   UNL     1      -5.204  10.697  18.144  0.00  0.00    +0.000 C 
ATOM     22  C   UNL     1      -3.858  10.564  17.530  0.00  0.00    +0.000 C 
ENDBRANCH  17  18
ENDBRANCH  15  17
ENDBRANCH   8  11
BRANCH   1  24
ATOM     23  C   UNL     1       6.689   4.722  17.273  0.00  0.00    +0.000 C 
ATOM     24  C   UNL     1       5.318   4.731  16.590  0.00  0.00    +0.000 C 
ATOM     25  C   UNL     1       5.426   5.475  15.259  0.00  0.00    +0.000 C 
ATOM     26  F   UNL     1       5.038   3.423  16.276  0.00  0.00    +0.000 F 
ENDBRANCH   1  24
BRANCH   5  27
ATOM     27  C   UNL     1       2.272   4.121  20.604  0.00  0.00    +0.000 C 
ATOM     28  F   UNL     1       0.926   3.924  20.543  0.00  0.00    +0.000 F 
ATOM     29  F   UNL     1       2.832   2.881  20.576  0.00  0.00    +0.000 F 
ATOM     30  F   UNL     1       2.518   4.618  21.846  0.00  0.00    +0.000 F 
ENDBRANCH   5  27
TORSDOF 5
ENDMDL
