MODEL 1
REMARK VINA RESULT:      -9.1      0.000      0.000
REMARK  Name = 
REMARK  10 active torsions:
REMARK  status: ('A' for Active; 'I' for Inactive)
REMARK    1  A    between atoms: C_1  and  C_2
REMARK    2  A    between atoms: N_5  and  N_6
REMARK    3  A    between atoms: N_6  and  C_7
REMARK    4  A    between atoms: C_7  and  C_8
REMARK    5  A    between atoms: C_8  and  C_9
REMARK    6  A    between atoms: C_8  and  C_10
REMARK    7  A    between atoms: C_14  and  N_15
REMARK    8  A    between atoms: C_16  and  C_18
REMARK    9  A    between atoms: C_22  and  C_23
REMARK   10  A    between atoms: C_23  and  C_24
REMARK                            x       y       z     vdW  Elec       q    Type
REMARK                         _______ _______ _______ _____ _____    ______ ____
ROOT
ATOM      1  C   UNL     1       5.174   4.879  17.999  0.00  0.00    +0.000 A 
ATOM      2  C   UNL     1       4.459   3.773  17.512  0.00  0.00    +0.000 A 
ATOM      3  C   UNL     1       3.075   3.798  17.445  0.00  0.00    +0.000 A 
ATOM      4  C   UNL     1       2.382   4.917  17.895  0.00  0.00    +0.000 A 
ATOM      5  C   UNL     1       3.055   6.021  18.427  0.00  0.00    +0.000 A 
ATOM      6  C   UNL     1       4.459   6.017  18.431  0.00  0.00    +0.000 A 
ENDROOT
BRANCH   5   7
ATOM      7  N   UNL     1       2.361   7.115  18.995  0.00  0.00    +0.000 N 
ATOM      8  C   UNL     1       2.170   8.343  18.372  0.00  0.00    +0.000 C 
ATOM      9  O   UNL     1       2.587   8.671  17.265  0.00  0.00    +0.000 OA
ATOM     10  H   UNL     1       1.837   6.970  19.853  0.00  0.00    +0.000 HD
BRANCH   8  11
ATOM     11  C   UNL     1       1.320   9.325  19.112  0.00  0.00    +0.000 A 
ATOM     12  C   UNL     1       0.990  10.521  18.482  0.00  0.00    +0.000 A 
ATOM     13  C   UNL     1       0.180  11.423  19.155  0.00  0.00    +0.000 A 
ATOM     14  C   UNL     1      -0.269  11.105  20.433  0.00  0.00    +0.000 A 
ATOM     15  C   UNL     1       0.096   9.881  21.005  0.00  0.00    +0.000 A 
ATOM     16  N   UNL     1       0.891   8.978  20.356  0.00  0.00    +0.000 NA
BRANCH  15  17
ATOM     17  C   UNL     1      -0.420   9.531  22.396  0.00  0.00    +0.000 C 
ATOM     18  C   UNL     1       0.727   9.434  23.387  0.00  0.00    +0.000 C 
ATOM     19  F   UNL     1      -1.313  10.450  22.864  0.00  0.00    +0.000 F 
ATOM     20  F   UNL     1      -1.088   8.335  22.430  0.00  0.00    +0.000 F 
ENDBRANCH  15  17
ENDBRANCH   8  11
ENDBRANCH   5   7
BRANCH   1  21
ATOM     21  C   UNL     1       6.691   4.803  18.125  0.00  0.00    +0.000 C 
ATOM     22  C   UNL     1       7.246   6.102  18.731  0.00  0.00    +0.000 C 
BRANCH  21  23
ATOM     23  C   UNL     1       7.312   4.486  16.740  0.00  0.00    +0.000 C 
BRANCH  23  24
ATOM     24  N   UNL     1       7.355   5.650  15.846  0.00  0.00    +0.000 N 
ATOM     25  H   UNL     1       6.511   6.212  15.962  0.00  0.00    +0.000 HD
BRANCH  24  30
ATOM     26  C   UNL     1       5.570   3.102  11.905  0.00  0.00    +0.000 C 
ATOM     27  C   UNL     1       6.351   3.848  12.885  0.00  0.00    +0.000 C 
ATOM     28  C   UNL     1       5.676   3.779  14.068  0.00  0.00    +0.000 C 
ATOM     29  C   UNL     1       6.773   4.581  14.038  0.00  0.00    +0.000 C 
ATOM     30  N   UNL     1       7.596   5.364  14.542  0.00  0.00    +0.000 NA
ENDBRANCH  24  30
ENDBRANCH  23  24
ENDBRANCH  21  23
ENDBRANCH   1  21
TORSDOF 7
ENDMDL
MODEL 2
REMARK VINA RESULT:      -8.9      1.553      2.327
REMARK  Name = 
REMARK  10 active torsions:
REMARK  status: ('A' for Active; 'I' for Inactive)
REMARK    1  A    between atoms: C_1  and  C_2
REMARK    2  A    between atoms: N_5  and  N_6
REMARK    3  A    between atoms: N_6  and  C_7
REMARK    4  A    between atoms: C_7  and  C_8
REMARK    5  A    between atoms: C_8  and  C_9
REMARK    6  A    between atoms: C_8  and  C_10
REMARK    7  A    between atoms: C_14  and  N_15
REMARK    8  A    between atoms: C_16  and  C_18
REMARK    9  A    between atoms: C_22  and  C_23
REMARK   10  A    between atoms: C_23  and  C_24
REMARK                            x       y       z     vdW  Elec       q    Type
REMARK                         _______ _______ _______ _____ _____    ______ ____
ROOT
ATOM      1  C   UNL     1       5.240   4.932  17.977  0.00  0.00    +0.000 A 
ATOM      2  C   UNL     1       4.530   3.843  17.443  0.00  0.00    +0.000 A 
ATOM      3  C   UNL     1       3.146   3.864  17.379  0.00  0.00    +0.000 A 
ATOM      4  C   UNL     1       2.448   4.959  17.877  0.00  0.00    +0.000 A 
ATOM      5  C   UNL     1       3.116   6.043  18.455  0.00  0.00    +0.000 A 
ATOM      6  C   UNL     1       4.519   6.046  18.458  0.00  0.00    +0.000 A 
ENDROOT
BRANCH   5   7
ATOM      7  N   UNL     1       2.417   7.108  19.070  0.00  0.00    +0.000 N 
ATOM      8  C   UNL     1       2.128   8.324  18.461  0.00  0.00    +0.000 C 
ATOM      9  O   UNL     1       2.452   8.666  17.327  0.00  0.00    +0.000 OA
ATOM     10  H   UNL     1       1.962   6.943  19.963  0.00  0.00    +0.000 HD
BRANCH   8  11
ATOM     11  C   UNL     1       1.292   9.271  19.260  0.00  0.00    +0.000 A 
ATOM     12  C   UNL     1       0.891   8.885  20.535  0.00  0.00    +0.000 A 
ATOM     13  C   UNL     1       0.137   9.771  21.290  0.00  0.00    +0.000 A 
ATOM     14  C   UNL     1      -0.194  11.008  20.747  0.00  0.00    +0.000 A 
ATOM     15  C   UNL     1       0.247  11.335  19.460  0.00  0.00    +0.000 A 
ATOM     16  N   UNL     1       0.993  10.475  18.702  0.00  0.00    +0.000 NA
BRANCH  15  17
ATOM     17  C   UNL     1      -0.102  12.701  18.882  0.00  0.00    +0.000 C 
ATOM     18  C   UNL     1       1.147  13.409  18.385  0.00  0.00    +0.000 C 
ATOM     19  F   UNL     1      -0.986  12.617  17.847  0.00  0.00    +0.000 F 
ATOM     20  F   UNL     1      -0.700  13.528  19.796  0.00  0.00    +0.000 F 
ENDBRANCH  15  17
ENDBRANCH   8  11
ENDBRANCH   5   7
BRANCH   1  21
ATOM     21  C   UNL     1       6.758   4.858  18.097  0.00  0.00    +0.000 C 
ATOM     22  C   UNL     1       7.318   6.179  18.649  0.00  0.00    +0.000 C 
BRANCH  21  23
ATOM     23  C   UNL     1       7.372   4.486  16.723  0.00  0.00    +0.000 C 
BRANCH  23  24
ATOM     24  N   UNL     1       7.375   5.604  15.771  0.00  0.00    +0.000 N 
ATOM     25  H   UNL     1       6.523   6.156  15.875  0.00  0.00    +0.000 HD
BRANCH  24  30
ATOM     26  C   UNL     1       5.368   3.145  11.881  0.00  0.00    +0.000 C 
ATOM     27  C   UNL     1       6.214   3.832  12.849  0.00  0.00    +0.000 C 
ATOM     28  C   UNL     1       5.524   3.869  14.025  0.00  0.00    +0.000 C 
ATOM     29  C   UNL     1       6.700   4.550  13.986  0.00  0.00    +0.000 C 
ATOM     30  N   UNL     1       7.597   5.256  14.479  0.00  0.00    +0.000 NA
ENDBRANCH  24  30
ENDBRANCH  23  24
ENDBRANCH  21  23
ENDBRANCH   1  21
TORSDOF 7
ENDMDL
MODEL 3
REMARK VINA RESULT:      -8.7      1.681      2.395
REMARK  Name = 
REMARK  10 active torsions:
REMARK  status: ('A' for Active; 'I' for Inactive)
REMARK    1  A    between atoms: C_1  and  C_2
REMARK    2  A    between atoms: N_5  and  N_6
REMARK    3  A    between atoms: N_6  and  C_7
REMARK    4  A    between atoms: C_7  and  C_8
REMARK    5  A    between atoms: C_8  and  C_9
REMARK    6  A    between atoms: C_8  and  C_10
REMARK    7  A    between atoms: C_14  and  N_15
REMARK    8  A    between atoms: C_16  and  C_18
REMARK    9  A    between atoms: C_22  and  C_23
REMARK   10  A    between atoms: C_23  and  C_24
REMARK                            x       y       z     vdW  Elec       q    Type
REMARK                         _______ _______ _______ _____ _____    ______ ____
ROOT
ATOM      1  C   UNL     1       5.323   4.949  17.948  0.00  0.00    +0.000 A 
ATOM      2  C   UNL     1       4.616   3.848  17.439  0.00  0.00    +0.000 A 
ATOM      3  C   UNL     1       3.233   3.872  17.352  0.00  0.00    +0.000 A 
ATOM      4  C   UNL     1       2.533   4.985  17.804  0.00  0.00    +0.000 A 
ATOM      5  C   UNL     1       3.197   6.084  18.358  0.00  0.00    +0.000 A 
ATOM      6  C   UNL     1       4.600   6.081  18.383  0.00  0.00    +0.000 A 
ENDROOT
BRANCH   5   7
ATOM      7  N   UNL     1       2.493   7.171  18.929  0.00  0.00    +0.000 N 
ATOM      8  C   UNL     1       1.841   7.137  20.156  0.00  0.00    +0.000 C 
ATOM      9  O   UNL     1       1.752   6.171  20.908  0.00  0.00    +0.000 OA
ATOM     10  H   UNL     1       2.579   8.088  18.500  0.00  0.00    +0.000 HD
BRANCH   8  11
ATOM     11  C   UNL     1       1.246   8.430  20.614  0.00  0.00    +0.000 A 
ATOM     12  C   UNL     1       0.978   8.590  21.970  0.00  0.00    +0.000 A 
ATOM     13  C   UNL     1       0.451   9.797  22.404  0.00  0.00    +0.000 A 
ATOM     14  C   UNL     1       0.206  10.800  21.471  0.00  0.00    +0.000 A 
ATOM     15  C   UNL     1       0.505  10.575  20.123  0.00  0.00    +0.000 A 
ATOM     16  N   UNL     1       1.028   9.392  19.678  0.00  0.00    +0.000 NA
BRANCH  15  17
ATOM     17  C   UNL     1       0.256  11.688  19.112  0.00  0.00    +0.000 C 
ATOM     18  C   UNL     1       1.567  12.308  18.661  0.00  0.00    +0.000 C 
ATOM     19  F   UNL     1      -0.411  11.246  18.007  0.00  0.00    +0.000 F 
ATOM     20  F   UNL     1      -0.519  12.699  19.616  0.00  0.00    +0.000 F 
ENDBRANCH  15  17
ENDBRANCH   8  11
ENDBRANCH   5   7
BRANCH   1  21
ATOM     21  C   UNL     1       6.838   4.873  18.095  0.00  0.00    +0.000 C 
ATOM     22  C   UNL     1       7.390   6.189  18.667  0.00  0.00    +0.000 C 
BRANCH  21  23
ATOM     23  C   UNL     1       7.475   4.512  16.729  0.00  0.00    +0.000 C 
BRANCH  23  24
ATOM     24  N   UNL     1       7.391   5.599  15.747  0.00  0.00    +0.000 N 
ATOM     25  H   UNL     1       6.508   6.098  15.851  0.00  0.00    +0.000 HD
BRANCH  24  30
ATOM     26  C   UNL     1       5.350   3.147  11.870  0.00  0.00    +0.000 C 
ATOM     27  C   UNL     1       6.206   3.824  12.837  0.00  0.00    +0.000 C 
ATOM     28  C   UNL     1       5.508   3.894  14.007  0.00  0.00    +0.000 C 
ATOM     29  C   UNL     1       6.702   4.542  13.969  0.00  0.00    +0.000 C 
ATOM     30  N   UNL     1       7.614   5.229  14.460  0.00  0.00    +0.000 NA
ENDBRANCH  24  30
ENDBRANCH  23  24
ENDBRANCH  21  23
ENDBRANCH   1  21
TORSDOF 7
ENDMDL
MODEL 4
REMARK VINA RESULT:      -8.7      1.357      2.078
REMARK  Name = 
REMARK  10 active torsions:
REMARK  status: ('A' for Active; 'I' for Inactive)
REMARK    1  A    between atoms: C_1  and  C_2
REMARK    2  A    between atoms: N_5  and  N_6
REMARK    3  A    between atoms: N_6  and  C_7
REMARK    4  A    between atoms: C_7  and  C_8
REMARK    5  A    between atoms: C_8  and  C_9
REMARK    6  A    between atoms: C_8  and  C_10
REMARK    7  A    between atoms: C_14  and  N_15
REMARK    8  A    between atoms: C_16  and  C_18
REMARK    9  A    between atoms: C_22  and  C_23
REMARK   10  A    between atoms: C_23  and  C_24
REMARK                            x       y       z     vdW  Elec       q    Type
REMARK                         _______ _______ _______ _____ _____    ______ ____
ROOT
ATOM      1  C   UNL     1       5.616   4.863  18.582  0.00  0.00    +0.000 A 
ATOM      2  C   UNL     1       5.027   3.628  18.264  0.00  0.00    +0.000 A 
ATOM      3  C   UNL     1       3.668   3.424  18.443  0.00  0.00    +0.000 A 
ATOM      4  C   UNL     1       2.882   4.440  18.975  0.00  0.00    +0.000 A 
ATOM      5  C   UNL     1       3.438   5.669  19.346  0.00  0.00    +0.000 A 
ATOM      6  C   UNL     1       4.802   5.893  19.100  0.00  0.00    +0.000 A 
ENDROOT
BRANCH   5   7
ATOM      7  N   UNL     1       2.675   6.668  19.995  0.00  0.00    +0.000 N 
ATOM      8  C   UNL     1       2.134   7.785  19.369  0.00  0.00    +0.000 C 
ATOM      9  O   UNL     1       2.255   8.087  18.185  0.00  0.00    +0.000 OA
ATOM     10  H   UNL     1       2.368   6.506  20.950  0.00  0.00    +0.000 HD
BRANCH   8  11
ATOM     11  C   UNL     1       1.277   8.661  20.225  0.00  0.00    +0.000 A 
ATOM     12  C   UNL     1       1.289   8.457  21.601  0.00  0.00    +0.000 A 
ATOM     13  C   UNL     1       0.516   9.284  22.401  0.00  0.00    +0.000 A 
ATOM     14  C   UNL     1      -0.244  10.284  21.803  0.00  0.00    +0.000 A 
ATOM     15  C   UNL     1      -0.205  10.439  20.412  0.00  0.00    +0.000 A 
ATOM     16  N   UNL     1       0.553   9.634  19.608  0.00  0.00    +0.000 NA
BRANCH  15  17
ATOM     17  C   UNL     1      -1.023  11.551  19.768  0.00  0.00    +0.000 C 
ATOM     18  C   UNL     1      -0.210  12.830  19.672  0.00  0.00    +0.000 C 
ATOM     19  F   UNL     1      -1.451  11.222  18.515  0.00  0.00    +0.000 F 
ATOM     20  F   UNL     1      -2.163  11.847  20.468  0.00  0.00    +0.000 F 
ENDBRANCH  15  17
ENDBRANCH   8  11
ENDBRANCH   5   7
BRANCH   1  21
ATOM     21  C   UNL     1       7.123   5.042  18.438  0.00  0.00    +0.000 C 
ATOM     22  C   UNL     1       7.522   6.497  18.730  0.00  0.00    +0.000 C 
BRANCH  21  23
ATOM     23  C   UNL     1       7.569   4.580  17.027  0.00  0.00    +0.000 C 
BRANCH  23  24
ATOM     24  N   UNL     1       7.374   5.606  15.996  0.00  0.00    +0.000 N 
ATOM     25  H   UNL     1       6.435   5.998  16.063  0.00  0.00    +0.000 HD
BRANCH  24  30
ATOM     26  C   UNL     1       5.498   3.194  12.012  0.00  0.00    +0.000 C 
ATOM     27  C   UNL     1       6.315   3.846  13.029  0.00  0.00    +0.000 C 
ATOM     28  C   UNL     1       5.543   3.959  14.148  0.00  0.00    +0.000 C 
ATOM     29  C   UNL     1       6.763   4.557  14.185  0.00  0.00    +0.000 C 
ATOM     30  N   UNL     1       7.668   5.212  14.731  0.00  0.00    +0.000 NA
ENDBRANCH  24  30
ENDBRANCH  23  24
ENDBRANCH  21  23
ENDBRANCH   1  21
TORSDOF 7
ENDMDL
MODEL 5
REMARK VINA RESULT:      -8.5      0.920      1.186
REMARK  Name = 
REMARK  10 active torsions:
REMARK  status: ('A' for Active; 'I' for Inactive)
REMARK    1  A    between atoms: C_1  and  C_2
REMARK    2  A    between atoms: N_5  and  N_6
REMARK    3  A    between atoms: N_6  and  C_7
REMARK    4  A    between atoms: C_7  and  C_8
REMARK    5  A    between atoms: C_8  and  C_9
REMARK    6  A    between atoms: C_8  and  C_10
REMARK    7  A    between atoms: C_14  and  N_15
REMARK    8  A    between atoms: C_16  and  C_18
REMARK    9  A    between atoms: C_22  and  C_23
REMARK   10  A    between atoms: C_23  and  C_24
REMARK                            x       y       z     vdW  Elec       q    Type
REMARK                         _______ _______ _______ _____ _____    ______ ____
ROOT
ATOM      1  C   UNL     1       5.033   4.689  17.508  0.00  0.00    +0.000 A 
ATOM      2  C   UNL     1       4.325   3.519  17.189  0.00  0.00    +0.000 A 
ATOM      3  C   UNL     1       2.945   3.471  17.309  0.00  0.00    +0.000 A 
ATOM      4  C   UNL     1       2.255   4.581  17.783  0.00  0.00    +0.000 A 
ATOM      5  C   UNL     1       2.927   5.750  18.152  0.00  0.00    +0.000 A 
ATOM      6  C   UNL     1       4.317   5.816  17.966  0.00  0.00    +0.000 A 
ENDROOT
BRANCH   5   7
ATOM      7  N   UNL     1       2.252   6.844  18.745  0.00  0.00    +0.000 N 
ATOM      8  C   UNL     1       2.234   8.136  18.232  0.00  0.00    +0.000 C 
ATOM      9  O   UNL     1       2.811   8.527  17.221  0.00  0.00    +0.000 OA
ATOM     10  H   UNL     1       1.615   6.666  19.516  0.00  0.00    +0.000 HD
BRANCH   8  11
ATOM     11  C   UNL     1       1.376   9.116  18.965  0.00  0.00    +0.000 A 
ATOM     12  C   UNL     1       0.896  10.223  18.271  0.00  0.00    +0.000 A 
ATOM     13  C   UNL     1       0.077  11.121  18.940  0.00  0.00    +0.000 A 
ATOM     14  C   UNL     1      -0.231  10.887  20.276  0.00  0.00    +0.000 A 
ATOM     15  C   UNL     1       0.280   9.749  20.911  0.00  0.00    +0.000 A 
ATOM     16  N   UNL     1       1.086   8.852  20.268  0.00  0.00    +0.000 NA
BRANCH  15  17
ATOM     17  C   UNL     1      -0.084   9.489  22.368  0.00  0.00    +0.000 C 
ATOM     18  C   UNL     1      -0.827  10.676  22.957  0.00  0.00    +0.000 C 
ATOM     19  F   UNL     1      -0.863   8.379  22.519  0.00  0.00    +0.000 F 
ATOM     20  F   UNL     1       1.013   9.265  23.158  0.00  0.00    +0.000 F 
ENDBRANCH  15  17
ENDBRANCH   8  11
ENDBRANCH   5   7
BRANCH   1  21
ATOM     21  C   UNL     1       6.556   4.697  17.431  0.00  0.00    +0.000 C 
ATOM     22  C   UNL     1       7.152   5.428  18.644  0.00  0.00    +0.000 C 
BRANCH  21  23
ATOM     23  C   UNL     1       7.004   5.324  16.086  0.00  0.00    +0.000 C 
BRANCH  23  24
ATOM     24  N   UNL     1       6.802   4.433  14.937  0.00  0.00    +0.000 N 
ATOM     25  H   UNL     1       7.536   4.581  14.244  0.00  0.00    +0.000 HD
BRANCH  24  30
ATOM     26  C   UNL     1       4.133   2.942  10.955  0.00  0.00    +0.000 C 
ATOM     27  C   UNL     1       4.675   3.575  12.151  0.00  0.00    +0.000 C 
ATOM     28  C   UNL     1       5.996   3.241  12.215  0.00  0.00    +0.000 C 
ATOM     29  C   UNL     1       5.488   3.925  13.274  0.00  0.00    +0.000 C 
ATOM     30  N   UNL     1       5.565   4.482  14.382  0.00  0.00    +0.000 NA
ENDBRANCH  24  30
ENDBRANCH  23  24
ENDBRANCH  21  23
ENDBRANCH   1  21
TORSDOF 7
ENDMDL
MODEL 6
REMARK VINA RESULT:      -8.3      2.180      2.845
REMARK  Name = 
REMARK  10 active torsions:
REMARK  status: ('A' for Active; 'I' for Inactive)
REMARK    1  A    between atoms: C_1  and  C_2
REMARK    2  A    between atoms: N_5  and  N_6
REMARK    3  A    between atoms: N_6  and  C_7
REMARK    4  A    between atoms: C_7  and  C_8
REMARK    5  A    between atoms: C_8  and  C_9
REMARK    6  A    between atoms: C_8  and  C_10
REMARK    7  A    between atoms: C_14  and  N_15
REMARK    8  A    between atoms: C_16  and  C_18
REMARK    9  A    between atoms: C_22  and  C_23
REMARK   10  A    between atoms: C_23  and  C_24
REMARK                            x       y       z     vdW  Elec       q    Type
REMARK                         _______ _______ _______ _____ _____    ______ ____
ROOT
ATOM      1  C   UNL     1       5.016   5.983  17.888  0.00  0.00    +0.000 A 
ATOM      2  C   UNL     1       4.485   4.706  18.134  0.00  0.00    +0.000 A 
ATOM      3  C   UNL     1       3.116   4.513  18.223  0.00  0.00    +0.000 A 
ATOM      4  C   UNL     1       2.257   5.600  18.101  0.00  0.00    +0.000 A 
ATOM      5  C   UNL     1       2.747   6.894  17.899  0.00  0.00    +0.000 A 
ATOM      6  C   UNL     1       4.131   7.073  17.744  0.00  0.00    +0.000 A 
ENDROOT
BRANCH   5   7
ATOM      7  N   UNL     1       1.895   8.023  17.890  0.00  0.00    +0.000 N 
ATOM      8  C   UNL     1       1.464   8.700  19.026  0.00  0.00    +0.000 C 
ATOM      9  O   UNL     1       1.729   8.414  20.190  0.00  0.00    +0.000 OA
ATOM     10  H   UNL     1       1.688   8.473  17.004  0.00  0.00    +0.000 HD
BRANCH   8  11
ATOM     11  C   UNL     1       0.647   9.928  18.781  0.00  0.00    +0.000 A 
ATOM     12  C   UNL     1       1.205  11.165  19.091  0.00  0.00    +0.000 A 
ATOM     13  C   UNL     1       0.462  12.309  18.842  0.00  0.00    +0.000 A 
ATOM     14  C   UNL     1      -0.811  12.181  18.296  0.00  0.00    +0.000 A 
ATOM     15  C   UNL     1      -1.309  10.906  18.002  0.00  0.00    +0.000 A 
ATOM     16  N   UNL     1      -0.590   9.767  18.239  0.00  0.00    +0.000 NA
BRANCH  15  17
ATOM     17  C   UNL     1      -2.695  10.777  17.383  0.00  0.00    +0.000 C 
ATOM     18  C   UNL     1      -2.596  10.557  15.883  0.00  0.00    +0.000 C 
ATOM     19  F   UNL     1      -3.410   9.746  17.920  0.00  0.00    +0.000 F 
ATOM     20  F   UNL     1      -3.471  11.889  17.579  0.00  0.00    +0.000 F 
ENDBRANCH  15  17
ENDBRANCH   8  11
ENDBRANCH   5   7
BRANCH   1  21
ATOM     21  C   UNL     1       6.527   6.182  17.860  0.00  0.00    +0.000 C 
ATOM     22  C   UNL     1       6.871   7.656  17.592  0.00  0.00    +0.000 C 
BRANCH  21  23
ATOM     23  C   UNL     1       7.157   5.229  16.812  0.00  0.00    +0.000 C 
BRANCH  23  24
ATOM     24  N   UNL     1       7.421   5.881  15.524  0.00  0.00    +0.000 N 
ATOM     25  H   UNL     1       6.649   6.501  15.280  0.00  0.00    +0.000 HD
BRANCH  24  30
ATOM     26  C   UNL     1       5.406   2.931  11.997  0.00  0.00    +0.000 C 
ATOM     27  C   UNL     1       6.248   3.624  12.964  0.00  0.00    +0.000 C 
ATOM     28  C   UNL     1       5.415   4.296  13.810  0.00  0.00    +0.000 C 
ATOM     29  C   UNL     1       6.747   4.517  13.963  0.00  0.00    +0.000 C 
ATOM     30  N   UNL     1       7.735   5.039  14.508  0.00  0.00    +0.000 NA
ENDBRANCH  24  30
ENDBRANCH  23  24
ENDBRANCH  21  23
ENDBRANCH   1  21
TORSDOF 7
ENDMDL
MODEL 7
REMARK VINA RESULT:      -8.1      2.533      4.237
REMARK  Name = 
REMARK  10 active torsions:
REMARK  status: ('A' for Active; 'I' for Inactive)
REMARK    1  A    between atoms: C_1  and  C_2
REMARK    2  A    between atoms: N_5  and  N_6
REMARK    3  A    between atoms: N_6  and  C_7
REMARK    4  A    between atoms: C_7  and  C_8
REMARK    5  A    between atoms: C_8  and  C_9
REMARK    6  A    between atoms: C_8  and  C_10
REMARK    7  A    between atoms: C_14  and  N_15
REMARK    8  A    between atoms: C_16  and  C_18
REMARK    9  A    between atoms: C_22  and  C_23
REMARK   10  A    between atoms: C_23  and  C_24
REMARK                            x       y       z     vdW  Elec       q    Type
REMARK                         _______ _______ _______ _____ _____    ______ ____
ROOT
ATOM      1  C   UNL     1       5.087   5.541  16.997  0.00  0.00    +0.000 A 
ATOM      2  C   UNL     1       4.565   4.238  16.950  0.00  0.00    +0.000 A 
ATOM      3  C   UNL     1       3.290   3.968  17.422  0.00  0.00    +0.000 A 
ATOM      4  C   UNL     1       2.530   4.991  17.978  0.00  0.00    +0.000 A 
ATOM      5  C   UNL     1       3.030   6.293  18.082  0.00  0.00    +0.000 A 
ATOM      6  C   UNL     1       4.295   6.573  17.543  0.00  0.00    +0.000 A 
ENDROOT
BRANCH   5   7
ATOM      7  N   UNL     1       2.317   7.316  18.750  0.00  0.00    +0.000 N 
ATOM      8  C   UNL     1       1.831   7.225  20.050  0.00  0.00    +0.000 C 
ATOM      9  O   UNL     1       1.920   6.254  20.795  0.00  0.00    +0.000 OA
ATOM     10  H   UNL     1       2.269   8.237  18.325  0.00  0.00    +0.000 HD
BRANCH   8  11
ATOM     11  C   UNL     1       1.192   8.462  20.595  0.00  0.00    +0.000 A 
ATOM     12  C   UNL     1       1.256   8.689  21.966  0.00  0.00    +0.000 A 
ATOM     13  C   UNL     1       0.688   9.849  22.474  0.00  0.00    +0.000 A 
ATOM     14  C   UNL     1       0.075  10.738  21.598  0.00  0.00    +0.000 A 
ATOM     15  C   UNL     1       0.052  10.451  20.228  0.00  0.00    +0.000 A 
ATOM     16  N   UNL     1       0.609   9.315  19.710  0.00  0.00    +0.000 NA
BRANCH  15  17
ATOM     17  C   UNL     1      -0.601  11.443  19.274  0.00  0.00    +0.000 C 
ATOM     18  C   UNL     1      -1.148  10.731  18.049  0.00  0.00    +0.000 C 
ATOM     19  F   UNL     1      -1.624  12.130  19.860  0.00  0.00    +0.000 F 
ATOM     20  F   UNL     1       0.266  12.406  18.831  0.00  0.00    +0.000 F 
ENDBRANCH  15  17
ENDBRANCH   8  11
ENDBRANCH   5   7
BRANCH   1  21
ATOM     21  C   UNL     1       6.516   5.800  16.533  0.00  0.00    +0.000 C 
ATOM     22  C   UNL     1       6.875   4.878  15.356  0.00  0.00    +0.000 C 
BRANCH  21  23
ATOM     23  C   UNL     1       7.489   5.636  17.729  0.00  0.00    +0.000 C 
BRANCH  23  24
ATOM     24  N   UNL     1       7.821   6.908  18.382  0.00  0.00    +0.000 N 
ATOM     25  H   UNL     1       7.243   7.038  19.212  0.00  0.00    +0.000 HD
BRANCH  24  30
ATOM     26  C   UNL     1       9.317  11.688  18.026  0.00  0.00    +0.000 C 
ATOM     27  C   UNL     1       8.688  10.378  17.902  0.00  0.00    +0.000 C 
ATOM     28  C   UNL     1       8.994   9.679  19.032  0.00  0.00    +0.000 C 
ATOM     29  C   UNL     1       8.335   9.001  18.056  0.00  0.00    +0.000 C 
ATOM     30  N   UNL     1       7.790   7.995  17.570  0.00  0.00    +0.000 NA
ENDBRANCH  24  30
ENDBRANCH  23  24
ENDBRANCH  21  23
ENDBRANCH   1  21
TORSDOF 7
ENDMDL
MODEL 8
REMARK VINA RESULT:      -8.1      2.604      4.233
REMARK  Name = 
REMARK  10 active torsions:
REMARK  status: ('A' for Active; 'I' for Inactive)
REMARK    1  A    between atoms: C_1  and  C_2
REMARK    2  A    between atoms: N_5  and  N_6
REMARK    3  A    between atoms: N_6  and  C_7
REMARK    4  A    between atoms: C_7  and  C_8
REMARK    5  A    between atoms: C_8  and  C_9
REMARK    6  A    between atoms: C_8  and  C_10
REMARK    7  A    between atoms: C_14  and  N_15
REMARK    8  A    between atoms: C_16  and  C_18
REMARK    9  A    between atoms: C_22  and  C_23
REMARK   10  A    between atoms: C_23  and  C_24
REMARK                            x       y       z     vdW  Elec       q    Type
REMARK                         _______ _______ _______ _____ _____    ______ ____
ROOT
ATOM      1  C   UNL     1       4.931   5.520  17.420  0.00  0.00    +0.000 A 
ATOM      2  C   UNL     1       4.311   4.294  17.129  0.00  0.00    +0.000 A 
ATOM      3  C   UNL     1       2.960   4.107  17.379  0.00  0.00    +0.000 A 
ATOM      4  C   UNL     1       2.216   5.131  17.953  0.00  0.00    +0.000 A 
ATOM      5  C   UNL     1       2.806   6.351  18.298  0.00  0.00    +0.000 A 
ATOM      6  C   UNL     1       4.158   6.559  17.982  0.00  0.00    +0.000 A 
ENDROOT
BRANCH   5   7
ATOM      7  N   UNL     1       2.091   7.358  18.988  0.00  0.00    +0.000 N 
ATOM      8  C   UNL     1       1.754   8.598  18.458  0.00  0.00    +0.000 C 
ATOM      9  O   UNL     1       2.043   9.014  17.340  0.00  0.00    +0.000 OA
ATOM     10  H   UNL     1       1.660   7.128  19.879  0.00  0.00    +0.000 HD
BRANCH   8  11
ATOM     11  C   UNL     1       0.908   9.471  19.327  0.00  0.00    +0.000 A 
ATOM     12  C   UNL     1       1.031   9.347  20.708  0.00  0.00    +0.000 A 
ATOM     13  C   UNL     1       0.268  10.174  21.519  0.00  0.00    +0.000 A 
ATOM     14  C   UNL     1      -0.593  11.092  20.926  0.00  0.00    +0.000 A 
ATOM     15  C   UNL     1      -0.662  11.169  19.530  0.00  0.00    +0.000 A 
ATOM     16  N   UNL     1       0.084  10.364  18.715  0.00  0.00    +0.000 NA
BRANCH  15  17
ATOM     17  C   UNL     1      -1.591  12.195  18.890  0.00  0.00    +0.000 C 
ATOM     18  C   UNL     1      -2.696  12.594  19.853  0.00  0.00    +0.000 C 
ATOM     19  F   UNL     1      -0.930  13.325  18.506  0.00  0.00    +0.000 F 
ATOM     20  F   UNL     1      -2.193  11.729  17.752  0.00  0.00    +0.000 F 
ENDBRANCH  15  17
ENDBRANCH   8  11
ENDBRANCH   5   7
BRANCH   1  21
ATOM     21  C   UNL     1       6.431   5.681  17.198  0.00  0.00    +0.000 C 
ATOM     22  C   UNL     1       7.015   4.421  16.539  0.00  0.00    +0.000 C 
BRANCH  21  23
ATOM     23  C   UNL     1       7.122   6.016  18.545  0.00  0.00    +0.000 C 
BRANCH  23  24
ATOM     24  N   UNL     1       8.174   7.032  18.417  0.00  0.00    +0.000 N 
ATOM     25  H   UNL     1       8.530   7.286  19.338  0.00  0.00    +0.000 HD
BRANCH  24  30
ATOM     26  C   UNL     1       8.954  11.973  17.993  0.00  0.00    +0.000 C 
ATOM     27  C   UNL     1       8.479  10.596  17.940  0.00  0.00    +0.000 C 
ATOM     28  C   UNL     1       9.111   9.917  18.940  0.00  0.00    +0.000 C 
ATOM     29  C   UNL     1       8.341   9.181  18.095  0.00  0.00    +0.000 C 
ATOM     30  N   UNL     1       7.831   8.124  17.688  0.00  0.00    +0.000 NA
ENDBRANCH  24  30
ENDBRANCH  23  24
ENDBRANCH  21  23
ENDBRANCH   1  21
TORSDOF 7
ENDMDL
MODEL 9
REMARK VINA RESULT:      -8.1      2.301      4.156
REMARK  Name = 
REMARK  10 active torsions:
REMARK  status: ('A' for Active; 'I' for Inactive)
REMARK    1  A    between atoms: C_1  and  C_2
REMARK    2  A    between atoms: N_5  and  N_6
REMARK    3  A    between atoms: N_6  and  C_7
REMARK    4  A    between atoms: C_7  and  C_8
REMARK    5  A    between atoms: C_8  and  C_9
REMARK    6  A    between atoms: C_8  and  C_10
REMARK    7  A    between atoms: C_14  and  N_15
REMARK    8  A    between atoms: C_16  and  C_18
REMARK    9  A    between atoms: C_22  and  C_23
REMARK   10  A    between atoms: C_23  and  C_24
REMARK                            x       y       z     vdW  Elec       q    Type
REMARK                         _______ _______ _______ _____ _____    ______ ____
ROOT
ATOM      1  C   UNL     1       4.624   5.242  16.779  0.00  0.00    +0.000 A 
ATOM      2  C   UNL     1       4.046   3.964  16.700  0.00  0.00    +0.000 A 
ATOM      3  C   UNL     1       2.878   3.673  17.386  0.00  0.00    +0.000 A 
ATOM      4  C   UNL     1       2.287   4.644  18.187  0.00  0.00    +0.000 A 
ATOM      5  C   UNL     1       2.855   5.914  18.326  0.00  0.00    +0.000 A 
ATOM      6  C   UNL     1       4.001   6.224  17.578  0.00  0.00    +0.000 A 
ENDROOT
BRANCH   5   7
ATOM      7  N   UNL     1       2.332   6.872  19.226  0.00  0.00    +0.000 N 
ATOM      8  C   UNL     1       1.927   8.154  18.874  0.00  0.00    +0.000 C 
ATOM      9  O   UNL     1       1.985   8.654  17.754  0.00  0.00    +0.000 OA
ATOM     10  H   UNL     1       2.093   6.578  20.169  0.00  0.00    +0.000 HD
BRANCH   8  11
ATOM     11  C   UNL     1       1.311   8.967  19.966  0.00  0.00    +0.000 A 
ATOM     12  C   UNL     1       1.132   8.373  21.212  0.00  0.00    +0.000 A 
ATOM     13  C   UNL     1       0.585   9.131  22.236  0.00  0.00    +0.000 A 
ATOM     14  C   UNL     1       0.231  10.453  21.982  0.00  0.00    +0.000 A 
ATOM     15  C   UNL     1       0.444  10.989  20.707  0.00  0.00    +0.000 A 
ATOM     16  N   UNL     1       0.985  10.258  19.686  0.00  0.00    +0.000 NA
BRANCH  15  17
ATOM     17  C   UNL     1       0.075  12.445  20.445  0.00  0.00    +0.000 C 
ATOM     18  C   UNL     1       1.244  13.361  20.762  0.00  0.00    +0.000 C 
ATOM     19  F   UNL     1      -0.299  12.660  19.151  0.00  0.00    +0.000 F 
ATOM     20  F   UNL     1      -0.988  12.868  21.199  0.00  0.00    +0.000 F 
ENDBRANCH  15  17
ENDBRANCH   8  11
ENDBRANCH   5   7
BRANCH   1  21
ATOM     21  C   UNL     1       5.945   5.520  16.069  0.00  0.00    +0.000 C 
ATOM     22  C   UNL     1       6.305   4.358  15.129  0.00  0.00    +0.000 C 
BRANCH  21  23
ATOM     23  C   UNL     1       7.052   5.793  17.119  0.00  0.00    +0.000 C 
BRANCH  23  24
ATOM     24  N   UNL     1       7.452   7.204  17.181  0.00  0.00    +0.000 N 
ATOM     25  H   UNL     1       7.950   7.466  16.331  0.00  0.00    +0.000 HD
BRANCH  24  30
ATOM     26  C   UNL     1       9.494  11.128  19.557  0.00  0.00    +0.000 C 
ATOM     27  C   UNL     1       9.081   9.822  19.057  0.00  0.00    +0.000 C 
ATOM     28  C   UNL     1       8.472  10.030  17.854  0.00  0.00    +0.000 C 
ATOM     29  C   UNL     1       8.438   8.763  18.343  0.00  0.00    +0.000 C 
ATOM     30  N   UNL     1       8.138   7.557  18.297  0.00  0.00    +0.000 NA
ENDBRANCH  24  30
ENDBRANCH  23  24
ENDBRANCH  21  23
ENDBRANCH   1  21
TORSDOF 7
ENDMDL
