MODEL 1
REMARK VINA RESULT:      -8.4      0.000      0.000
REMARK  Name = 
REMARK  4 active torsions:
REMARK  status: ('A' for Active; 'I' for Inactive)
REMARK    1  A    between atoms: C_1  and  C_2
REMARK    2  A    between atoms: C_5  and  N_6
REMARK    3  A    between atoms: C_7  and  C_9
REMARK    4  A    between atoms: C_15  and  C_17
REMARK                            x       y       z     vdW  Elec       q    Type
REMARK                         _______ _______ _______ _____ _____    ______ ____
ROOT
ATOM      1  N   UNL     1       1.696   7.499  18.614  0.00  0.00    +0.000 N 
ATOM      2  C   UNL     1       2.388   6.557  19.359  0.00  0.00    +0.000 C 
ATOM      3  O   UNL     1       2.928   6.758  20.445  0.00  0.00    +0.000 OA
ATOM      4  H   UNL     1       0.935   7.088  18.087  0.00  0.00    +0.000 HD
ENDROOT
BRANCH   1   9
ATOM      5  C   UNL     1       1.205  13.115  19.494  0.00  0.00    +0.000 C 
ATOM      6  C   UNL     1       1.305  11.619  19.330  0.00  0.00    +0.000 A 
ATOM      7  C   UNL     1       1.988  11.114  18.218  0.00  0.00    +0.000 A 
ATOM      8  C   UNL     1       2.099   9.747  18.038  0.00  0.00    +0.000 A 
ATOM      9  C   UNL     1       1.505   8.862  18.943  0.00  0.00    +0.000 A 
ATOM     10  C   UNL     1       0.848   9.359  20.108  0.00  0.00    +0.000 A 
ATOM     11  C   UNL     1       0.336   8.566  21.161  0.00  0.00    +0.000 A 
ATOM     12  C   UNL     1      -0.271   9.137  22.274  0.00  0.00    +0.000 A 
ATOM     13  C   UNL     1      -0.348  10.509  22.324  0.00  0.00    +0.000 A 
ATOM     14  N   UNL     1       0.149  11.316  21.366  0.00  0.00    +0.000 NA
ATOM     15  C   UNL     1       0.741  10.767  20.287  0.00  0.00    +0.000 A 
ENDBRANCH   1   9
BRANCH   2  16
ATOM     16  C   UNL     1       2.383   5.138  18.703  0.00  0.00    +0.000 C 
ATOM     17  C   UNL     1       2.370   4.034  19.790  0.00  0.00    +0.000 C 
ATOM     18  C   UNL     1       2.189   2.630  19.216  0.00  0.00    +0.000 C 
ATOM     19  C   UNL     1       3.175   2.378  18.077  0.00  0.00    +0.000 C 
ATOM     20  C   UNL     1       3.025   3.466  17.016  0.00  0.00    +0.000 C 
ATOM     21  N   UNL     1       3.336   4.768  17.618  0.00  0.00    +0.000 N 
ATOM     22  C   UNL     1       4.399   5.603  17.253  0.00  0.00    +0.000 C 
ATOM     23  O   UNL     1       4.603   6.688  17.790  0.00  0.00    +0.000 OA
BRANCH  22  24
ATOM     24  C   UNL     1       5.360   5.217  16.184  0.00  0.00    +0.000 A 
ATOM     25  C   UNL     1       4.913   4.546  15.041  0.00  0.00    +0.000 A 
ATOM     26  C   UNL     1       5.821   4.203  14.034  0.00  0.00    +0.000 A 
ATOM     27  C   UNL     1       7.151   4.549  14.202  0.00  0.00    +0.000 A 
ATOM     28  N   UNL     1       7.610   5.244  15.265  0.00  0.00    +0.000 NA
ATOM     29  C   UNL     1       6.696   5.588  16.208  0.00  0.00    +0.000 A 
ENDBRANCH  22  24
ENDBRANCH   2  16
TORSDOF 3
ENDMDL
MODEL 2
REMARK VINA RESULT:      -8.2      3.142      8.137
REMARK  Name = 
REMARK  4 active torsions:
REMARK  status: ('A' for Active; 'I' for Inactive)
REMARK    1  A    between atoms: C_1  and  C_2
REMARK    2  A    between atoms: C_5  and  N_6
REMARK    3  A    between atoms: C_7  and  C_9
REMARK    4  A    between atoms: C_15  and  C_17
REMARK                            x       y       z     vdW  Elec       q    Type
REMARK                         _______ _______ _______ _____ _____    ______ ____
ROOT
ATOM      1  N   UNL     1       1.842   8.138  19.404  0.00  0.00    +0.000 N 
ATOM      2  C   UNL     1       1.732   9.370  18.776  0.00  0.00    +0.000 C 
ATOM      3  O   UNL     1       2.208   9.660  17.680  0.00  0.00    +0.000 OA
ATOM      4  H   UNL     1       1.027   7.920  19.964  0.00  0.00    +0.000 HD
ENDROOT
BRANCH   1   9
ATOM      5  C   UNL     1       4.876   3.893  17.099  0.00  0.00    +0.000 C 
ATOM      6  C   UNL     1       4.038   4.964  17.750  0.00  0.00    +0.000 A 
ATOM      7  C   UNL     1       4.116   6.268  17.250  0.00  0.00    +0.000 A 
ATOM      8  C   UNL     1       3.359   7.274  17.824  0.00  0.00    +0.000 A 
ATOM      9  C   UNL     1       2.538   7.005  18.924  0.00  0.00    +0.000 A 
ATOM     10  C   UNL     1       2.409   5.672  19.414  0.00  0.00    +0.000 A 
ATOM     11  C   UNL     1       1.510   5.253  20.422  0.00  0.00    +0.000 A 
ATOM     12  C   UNL     1       1.434   3.924  20.825  0.00  0.00    +0.000 A 
ATOM     13  C   UNL     1       2.260   3.021  20.198  0.00  0.00    +0.000 A 
ATOM     14  N   UNL     1       3.114   3.355  19.211  0.00  0.00    +0.000 NA
ATOM     15  C   UNL     1       3.189   4.642  18.816  0.00  0.00    +0.000 A 
ENDBRANCH   1   9
BRANCH   2  16
ATOM     16  C   UNL     1       0.868  10.391  19.585  0.00  0.00    +0.000 C 
ATOM     17  C   UNL     1       0.768   9.965  21.071  0.00  0.00    +0.000 C 
ATOM     18  C   UNL     1       0.083  11.010  21.950  0.00  0.00    +0.000 C 
ATOM     19  C   UNL     1      -1.242  11.454  21.333  0.00  0.00    +0.000 C 
ATOM     20  C   UNL     1      -1.005  11.953  19.909  0.00  0.00    +0.000 C 
ATOM     21  N   UNL     1      -0.463  10.854  19.101  0.00  0.00    +0.000 N 
ATOM     22  C   UNL     1      -1.090  10.268  17.995  0.00  0.00    +0.000 C 
ATOM     23  O   UNL     1      -0.581   9.355  17.352  0.00  0.00    +0.000 OA
BRANCH  22  24
ATOM     24  C   UNL     1      -2.431  10.721  17.530  0.00  0.00    +0.000 A 
ATOM     25  C   UNL     1      -2.742  10.721  16.166  0.00  0.00    +0.000 A 
ATOM     26  C   UNL     1      -4.010  11.131  15.741  0.00  0.00    +0.000 A 
ATOM     27  C   UNL     1      -4.930  11.523  16.700  0.00  0.00    +0.000 A 
ATOM     28  N   UNL     1      -4.685  11.484  18.026  0.00  0.00    +0.000 NA
ATOM     29  C   UNL     1      -3.455  11.051  18.406  0.00  0.00    +0.000 A 
ENDBRANCH  22  24
ENDBRANCH   2  16
TORSDOF 3
ENDMDL
MODEL 3
REMARK VINA RESULT:      -8.1      2.908      8.144
REMARK  Name = 
REMARK  4 active torsions:
REMARK  status: ('A' for Active; 'I' for Inactive)
REMARK    1  A    between atoms: C_1  and  C_2
REMARK    2  A    between atoms: C_5  and  N_6
REMARK    3  A    between atoms: C_7  and  C_9
REMARK    4  A    between atoms: C_15  and  C_17
REMARK                            x       y       z     vdW  Elec       q    Type
REMARK                         _______ _______ _______ _____ _____    ______ ____
ROOT
ATOM      1  N   UNL     1       2.297   7.583  18.956  0.00  0.00    +0.000 N 
ATOM      2  C   UNL     1       1.972   8.854  18.507  0.00  0.00    +0.000 C 
ATOM      3  O   UNL     1       2.227   9.307  17.392  0.00  0.00    +0.000 OA
ATOM      4  H   UNL     1       1.612   7.220  19.608  0.00  0.00    +0.000 HD
ENDROOT
BRANCH   1   9
ATOM      5  C   UNL     1       5.454   3.964  15.877  0.00  0.00    +0.000 C 
ATOM      6  C   UNL     1       4.571   4.864  16.704  0.00  0.00    +0.000 A 
ATOM      7  C   UNL     1       4.847   6.236  16.722  0.00  0.00    +0.000 A 
ATOM      8  C   UNL     1       4.056   7.089  17.470  0.00  0.00    +0.000 A 
ATOM      9  C   UNL     1       3.000   6.588  18.238  0.00  0.00    +0.000 A 
ATOM     10  C   UNL     1       2.674   5.200  18.192  0.00  0.00    +0.000 A 
ATOM     11  C   UNL     1       1.551   4.601  18.807  0.00  0.00    +0.000 A 
ATOM     12  C   UNL     1       1.297   3.238  18.692  0.00  0.00    +0.000 A 
ATOM     13  C   UNL     1       2.174   2.488  17.944  0.00  0.00    +0.000 A 
ATOM     14  N   UNL     1       3.243   3.008  17.310  0.00  0.00    +0.000 NA
ATOM     15  C   UNL     1       3.492   4.329  17.417  0.00  0.00    +0.000 A 
ENDBRANCH   1   9
BRANCH   2  16
ATOM     16  C   UNL     1       1.171   9.686  19.560  0.00  0.00    +0.000 C 
ATOM     17  C   UNL     1       1.094   8.929  20.910  0.00  0.00    +0.000 C 
ATOM     18  C   UNL     1       0.475   9.762  22.031  0.00  0.00    +0.000 C 
ATOM     19  C   UNL     1      -0.848  10.379  21.581  0.00  0.00    +0.000 C 
ATOM     20  C   UNL     1      -0.630  11.188  20.303  0.00  0.00    +0.000 C 
ATOM     21  N   UNL     1      -0.154  10.290  19.244  0.00  0.00    +0.000 N 
ATOM     22  C   UNL     1      -0.833   9.999  18.055  0.00  0.00    +0.000 C 
ATOM     23  O   UNL     1      -0.378   9.245  17.201  0.00  0.00    +0.000 OA
BRANCH  22  24
ATOM     24  C   UNL     1      -2.167  10.589  17.756  0.00  0.00    +0.000 A 
ATOM     25  C   UNL     1      -2.804  10.315  16.541  0.00  0.00    +0.000 A 
ATOM     26  C   UNL     1      -4.064  10.860  16.277  0.00  0.00    +0.000 A 
ATOM     27  C   UNL     1      -4.651  11.660  17.243  0.00  0.00    +0.000 A 
ATOM     28  N   UNL     1      -4.092  11.903  18.447  0.00  0.00    +0.000 NA
ATOM     29  C   UNL     1      -2.883  11.332  18.684  0.00  0.00    +0.000 A 
ENDBRANCH  22  24
ENDBRANCH   2  16
TORSDOF 3
ENDMDL
MODEL 4
REMARK VINA RESULT:      -8.0      2.499      7.944
REMARK  Name = 
REMARK  4 active torsions:
REMARK  status: ('A' for Active; 'I' for Inactive)
REMARK    1  A    between atoms: C_1  and  C_2
REMARK    2  A    between atoms: C_5  and  N_6
REMARK    3  A    between atoms: C_7  and  C_9
REMARK    4  A    between atoms: C_15  and  C_17
REMARK                            x       y       z     vdW  Elec       q    Type
REMARK                         _______ _______ _______ _____ _____    ______ ____
ROOT
ATOM      1  N   UNL     1       1.864   8.733  19.299  0.00  0.00    +0.000 N 
ATOM      2  C   UNL     1       0.924   9.475  18.600  0.00  0.00    +0.000 C 
ATOM      3  O   UNL     1       0.549   9.256  17.450  0.00  0.00    +0.000 OA
ATOM      4  H   UNL     1       1.671   8.707  20.292  0.00  0.00    +0.000 HD
ENDROOT
BRANCH   1   9
ATOM      5  C   UNL     1       4.951   4.542  16.963  0.00  0.00    +0.000 C 
ATOM      6  C   UNL     1       4.103   5.598  17.626  0.00  0.00    +0.000 A 
ATOM      7  C   UNL     1       4.088   6.884  17.075  0.00  0.00    +0.000 A 
ATOM      8  C   UNL     1       3.321   7.876  17.658  0.00  0.00    +0.000 A 
ATOM      9  C   UNL     1       2.583   7.614  18.817  0.00  0.00    +0.000 A 
ATOM     10  C   UNL     1       2.548   6.297  19.364  0.00  0.00    +0.000 A 
ATOM     11  C   UNL     1       1.734   5.878  20.440  0.00  0.00    +0.000 A 
ATOM     12  C   UNL     1       1.747   4.563  20.896  0.00  0.00    +0.000 A 
ATOM     13  C   UNL     1       2.574   3.675  20.252  0.00  0.00    +0.000 A 
ATOM     14  N   UNL     1       3.350   4.008  19.201  0.00  0.00    +0.000 NA
ATOM     15  C   UNL     1       3.338   5.281  18.755  0.00  0.00    +0.000 A 
ENDBRANCH   1   9
BRANCH   2  16
ATOM     16  C   UNL     1       0.310  10.635  19.450  0.00  0.00    +0.000 C 
ATOM     17  C   UNL     1      -1.191  10.823  19.114  0.00  0.00    +0.000 C 
ATOM     18  C   UNL     1      -1.890  11.823  20.033  0.00  0.00    +0.000 C 
ATOM     19  C   UNL     1      -1.099  13.126  20.119  0.00  0.00    +0.000 C 
ATOM     20  C   UNL     1       0.333  12.830  20.560  0.00  0.00    +0.000 C 
ATOM     21  N   UNL     1       0.972  11.965  19.562  0.00  0.00    +0.000 N 
ATOM     22  C   UNL     1       2.079  12.307  18.775  0.00  0.00    +0.000 C 
ATOM     23  O   UNL     1       2.576  11.535  17.960  0.00  0.00    +0.000 OA
BRANCH  22  24
ATOM     24  C   UNL     1       2.722  13.646  18.876  0.00  0.00    +0.000 A 
ATOM     25  C   UNL     1       2.614  14.563  17.825  0.00  0.00    +0.000 A 
ATOM     26  C   UNL     1       3.207  15.824  17.937  0.00  0.00    +0.000 A 
ATOM     27  C   UNL     1       3.886  16.130  19.104  0.00  0.00    +0.000 A 
ATOM     28  N   UNL     1       3.966  15.293  20.160  0.00  0.00    +0.000 NA
ATOM     29  C   UNL     1       3.352  14.089  20.030  0.00  0.00    +0.000 A 
ENDBRANCH  22  24
ENDBRANCH   2  16
TORSDOF 3
ENDMDL
MODEL 5
REMARK VINA RESULT:      -7.9      2.495      9.149
REMARK  Name = 
REMARK  4 active torsions:
REMARK  status: ('A' for Active; 'I' for Inactive)
REMARK    1  A    between atoms: C_1  and  C_2
REMARK    2  A    between atoms: C_5  and  N_6
REMARK    3  A    between atoms: C_7  and  C_9
REMARK    4  A    between atoms: C_15  and  C_17
REMARK                            x       y       z     vdW  Elec       q    Type
REMARK                         _______ _______ _______ _____ _____    ______ ____
ROOT
ATOM      1  N   UNL     1       1.788   9.302  19.197  0.00  0.00    +0.000 N 
ATOM      2  C   UNL     1       0.834   9.856  18.357  0.00  0.00    +0.000 C 
ATOM      3  O   UNL     1       0.021   9.228  17.682  0.00  0.00    +0.000 OA
ATOM      4  H   UNL     1       1.978   9.888  20.001  0.00  0.00    +0.000 HD
ENDROOT
BRANCH   1   9
ATOM      5  C   UNL     1       2.431   3.786  20.501  0.00  0.00    +0.000 C 
ATOM      6  C   UNL     1       2.314   5.235  20.103  0.00  0.00    +0.000 A 
ATOM      7  C   UNL     1       1.528   6.082  20.892  0.00  0.00    +0.000 A 
ATOM      8  C   UNL     1       1.401   7.418  20.556  0.00  0.00    +0.000 A 
ATOM      9  C   UNL     1       2.026   7.924  19.411  0.00  0.00    +0.000 A 
ATOM     10  C   UNL     1       2.870   7.087  18.624  0.00  0.00    +0.000 A 
ATOM     11  C   UNL     1       3.663   7.515  17.534  0.00  0.00    +0.000 A 
ATOM     12  C   UNL     1       4.477   6.631  16.834  0.00  0.00    +0.000 A 
ATOM     13  C   UNL     1       4.496   5.320  17.246  0.00  0.00    +0.000 A 
ATOM     14  N   UNL     1       3.787   4.861  18.296  0.00  0.00    +0.000 NA
ATOM     15  C   UNL     1       2.998   5.714  18.979  0.00  0.00    +0.000 A 
ENDBRANCH   1   9
BRANCH   2  16
ATOM     16  C   UNL     1       0.838  11.420  18.379  0.00  0.00    +0.000 C 
ATOM     17  C   UNL     1       2.288  11.963  18.330  0.00  0.00    +0.000 C 
ATOM     18  C   UNL     1       2.355  13.481  18.174  0.00  0.00    +0.000 C 
ATOM     19  C   UNL     1       1.461  14.172  19.202  0.00  0.00    +0.000 C 
ATOM     20  C   UNL     1       0.035  13.635  19.087  0.00  0.00    +0.000 C 
ATOM     21  N   UNL     1       0.042  12.195  19.372  0.00  0.00    +0.000 N 
ATOM     22  C   UNL     1      -0.607  11.573  20.445  0.00  0.00    +0.000 C 
ATOM     23  O   UNL     1      -0.572  10.360  20.627  0.00  0.00    +0.000 OA
BRANCH  22  24
ATOM     24  C   UNL     1      -1.382  12.357  21.446  0.00  0.00    +0.000 A 
ATOM     25  C   UNL     1      -0.740  12.913  22.559  0.00  0.00    +0.000 A 
ATOM     26  C   UNL     1      -1.474  13.662  23.484  0.00  0.00    +0.000 A 
ATOM     27  C   UNL     1      -2.830  13.836  23.261  0.00  0.00    +0.000 A 
ATOM     28  N   UNL     1      -3.473  13.362  22.173  0.00  0.00    +0.000 NA
ATOM     29  C   UNL     1      -2.724  12.666  21.279  0.00  0.00    +0.000 A 
ENDBRANCH  22  24
ENDBRANCH   2  16
TORSDOF 3
ENDMDL
MODEL 6
REMARK VINA RESULT:      -7.9      1.027      1.118
REMARK  Name = 
REMARK  4 active torsions:
REMARK  status: ('A' for Active; 'I' for Inactive)
REMARK    1  A    between atoms: C_1  and  C_2
REMARK    2  A    between atoms: C_5  and  N_6
REMARK    3  A    between atoms: C_7  and  C_9
REMARK    4  A    between atoms: C_15  and  C_17
REMARK                            x       y       z     vdW  Elec       q    Type
REMARK                         _______ _______ _______ _____ _____    ______ ____
ROOT
ATOM      1  N   UNL     1       1.629   8.318  18.586  0.00  0.00    +0.000 N 
ATOM      2  C   UNL     1       2.055   7.401  19.534  0.00  0.00    +0.000 C 
ATOM      3  O   UNL     1       2.398   7.666  20.685  0.00  0.00    +0.000 OA
ATOM      4  H   UNL     1       0.939   7.927  17.956  0.00  0.00    +0.000 HD
ENDROOT
BRANCH   1   9
ATOM      5  C   UNL     1       1.627  14.017  18.845  0.00  0.00    +0.000 C 
ATOM      6  C   UNL     1       1.585  12.510  18.839  0.00  0.00    +0.000 A 
ATOM      7  C   UNL     1       2.391  11.824  17.923  0.00  0.00    +0.000 A 
ATOM      8  C   UNL     1       2.377  10.441  17.893  0.00  0.00    +0.000 A 
ATOM      9  C   UNL     1       1.538   9.720  18.749  0.00  0.00    +0.000 A 
ATOM     10  C   UNL     1       0.748  10.402  19.722  0.00  0.00    +0.000 A 
ATOM     11  C   UNL     1      -0.025   9.781  20.729  0.00  0.00    +0.000 A 
ATOM     12  C   UNL     1      -0.750  10.526  21.654  0.00  0.00    +0.000 A 
ATOM     13  C   UNL     1      -0.679  11.896  21.564  0.00  0.00    +0.000 A 
ATOM     14  N   UNL     1       0.065  12.543  20.646  0.00  0.00    +0.000 NA
ATOM     15  C   UNL     1       0.771  11.825  19.749  0.00  0.00    +0.000 A 
ENDBRANCH   1   9
BRANCH   2  16
ATOM     16  C   UNL     1       2.009   5.926  19.018  0.00  0.00    +0.000 C 
ATOM     17  C   UNL     1       1.792   4.942  20.195  0.00  0.00    +0.000 C 
ATOM     18  C   UNL     1       1.565   3.501  19.738  0.00  0.00    +0.000 C 
ATOM     19  C   UNL     1       2.647   3.069  18.751  0.00  0.00    +0.000 C 
ATOM     20  C   UNL     1       2.698   4.051  17.581  0.00  0.00    +0.000 C 
ATOM     21  N   UNL     1       3.043   5.384  18.091  0.00  0.00    +0.000 N 
ATOM     22  C   UNL     1       4.201   6.103  17.775  0.00  0.00    +0.000 C 
ATOM     23  O   UNL     1       4.430   7.221  18.228  0.00  0.00    +0.000 OA
BRANCH  22  24
ATOM     24  C   UNL     1       5.240   5.546  16.866  0.00  0.00    +0.000 A 
ATOM     25  C   UNL     1       5.121   5.699  15.480  0.00  0.00    +0.000 A 
ATOM     26  C   UNL     1       6.111   5.188  14.636  0.00  0.00    +0.000 A 
ATOM     27  C   UNL     1       7.195   4.543  15.207  0.00  0.00    +0.000 A 
ATOM     28  N   UNL     1       7.371   4.423  16.540  0.00  0.00    +0.000 NA
ATOM     29  C   UNL     1       6.407   4.960  17.332  0.00  0.00    +0.000 A 
ENDBRANCH  22  24
ENDBRANCH   2  16
TORSDOF 3
ENDMDL
MODEL 7
REMARK VINA RESULT:      -7.9      3.066      8.588
REMARK  Name = 
REMARK  4 active torsions:
REMARK  status: ('A' for Active; 'I' for Inactive)
REMARK    1  A    between atoms: C_1  and  C_2
REMARK    2  A    between atoms: C_5  and  N_6
REMARK    3  A    between atoms: C_7  and  C_9
REMARK    4  A    between atoms: C_15  and  C_17
REMARK                            x       y       z     vdW  Elec       q    Type
REMARK                         _______ _______ _______ _____ _____    ______ ____
ROOT
ATOM      1  N   UNL     1       1.694   8.916  19.248  0.00  0.00    +0.000 N 
ATOM      2  C   UNL     1       1.239   9.806  20.209  0.00  0.00    +0.000 C 
ATOM      3  O   UNL     1       1.076   9.552  21.401  0.00  0.00    +0.000 OA
ATOM      4  H   UNL     1       2.236   9.375  18.526  0.00  0.00    +0.000 HD
ENDROOT
BRANCH   1   9
ATOM      5  C   UNL     1       2.714   3.442  20.488  0.00  0.00    +0.000 C 
ATOM      6  C   UNL     1       2.498   4.885  20.107  0.00  0.00    +0.000 A 
ATOM      7  C   UNL     1       1.657   5.667  20.907  0.00  0.00    +0.000 A 
ATOM      8  C   UNL     1       1.439   6.995  20.586  0.00  0.00    +0.000 A 
ATOM      9  C   UNL     1       2.026   7.555  19.447  0.00  0.00    +0.000 A 
ATOM     10  C   UNL     1       2.924   6.786  18.649  0.00  0.00    +0.000 A 
ATOM     11  C   UNL     1       3.684   7.280  17.564  0.00  0.00    +0.000 A 
ATOM     12  C   UNL     1       4.555   6.462  16.853  0.00  0.00    +0.000 A 
ATOM     13  C   UNL     1       4.665   5.151  17.250  0.00  0.00    +0.000 A 
ATOM     14  N   UNL     1       3.990   4.632  18.295  0.00  0.00    +0.000 NA
ATOM     15  C   UNL     1       3.146   5.422  18.989  0.00  0.00    +0.000 A 
ENDBRANCH   1   9
BRANCH   2  16
ATOM     16  C   UNL     1       0.988  11.241  19.641  0.00  0.00    +0.000 C 
ATOM     17  C   UNL     1       1.253  12.312  20.728  0.00  0.00    +0.000 C 
ATOM     18  C   UNL     1       1.195  13.741  20.189  0.00  0.00    +0.000 C 
ATOM     19  C   UNL     1      -0.084  13.965  19.385  0.00  0.00    +0.000 C 
ATOM     20  C   UNL     1      -0.186  12.918  18.277  0.00  0.00    +0.000 C 
ATOM     21  N   UNL     1      -0.249  11.584  18.885  0.00  0.00    +0.000 N 
ATOM     22  C   UNL     1      -1.329  10.697  18.797  0.00  0.00    +0.000 C 
ATOM     23  O   UNL     1      -1.320   9.587  19.321  0.00  0.00    +0.000 OA
BRANCH  22  24
ATOM     24  C   UNL     1      -2.572  11.056  18.058  0.00  0.00    +0.000 A 
ATOM     25  C   UNL     1      -2.721  10.700  16.713  0.00  0.00    +0.000 A 
ATOM     26  C   UNL     1      -3.899  11.025  16.034  0.00  0.00    +0.000 A 
ATOM     27  C   UNL     1      -4.895  11.693  16.726  0.00  0.00    +0.000 A 
ATOM     28  N   UNL     1      -4.810  12.005  18.037  0.00  0.00    +0.000 NA
ATOM     29  C   UNL     1      -3.666  11.646  18.674  0.00  0.00    +0.000 A 
ENDBRANCH  22  24
ENDBRANCH   2  16
TORSDOF 3
ENDMDL
MODEL 8
REMARK VINA RESULT:      -7.9      2.658      9.267
REMARK  Name = 
REMARK  4 active torsions:
REMARK  status: ('A' for Active; 'I' for Inactive)
REMARK    1  A    between atoms: C_1  and  C_2
REMARK    2  A    between atoms: C_5  and  N_6
REMARK    3  A    between atoms: C_7  and  C_9
REMARK    4  A    between atoms: C_15  and  C_17
REMARK                            x       y       z     vdW  Elec       q    Type
REMARK                         _______ _______ _______ _____ _____    ______ ____
ROOT
ATOM      1  N   UNL     1       1.544   9.623  19.407  0.00  0.00    +0.000 N 
ATOM      2  C   UNL     1       0.620  10.191  18.544  0.00  0.00    +0.000 C 
ATOM      3  O   UNL     1      -0.174   9.574  17.836  0.00  0.00    +0.000 OA
ATOM      4  H   UNL     1       1.710  10.199  20.224  0.00  0.00    +0.000 HD
ENDROOT
BRANCH   1   9
ATOM      5  C   UNL     1       2.150   4.098  20.692  0.00  0.00    +0.000 C 
ATOM      6  C   UNL     1       2.040   5.549  20.297  0.00  0.00    +0.000 A 
ATOM      7  C   UNL     1       1.295   6.408  21.113  0.00  0.00    +0.000 A 
ATOM      8  C   UNL     1       1.176   7.746  20.781  0.00  0.00    +0.000 A 
ATOM      9  C   UNL     1       1.768   8.242  19.615  0.00  0.00    +0.000 A 
ATOM     10  C   UNL     1       2.572   7.392  18.799  0.00  0.00    +0.000 A 
ATOM     11  C   UNL     1       3.332   7.808  17.682  0.00  0.00    +0.000 A 
ATOM     12  C   UNL     1       4.108   6.912  16.954  0.00  0.00    +0.000 A 
ATOM     13  C   UNL     1       4.122   5.601  17.366  0.00  0.00    +0.000 A 
ATOM     14  N   UNL     1       3.444   5.152  18.440  0.00  0.00    +0.000 NA
ATOM     15  C   UNL     1       2.692   6.018  19.150  0.00  0.00    +0.000 A 
ENDBRANCH   1   9
BRANCH   2  16
ATOM     16  C   UNL     1       0.630  11.754  18.583  0.00  0.00    +0.000 C 
ATOM     17  C   UNL     1       2.081  12.293  18.512  0.00  0.00    +0.000 C 
ATOM     18  C   UNL     1       2.150  13.813  18.372  0.00  0.00    +0.000 C 
ATOM     19  C   UNL     1       1.279  14.495  19.424  0.00  0.00    +0.000 C 
ATOM     20  C   UNL     1      -0.151  13.964  19.331  0.00  0.00    +0.000 C 
ATOM     21  N   UNL     1      -0.144  12.521  19.600  0.00  0.00    +0.000 N 
ATOM     22  C   UNL     1      -0.774  11.889  20.678  0.00  0.00    +0.000 C 
ATOM     23  O   UNL     1      -0.740  10.674  20.846  0.00  0.00    +0.000 OA
BRANCH  22  24
ATOM     24  C   UNL     1      -1.527  12.665  21.703  0.00  0.00    +0.000 A 
ATOM     25  C   UNL     1      -2.926  12.707  21.669  0.00  0.00    +0.000 A 
ATOM     26  C   UNL     1      -3.624  13.423  22.646  0.00  0.00    +0.000 A 
ATOM     27  C   UNL     1      -2.898  14.071  23.632  0.00  0.00    +0.000 A 
ATOM     28  N   UNL     1      -1.553  14.008  23.728  0.00  0.00    +0.000 NA
ATOM     29  C   UNL     1      -0.909  13.278  22.783  0.00  0.00    +0.000 A 
ENDBRANCH  22  24
ENDBRANCH   2  16
TORSDOF 3
ENDMDL
MODEL 9
REMARK VINA RESULT:      -7.9      1.094      2.343
REMARK  Name = 
REMARK  4 active torsions:
REMARK  status: ('A' for Active; 'I' for Inactive)
REMARK    1  A    between atoms: C_1  and  C_2
REMARK    2  A    between atoms: C_5  and  N_6
REMARK    3  A    between atoms: C_7  and  C_9
REMARK    4  A    between atoms: C_15  and  C_17
REMARK                            x       y       z     vdW  Elec       q    Type
REMARK                         _______ _______ _______ _____ _____    ______ ____
ROOT
ATOM      1  N   UNL     1       1.237   6.655  19.638  0.00  0.00    +0.000 N 
ATOM      2  C   UNL     1       1.879   5.601  20.270  0.00  0.00    +0.000 C 
ATOM      3  O   UNL     1       2.263   5.593  21.438  0.00  0.00    +0.000 OA
ATOM      4  H   UNL     1       0.573   6.338  18.942  0.00  0.00    +0.000 HD
ENDROOT
BRANCH   1   9
ATOM      5  C   UNL     1      -0.240  11.477  22.306  0.00  0.00    +0.000 C 
ATOM      6  C   UNL     1       0.173  10.244  21.542  0.00  0.00    +0.000 A 
ATOM      7  C   UNL     1      -0.164   8.991  22.066  0.00  0.00    +0.000 A 
ATOM      8  C   UNL     1       0.199   7.840  21.389  0.00  0.00    +0.000 A 
ATOM      9  C   UNL     1       0.931   7.916  20.200  0.00  0.00    +0.000 A 
ATOM     10  C   UNL     1       1.240   9.186  19.627  0.00  0.00    +0.000 A 
ATOM     11  C   UNL     1       1.846   9.390  18.366  0.00  0.00    +0.000 A 
ATOM     12  C   UNL     1       2.092  10.668  17.874  0.00  0.00    +0.000 A 
ATOM     13  C   UNL     1       1.711  11.734  18.653  0.00  0.00    +0.000 A 
ATOM     14  N   UNL     1       1.102  11.602  19.848  0.00  0.00    +0.000 NA
ATOM     15  C   UNL     1       0.860  10.365  20.328  0.00  0.00    +0.000 A 
ENDBRANCH   1   9
BRANCH   2  16
ATOM     16  C   UNL     1       2.035   4.344  19.353  0.00  0.00    +0.000 C 
ATOM     17  C   UNL     1       1.987   3.045  20.195  0.00  0.00    +0.000 C 
ATOM     18  C   UNL     1       1.960   1.778  19.341  0.00  0.00    +0.000 C 
ATOM     19  C   UNL     1       3.070   1.806  18.294  0.00  0.00    +0.000 C 
ATOM     20  C   UNL     1       2.955   3.078  17.455  0.00  0.00    +0.000 C 
ATOM     21  N   UNL     1       3.115   4.244  18.332  0.00  0.00    +0.000 N 
ATOM     22  C   UNL     1       4.151   5.183  18.259  0.00  0.00    +0.000 C 
ATOM     23  O   UNL     1       4.226   6.146  19.016  0.00  0.00    +0.000 OA
BRANCH  22  24
ATOM     24  C   UNL     1       5.239   5.065  17.249  0.00  0.00    +0.000 A 
ATOM     25  C   UNL     1       5.011   5.431  15.918  0.00  0.00    +0.000 A 
ATOM     26  C   UNL     1       6.045   5.333  14.982  0.00  0.00    +0.000 A 
ATOM     27  C   UNL     1       7.280   4.875  15.411  0.00  0.00    +0.000 A 
ATOM     28  N   UNL     1       7.553   4.564  16.695  0.00  0.00    +0.000 NA
ATOM     29  C   UNL     1       6.536   4.701  17.585  0.00  0.00    +0.000 A 
ENDBRANCH  22  24
ENDBRANCH   2  16
TORSDOF 3
ENDMDL
