MODEL 1
REMARK VINA RESULT:      -8.6      0.000      0.000
REMARK  Name = 
REMARK  4 active torsions:
REMARK  status: ('A' for Active; 'I' for Inactive)
REMARK    1  A    between atoms: C_2  and  C_23
REMARK    2  A    between atoms: N_3  and  C_4
REMARK    3  A    between atoms: C_7  and  C_9
REMARK    4  A    between atoms: C_21  and  O_22
REMARK                            x       y       z     vdW  Elec       q    Type
REMARK                         _______ _______ _______ _____ _____    ______ ____
ROOT
ATOM      1  C   UNL     1       1.065   8.484  20.831  0.00  0.00    +0.000 C 
ATOM      2  C   UNL     1       0.017   9.134  19.932  0.00  0.00    +0.000 C 
ATOM      3  N   UNL     1      -0.336  10.414  20.534  0.00  0.00    +0.000 N 
ATOM      4  C   UNL     1      -1.231  11.387  20.078  0.00  0.00    +0.000 C 
ATOM      5  O   UNL     1      -1.380  12.445  20.686  0.00  0.00    +0.000 OA
ATOM      6  C   UNL     1       0.435  10.620  21.755  0.00  0.00    +0.000 C 
ATOM      7  C   UNL     1       1.618   9.649  21.671  0.00  0.00    +0.000 C 
ENDROOT
BRANCH   4   8
ATOM      8  C   UNL     1      -2.033  11.141  18.823  0.00  0.00    +0.000 A 
ATOM      9  C   UNL     1      -1.467  10.318  17.836  0.00  0.00    +0.000 A 
ATOM     10  C   UNL     1      -2.058  10.160  16.592  0.00  0.00    +0.000 A 
ATOM     11  C   UNL     1      -3.306  10.704  16.369  0.00  0.00    +0.000 A 
ATOM     12  F   UNL     1      -3.872  10.511  15.166  0.00  0.00    +0.000 F 
ATOM     13  C   UNL     1      -3.996  11.387  17.376  0.00  0.00    +0.000 A 
ATOM     14  C   UNL     1      -5.320  11.792  17.138  0.00  0.00    +0.000 A 
ATOM     15  C   UNL     1      -6.059  12.436  18.122  0.00  0.00    +0.000 A 
ATOM     16  C   UNL     1      -5.466  12.720  19.343  0.00  0.00    +0.000 A 
ATOM     17  C   UNL     1      -4.136  12.348  19.588  0.00  0.00    +0.000 A 
ATOM     18  C   UNL     1      -3.363  11.641  18.629  0.00  0.00    +0.000 A 
ENDBRANCH   4   8
BRANCH   1  21
ATOM     19  O   UNL     1       1.433   5.689  20.806  0.00  0.00    +0.000 OA
ATOM     20  C   UNL     1       2.147   6.384  20.086  0.00  0.00    +0.000 C 
ATOM     21  N   UNL     1       2.067   7.756  20.073  0.00  0.00    +0.000 N 
ATOM     22  H   UNL     1       2.642   8.208  19.363  0.00  0.00    +0.000 HD
BRANCH  20  23
ATOM     23  C   UNL     1       3.152   5.835  19.165  0.00  0.00    +0.000 A 
ATOM     24  C   UNL     1       2.932   5.463  17.800  0.00  0.00    +0.000 A 
ATOM     25  C   UNL     1       4.148   5.019  17.370  0.00  0.00    +0.000 A 
ATOM     26  N   UNL     1       4.980   5.122  18.427  0.00  0.00    +0.000 N 
ATOM     27  N   UNL     1       4.444   5.625  19.540  0.00  0.00    +0.000 NA
ATOM     28  C   UNL     1       6.340   4.694  18.181  0.00  0.00    +0.000 C 
ATOM     29  C   UNL     1       6.281   4.225  16.712  0.00  0.00    +0.000 C 
ATOM     30  C   UNL     1       4.836   4.471  16.197  0.00  0.00    +0.000 C 
ENDBRANCH  20  23
ENDBRANCH   1  21
BRANCH   7  31
ATOM     31  O   UNL     1       2.010   9.210  22.969  0.00  0.00    +0.000 OA
ATOM     32  H   UNL     1       1.299   8.619  23.303  0.00  0.00    +0.000 HD
ENDBRANCH   7  31
TORSDOF 4
ENDMDL
MODEL 2
REMARK VINA RESULT:      -8.5      1.426      1.751
REMARK  Name = 
REMARK  4 active torsions:
REMARK  status: ('A' for Active; 'I' for Inactive)
REMARK    1  A    between atoms: C_2  and  C_23
REMARK    2  A    between atoms: N_3  and  C_4
REMARK    3  A    between atoms: C_7  and  C_9
REMARK    4  A    between atoms: C_21  and  O_22
REMARK                            x       y       z     vdW  Elec       q    Type
REMARK                         _______ _______ _______ _____ _____    ______ ____
ROOT
ATOM      1  C   UNL     1      -0.014   8.642  21.625  0.00  0.00    +0.000 C 
ATOM      2  C   UNL     1      -0.816   9.264  20.484  0.00  0.00    +0.000 C 
ATOM      3  N   UNL     1      -0.670  10.710  20.591  0.00  0.00    +0.000 N 
ATOM      4  C   UNL     1      -1.194  11.714  19.770  0.00  0.00    +0.000 C 
ATOM      5  O   UNL     1      -0.935  12.898  19.972  0.00  0.00    +0.000 OA
ATOM      6  C   UNL     1       0.186  11.042  21.724  0.00  0.00    +0.000 C 
ATOM      7  C   UNL     1       0.952   9.759  22.060  0.00  0.00    +0.000 C 
ENDROOT
BRANCH   4   8
ATOM      8  C   UNL     1      -2.096  11.345  18.616  0.00  0.00    +0.000 A 
ATOM      9  C   UNL     1      -1.558  10.543  17.597  0.00  0.00    +0.000 A 
ATOM     10  C   UNL     1      -2.257  10.282  16.429  0.00  0.00    +0.000 A 
ATOM     11  C   UNL     1      -3.570  10.696  16.327  0.00  0.00    +0.000 A 
ATOM     12  F   UNL     1      -4.236  10.406  15.198  0.00  0.00    +0.000 F 
ATOM     13  C   UNL     1      -4.214  11.350  17.383  0.00  0.00    +0.000 A 
ATOM     14  C   UNL     1      -5.589  11.618  17.278  0.00  0.00    +0.000 A 
ATOM     15  C   UNL     1      -6.280  12.227  18.317  0.00  0.00    +0.000 A 
ATOM     16  C   UNL     1      -5.593  12.612  19.459  0.00  0.00    +0.000 A 
ATOM     17  C   UNL     1      -4.215  12.377  19.569  0.00  0.00    +0.000 A 
ATOM     18  C   UNL     1      -3.481  11.710  18.552  0.00  0.00    +0.000 A 
ENDBRANCH   4   8
BRANCH   1  21
ATOM     19  O   UNL     1       1.972   8.351  19.644  0.00  0.00    +0.000 OA
ATOM     20  C   UNL     1       1.628   7.360  20.283  0.00  0.00    +0.000 C 
ATOM     21  N   UNL     1       0.633   7.402  21.232  0.00  0.00    +0.000 N 
ATOM     22  H   UNL     1       0.511   6.538  21.758  0.00  0.00    +0.000 HD
BRANCH  20  23
ATOM     23  C   UNL     1       2.232   6.031  20.112  0.00  0.00    +0.000 A 
ATOM     24  C   UNL     1       1.655   4.784  20.513  0.00  0.00    +0.000 A 
ATOM     25  C   UNL     1       2.577   3.849  20.143  0.00  0.00    +0.000 A 
ATOM     26  N   UNL     1       3.601   4.532  19.589  0.00  0.00    +0.000 N 
ATOM     27  N   UNL     1       3.448   5.855  19.525  0.00  0.00    +0.000 NA
ATOM     28  C   UNL     1       4.703   3.716  19.125  0.00  0.00    +0.000 C 
ATOM     29  C   UNL     1       4.246   2.292  19.507  0.00  0.00    +0.000 C 
ATOM     30  C   UNL     1       2.837   2.406  20.153  0.00  0.00    +0.000 C 
ENDBRANCH  20  23
ENDBRANCH   1  21
BRANCH   7  31
ATOM     31  O   UNL     1       1.234   9.682  23.455  0.00  0.00    +0.000 OA
ATOM     32  H   UNL     1       1.501   8.756  23.647  0.00  0.00    +0.000 HD
ENDBRANCH   7  31
TORSDOF 4
ENDMDL
MODEL 3
REMARK VINA RESULT:      -8.4      1.458      1.591
REMARK  Name = 
REMARK  4 active torsions:
REMARK  status: ('A' for Active; 'I' for Inactive)
REMARK    1  A    between atoms: C_2  and  C_23
REMARK    2  A    between atoms: N_3  and  C_4
REMARK    3  A    between atoms: C_7  and  C_9
REMARK    4  A    between atoms: C_21  and  O_22
REMARK                            x       y       z     vdW  Elec       q    Type
REMARK                         _______ _______ _______ _____ _____    ______ ____
ROOT
ATOM      1  C   UNL     1       0.561   8.498  21.364  0.00  0.00    +0.000 C 
ATOM      2  C   UNL     1      -0.364   9.193  20.368  0.00  0.00    +0.000 C 
ATOM      3  N   UNL     1      -0.123  10.626  20.481  0.00  0.00    +0.000 N 
ATOM      4  C   UNL     1      -0.705  11.678  19.766  0.00  0.00    +0.000 C 
ATOM      5  O   UNL     1      -0.353  12.841  19.951  0.00  0.00    +0.000 OA
ATOM      6  C   UNL     1       0.908  10.881  21.480  0.00  0.00    +0.000 C 
ATOM      7  C   UNL     1       1.642   9.549  21.672  0.00  0.00    +0.000 C 
ENDROOT
BRANCH   4   8
ATOM      8  C   UNL     1      -1.786  11.390  18.752  0.00  0.00    +0.000 A 
ATOM      9  C   UNL     1      -1.454  10.581  17.654  0.00  0.00    +0.000 A 
ATOM     10  C   UNL     1      -2.331  10.389  16.599  0.00  0.00    +0.000 A 
ATOM     11  C   UNL     1      -3.616  10.882  16.697  0.00  0.00    +0.000 A 
ATOM     12  F   UNL     1      -4.457  10.657  15.674  0.00  0.00    +0.000 F 
ATOM     13  C   UNL     1      -4.058  11.548  17.845  0.00  0.00    +0.000 A 
ATOM     14  C   UNL     1      -5.414  11.899  17.947  0.00  0.00    +0.000 A 
ATOM     15  C   UNL     1      -5.907  12.524  19.086  0.00  0.00    +0.000 A 
ATOM     16  C   UNL     1      -5.038  12.841  20.119  0.00  0.00    +0.000 A 
ATOM     17  C   UNL     1      -3.676  12.522  20.022  0.00  0.00    +0.000 A 
ATOM     18  C   UNL     1      -3.141  11.837  18.899  0.00  0.00    +0.000 A 
ENDBRANCH   4   8
BRANCH   1  21
ATOM     19  O   UNL     1       2.209   8.157  19.102  0.00  0.00    +0.000 OA
ATOM     20  C   UNL     1       1.909   7.168  19.767  0.00  0.00    +0.000 C 
ATOM     21  N   UNL     1       1.072   7.237  20.855  0.00  0.00    +0.000 N 
ATOM     22  H   UNL     1       0.981   6.366  21.378  0.00  0.00    +0.000 HD
BRANCH  20  23
ATOM     23  C   UNL     1       2.406   5.815  19.481  0.00  0.00    +0.000 A 
ATOM     24  C   UNL     1       2.619   5.252  18.181  0.00  0.00    +0.000 A 
ATOM     25  C   UNL     1       3.084   3.994  18.429  0.00  0.00    +0.000 A 
ATOM     26  N   UNL     1       3.111   3.862  19.772  0.00  0.00    +0.000 N 
ATOM     27  N   UNL     1       2.729   4.934  20.468  0.00  0.00    +0.000 NA
ATOM     28  C   UNL     1       3.578   2.580  20.254  0.00  0.00    +0.000 C 
ATOM     29  C   UNL     1       3.845   1.809  18.944  0.00  0.00    +0.000 C 
ATOM     30  C   UNL     1       3.534   2.769  17.761  0.00  0.00    +0.000 C 
ENDBRANCH  20  23
ENDBRANCH   1  21
BRANCH   7  31
ATOM     31  O   UNL     1       2.122   9.420  23.008  0.00  0.00    +0.000 OA
ATOM     32  H   UNL     1       2.076  10.310  23.421  0.00  0.00    +0.000 HD
ENDBRANCH   7  31
TORSDOF 4
ENDMDL
MODEL 4
REMARK VINA RESULT:      -8.4      6.639      8.063
REMARK  Name = 
REMARK  4 active torsions:
REMARK  status: ('A' for Active; 'I' for Inactive)
REMARK    1  A    between atoms: C_2  and  C_23
REMARK    2  A    between atoms: N_3  and  C_4
REMARK    3  A    between atoms: C_7  and  C_9
REMARK    4  A    between atoms: C_21  and  O_22
REMARK                            x       y       z     vdW  Elec       q    Type
REMARK                         _______ _______ _______ _____ _____    ______ ____
ROOT
ATOM      1  C   UNL     1       3.667  15.134  19.207  0.00  0.00    +0.000 C 
ATOM      2  C   UNL     1       2.942  13.799  19.361  0.00  0.00    +0.000 C 
ATOM      3  N   UNL     1       1.555  14.012  18.969  0.00  0.00    +0.000 N 
ATOM      4  C   UNL     1       0.502  13.093  18.916  0.00  0.00    +0.000 C 
ATOM      5  O   UNL     1      -0.611  13.427  18.512  0.00  0.00    +0.000 OA
ATOM      6  C   UNL     1       1.359  15.399  18.564  0.00  0.00    +0.000 C 
ATOM      7  C   UNL     1       2.758  15.951  18.271  0.00  0.00    +0.000 C 
ENDROOT
BRANCH   4   8
ATOM      8  C   UNL     1       0.724  11.668  19.361  0.00  0.00    +0.000 A 
ATOM      9  C   UNL     1       1.528  10.849  18.553  0.00  0.00    +0.000 A 
ATOM     10  C   UNL     1       1.663   9.491  18.798  0.00  0.00    +0.000 A 
ATOM     11  C   UNL     1       1.116   8.960  19.948  0.00  0.00    +0.000 A 
ATOM     12  F   UNL     1       1.286   7.648  20.179  0.00  0.00    +0.000 F 
ATOM     13  C   UNL     1       0.452   9.764  20.881  0.00  0.00    +0.000 A 
ATOM     14  C   UNL     1       0.045   9.197  22.099  0.00  0.00    +0.000 A 
ATOM     15  C   UNL     1      -0.580   9.965  23.073  0.00  0.00    +0.000 A 
ATOM     16  C   UNL     1      -0.841  11.304  22.820  0.00  0.00    +0.000 A 
ATOM     17  C   UNL     1      -0.465  11.880  21.598  0.00  0.00    +0.000 A 
ATOM     18  C   UNL     1       0.222  11.143  20.598  0.00  0.00    +0.000 A 
ENDBRANCH   4   8
BRANCH   1  21
ATOM     19  O   UNL     1       5.745  17.028  19.417  0.00  0.00    +0.000 OA
ATOM     20  C   UNL     1       5.994  15.932  18.919  0.00  0.00    +0.000 C 
ATOM     21  N   UNL     1       5.030  14.970  18.734  0.00  0.00    +0.000 N 
ATOM     22  H   UNL     1       5.384  14.072  18.403  0.00  0.00    +0.000 HD
BRANCH  20  23
ATOM     23  C   UNL     1       7.335  15.529  18.471  0.00  0.00    +0.000 A 
ATOM     24  C   UNL     1       7.863  14.198  18.483  0.00  0.00    +0.000 A 
ATOM     25  C   UNL     1       9.122  14.328  17.976  0.00  0.00    +0.000 A 
ATOM     26  N   UNL     1       9.287  15.643  17.717  0.00  0.00    +0.000 N 
ATOM     27  N   UNL     1       8.237  16.422  17.979  0.00  0.00    +0.000 NA
ATOM     28  C   UNL     1      10.576  16.002  17.167  0.00  0.00    +0.000 C 
ATOM     29  C   UNL     1      11.311  14.645  17.126  0.00  0.00    +0.000 C 
ATOM     30  C   UNL     1      10.325  13.560  17.641  0.00  0.00    +0.000 C 
ENDBRANCH  20  23
ENDBRANCH   1  21
BRANCH   7  31
ATOM     31  O   UNL     1       2.830  17.343  18.568  0.00  0.00    +0.000 OA
ATOM     32  H   UNL     1       2.003  17.582  19.042  0.00  0.00    +0.000 HD
ENDBRANCH   7  31
TORSDOF 4
ENDMDL
MODEL 5
REMARK VINA RESULT:      -8.3      7.890     11.108
REMARK  Name = 
REMARK  4 active torsions:
REMARK  status: ('A' for Active; 'I' for Inactive)
REMARK    1  A    between atoms: C_2  and  C_23
REMARK    2  A    between atoms: N_3  and  C_4
REMARK    3  A    between atoms: C_7  and  C_9
REMARK    4  A    between atoms: C_21  and  O_22
REMARK                            x       y       z     vdW  Elec       q    Type
REMARK                         _______ _______ _______ _____ _____    ______ ____
ROOT
ATOM      1  C   UNL     1       4.910  15.231  18.384  0.00  0.00    +0.000 C 
ATOM      2  C   UNL     1       6.377  14.807  18.389  0.00  0.00    +0.000 C 
ATOM      3  N   UNL     1       7.170  15.996  18.673  0.00  0.00    +0.000 N 
ATOM      4  C   UNL     1       8.557  16.121  18.805  0.00  0.00    +0.000 C 
ATOM      5  O   UNL     1       9.071  17.199  19.096  0.00  0.00    +0.000 OA
ATOM      6  C   UNL     1       6.294  17.146  18.860  0.00  0.00    +0.000 C 
ATOM      7  C   UNL     1       4.902  16.571  19.142  0.00  0.00    +0.000 C 
ENDROOT
BRANCH   4   8
ATOM      8  C   UNL     1       9.444  14.919  18.584  0.00  0.00    +0.000 A 
ATOM      9  C   UNL     1      10.276  14.919  17.453  0.00  0.00    +0.000 A 
ATOM     10  C   UNL     1      11.007  13.800  17.086  0.00  0.00    +0.000 A 
ATOM     11  C   UNL     1      11.035  12.711  17.933  0.00  0.00    +0.000 A 
ATOM     12  F   UNL     1      11.775  11.650  17.571  0.00  0.00    +0.000 F 
ATOM     13  C   UNL     1      10.364  12.721  19.160  0.00  0.00    +0.000 A 
ATOM     14  C   UNL     1      10.546  11.645  20.044  0.00  0.00    +0.000 A 
ATOM     15  C   UNL     1       9.934  11.630  21.291  0.00  0.00    +0.000 A 
ATOM     16  C   UNL     1       9.098  12.677  21.650  0.00  0.00    +0.000 A 
ATOM     17  C   UNL     1       8.883  13.746  20.770  0.00  0.00    +0.000 A 
ATOM     18  C   UNL     1       9.531  13.825  19.508  0.00  0.00    +0.000 A 
ENDBRANCH   4   8
BRANCH   1  21
ATOM     19  O   UNL     1       2.099  15.145  18.185  0.00  0.00    +0.000 OA
ATOM     20  C   UNL     1       2.677  14.226  18.762  0.00  0.00    +0.000 C 
ATOM     21  N   UNL     1       4.040  14.213  18.946  0.00  0.00    +0.000 N 
ATOM     22  H   UNL     1       4.406  13.352  19.350  0.00  0.00    +0.000 HD
BRANCH  20  23
ATOM     23  C   UNL     1       1.989  13.050  19.312  0.00  0.00    +0.000 A 
ATOM     24  C   UNL     1       1.414  12.944  20.619  0.00  0.00    +0.000 A 
ATOM     25  C   UNL     1       0.895  11.684  20.660  0.00  0.00    +0.000 A 
ATOM     26  N   UNL     1       1.176  11.124  19.464  0.00  0.00    +0.000 N 
ATOM     27  N   UNL     1       1.822  11.904  18.596  0.00  0.00    +0.000 NA
ATOM     28  C   UNL     1       0.708   9.765  19.297  0.00  0.00    +0.000 C 
ATOM     29  C   UNL     1       0.057   9.467  20.665  0.00  0.00    +0.000 C 
ATOM     30  C   UNL     1       0.174  10.752  21.532  0.00  0.00    +0.000 C 
ENDBRANCH  20  23
ENDBRANCH   1  21
BRANCH   7  31
ATOM     31  O   UNL     1       3.883  17.436  18.649  0.00  0.00    +0.000 OA
ATOM     32  H   UNL     1       3.446  16.973  17.900  0.00  0.00    +0.000 HD
ENDBRANCH   7  31
TORSDOF 4
ENDMDL
MODEL 6
REMARK VINA RESULT:      -8.3      6.594      8.183
REMARK  Name = 
REMARK  4 active torsions:
REMARK  status: ('A' for Active; 'I' for Inactive)
REMARK    1  A    between atoms: C_2  and  C_23
REMARK    2  A    between atoms: N_3  and  C_4
REMARK    3  A    between atoms: C_7  and  C_9
REMARK    4  A    between atoms: C_21  and  O_22
REMARK                            x       y       z     vdW  Elec       q    Type
REMARK                         _______ _______ _______ _____ _____    ______ ____
ROOT
ATOM      1  C   UNL     1       3.334  15.290  19.314  0.00  0.00    +0.000 C 
ATOM      2  C   UNL     1       2.689  13.913  19.444  0.00  0.00    +0.000 C 
ATOM      3  N   UNL     1       1.307  14.038  19.001  0.00  0.00    +0.000 N 
ATOM      4  C   UNL     1       0.316  13.055  18.910  0.00  0.00    +0.000 C 
ATOM      5  O   UNL     1      -0.800  13.319  18.466  0.00  0.00    +0.000 OA
ATOM      6  C   UNL     1       1.039  15.410  18.585  0.00  0.00    +0.000 C 
ATOM      7  C   UNL     1       2.411  16.049  18.343  0.00  0.00    +0.000 C 
ENDROOT
BRANCH   4   8
ATOM      8  C   UNL     1       0.611  11.646  19.367  0.00  0.00    +0.000 A 
ATOM      9  C   UNL     1       1.432  10.853  18.551  0.00  0.00    +0.000 A 
ATOM     10  C   UNL     1       1.632   9.506  18.808  0.00  0.00    +0.000 A 
ATOM     11  C   UNL     1       1.134   8.966  19.976  0.00  0.00    +0.000 A 
ATOM     12  F   UNL     1       1.367   7.665  20.218  0.00  0.00    +0.000 F 
ATOM     13  C   UNL     1       0.456   9.751  20.914  0.00  0.00    +0.000 A 
ATOM     14  C   UNL     1       0.100   9.182  22.147  0.00  0.00    +0.000 A 
ATOM     15  C   UNL     1      -0.538   9.934  23.126  0.00  0.00    +0.000 A 
ATOM     16  C   UNL     1      -0.863  11.257  22.864  0.00  0.00    +0.000 A 
ATOM     17  C   UNL     1      -0.539  11.834  21.627  0.00  0.00    +0.000 A 
ATOM     18  C   UNL     1       0.159  11.115  20.620  0.00  0.00    +0.000 A 
ENDBRANCH   4   8
BRANCH   1  21
ATOM     19  O   UNL     1       5.170  17.428  19.214  0.00  0.00    +0.000 OA
ATOM     20  C   UNL     1       5.561  16.301  18.918  0.00  0.00    +0.000 C 
ATOM     21  N   UNL     1       4.721  15.212  18.892  0.00  0.00    +0.000 N 
ATOM     22  H   UNL     1       5.187  14.320  18.727  0.00  0.00    +0.000 HD
BRANCH  20  23
ATOM     23  C   UNL     1       6.952  15.990  18.562  0.00  0.00    +0.000 A 
ATOM     24  C   UNL     1       7.998  16.943  18.336  0.00  0.00    +0.000 A 
ATOM     25  C   UNL     1       9.091  16.182  18.044  0.00  0.00    +0.000 A 
ATOM     26  N   UNL     1       8.678  14.898  18.089  0.00  0.00    +0.000 N 
ATOM     27  N   UNL     1       7.398  14.712  18.413  0.00  0.00    +0.000 NA
ATOM     28  C   UNL     1       9.700  13.915  17.802  0.00  0.00    +0.000 C 
ATOM     29  C   UNL     1      10.934  14.793  17.505  0.00  0.00    +0.000 C 
ATOM     30  C   UNL     1      10.512  16.277  17.693  0.00  0.00    +0.000 C 
ENDBRANCH  20  23
ENDBRANCH   1  21
BRANCH   7  31
ATOM     31  O   UNL     1       2.384  17.443  18.640  0.00  0.00    +0.000 OA
ATOM     32  H   UNL     1       3.261  17.810  18.390  0.00  0.00    +0.000 HD
ENDBRANCH   7  31
TORSDOF 4
ENDMDL
MODEL 7
REMARK VINA RESULT:      -8.3      3.890      9.640
REMARK  Name = 
REMARK  4 active torsions:
REMARK  status: ('A' for Active; 'I' for Inactive)
REMARK    1  A    between atoms: C_2  and  C_23
REMARK    2  A    between atoms: N_3  and  C_4
REMARK    3  A    between atoms: C_7  and  C_9
REMARK    4  A    between atoms: C_21  and  O_22
REMARK                            x       y       z     vdW  Elec       q    Type
REMARK                         _______ _______ _______ _____ _____    ______ ____
ROOT
ATOM      1  C   UNL     1       2.229   4.874  20.923  0.00  0.00    +0.000 C 
ATOM      2  C   UNL     1       3.358   5.013  19.904  0.00  0.00    +0.000 C 
ATOM      3  N   UNL     1       3.321   3.830  19.053  0.00  0.00    +0.000 N 
ATOM      4  C   UNL     1       4.132   3.501  17.962  0.00  0.00    +0.000 C 
ATOM      5  O   UNL     1       3.937   2.475  17.314  0.00  0.00    +0.000 OA
ATOM      6  C   UNL     1       2.229   2.955  19.464  0.00  0.00    +0.000 C 
ATOM      7  C   UNL     1       1.288   3.826  20.303  0.00  0.00    +0.000 C 
ENDROOT
BRANCH   4   8
ATOM      8  C   UNL     1       5.270   4.414  17.571  0.00  0.00    +0.000 A 
ATOM      9  C   UNL     1       5.915   5.129  18.592  0.00  0.00    +0.000 A 
ATOM     10  C   UNL     1       6.863   6.101  18.313  0.00  0.00    +0.000 A 
ATOM     11  C   UNL     1       7.291   6.267  17.012  0.00  0.00    +0.000 A 
ATOM     12  F   UNL     1       8.232   7.194  16.771  0.00  0.00    +0.000 F 
ATOM     13  C   UNL     1       6.809   5.460  15.975  0.00  0.00    +0.000 A 
ATOM     14  C   UNL     1       7.385   5.575  14.700  0.00  0.00    +0.000 A 
ATOM     15  C   UNL     1       6.969   4.767  13.650  0.00  0.00    +0.000 A 
ATOM     16  C   UNL     1       5.939   3.860  13.857  0.00  0.00    +0.000 A 
ATOM     17  C   UNL     1       5.333   3.751  15.117  0.00  0.00    +0.000 A 
ATOM     18  C   UNL     1       5.765   4.521  16.229  0.00  0.00    +0.000 A 
ENDBRANCH   4   8
BRANCH   1  21
ATOM     19  O   UNL     1       2.508   7.265  19.454  0.00  0.00    +0.000 OA
ATOM     20  C   UNL     1       1.757   7.255  20.426  0.00  0.00    +0.000 C 
ATOM     21  N   UNL     1       1.600   6.148  21.226  0.00  0.00    +0.000 N 
ATOM     22  H   UNL     1       0.877   6.237  21.939  0.00  0.00    +0.000 HD
BRANCH  20  23
ATOM     23  C   UNL     1       0.949   8.410  20.841  0.00  0.00    +0.000 A 
ATOM     24  C   UNL     1       0.536   9.495  20.001  0.00  0.00    +0.000 A 
ATOM     25  C   UNL     1      -0.187  10.305  20.826  0.00  0.00    +0.000 A 
ATOM     26  N   UNL     1      -0.163   9.719  22.042  0.00  0.00    +0.000 N 
ATOM     27  N   UNL     1       0.494   8.561  22.115  0.00  0.00    +0.000 NA
ATOM     28  C   UNL     1      -0.881  10.429  23.079  0.00  0.00    +0.000 C 
ATOM     29  C   UNL     1      -1.394  11.679  22.334  0.00  0.00    +0.000 C 
ATOM     30  C   UNL     1      -0.944  11.561  20.851  0.00  0.00    +0.000 C 
ENDBRANCH  20  23
ENDBRANCH   1  21
BRANCH   7  31
ATOM     31  O   UNL     1       0.641   3.054  21.311  0.00  0.00    +0.000 OA
ATOM     32  H   UNL     1       1.001   2.141  21.253  0.00  0.00    +0.000 HD
ENDBRANCH   7  31
TORSDOF 4
ENDMDL
MODEL 8
REMARK VINA RESULT:      -8.2      7.723     11.090
REMARK  Name = 
REMARK  4 active torsions:
REMARK  status: ('A' for Active; 'I' for Inactive)
REMARK    1  A    between atoms: C_2  and  C_23
REMARK    2  A    between atoms: N_3  and  C_4
REMARK    3  A    between atoms: C_7  and  C_9
REMARK    4  A    between atoms: C_21  and  O_22
REMARK                            x       y       z     vdW  Elec       q    Type
REMARK                         _______ _______ _______ _____ _____    ______ ____
ROOT
ATOM      1  C   UNL     1       4.828  15.713  18.848  0.00  0.00    +0.000 C 
ATOM      2  C   UNL     1       6.238  15.137  18.757  0.00  0.00    +0.000 C 
ATOM      3  N   UNL     1       7.149  16.132  19.308  0.00  0.00    +0.000 N 
ATOM      4  C   UNL     1       8.537  16.066  19.468  0.00  0.00    +0.000 C 
ATOM      5  O   UNL     1       9.158  16.984  20.001  0.00  0.00    +0.000 OA
ATOM      6  C   UNL     1       6.399  17.300  19.754  0.00  0.00    +0.000 C 
ATOM      7  C   UNL     1       4.945  16.836  19.894  0.00  0.00    +0.000 C 
ENDROOT
BRANCH   4   8
ATOM      8  C   UNL     1       9.293  14.855  18.978  0.00  0.00    +0.000 A 
ATOM      9  C   UNL     1      10.088  15.001  17.830  0.00  0.00    +0.000 A 
ATOM     10  C   UNL     1      10.694  13.913  17.221  0.00  0.00    +0.000 A 
ATOM     11  C   UNL     1      10.637  12.681  17.839  0.00  0.00    +0.000 A 
ATOM     12  F   UNL     1      11.257  11.648  17.244  0.00  0.00    +0.000 F 
ATOM     13  C   UNL     1      10.005  12.511  19.075  0.00  0.00    +0.000 A 
ATOM     14  C   UNL     1      10.104  11.270  19.724  0.00  0.00    +0.000 A 
ATOM     15  C   UNL     1       9.528  11.067  20.972  0.00  0.00    +0.000 A 
ATOM     16  C   UNL     1       8.811  12.095  21.566  0.00  0.00    +0.000 A 
ATOM     17  C   UNL     1       8.679  13.332  20.920  0.00  0.00    +0.000 A 
ATOM     18  C   UNL     1       9.296  13.598  19.668  0.00  0.00    +0.000 A 
ENDBRANCH   4   8
BRANCH   1  21
ATOM     19  O   UNL     1       2.053  15.891  18.377  0.00  0.00    +0.000 OA
ATOM     20  C   UNL     1       2.505  14.852  18.853  0.00  0.00    +0.000 C 
ATOM     21  N   UNL     1       3.836  14.698  19.159  0.00  0.00    +0.000 N 
ATOM     22  H   UNL     1       4.099  13.758  19.455  0.00  0.00    +0.000 HD
BRANCH  20  23
ATOM     23  C   UNL     1       1.684  13.668  19.144  0.00  0.00    +0.000 A 
ATOM     24  C   UNL     1       0.507  13.263  18.437  0.00  0.00    +0.000 A 
ATOM     25  C   UNL     1       0.110  12.120  19.066  0.00  0.00    +0.000 A 
ATOM     26  N   UNL     1       0.996  11.914  20.063  0.00  0.00    +0.000 N 
ATOM     27  N   UNL     1       1.984  12.806  20.154  0.00  0.00    +0.000 NA
ATOM     28  C   UNL     1       0.752  10.736  20.867  0.00  0.00    +0.000 C 
ATOM     29  C   UNL     1      -0.537  10.165  20.238  0.00  0.00    +0.000 C 
ATOM     30  C   UNL     1      -0.924  11.080  19.043  0.00  0.00    +0.000 C 
ENDBRANCH  20  23
ENDBRANCH   1  21
BRANCH   7  31
ATOM     31  O   UNL     1       4.040  17.901  19.611  0.00  0.00    +0.000 OA
ATOM     32  H   UNL     1       3.525  18.069  20.431  0.00  0.00    +0.000 HD
ENDBRANCH   7  31
TORSDOF 4
ENDMDL
MODEL 9
REMARK VINA RESULT:      -8.2      6.283      7.912
REMARK  Name = 
REMARK  4 active torsions:
REMARK  status: ('A' for Active; 'I' for Inactive)
REMARK    1  A    between atoms: C_2  and  C_23
REMARK    2  A    between atoms: N_3  and  C_4
REMARK    3  A    between atoms: C_7  and  C_9
REMARK    4  A    between atoms: C_21  and  O_22
REMARK                            x       y       z     vdW  Elec       q    Type
REMARK                         _______ _______ _______ _____ _____    ______ ____
ROOT
ATOM      1  C   UNL     1       3.737  15.051  19.485  0.00  0.00    +0.000 C 
ATOM      2  C   UNL     1       2.821  13.892  19.870  0.00  0.00    +0.000 C 
ATOM      3  N   UNL     1       1.506  14.175  19.311  0.00  0.00    +0.000 N 
ATOM      4  C   UNL     1       0.338  13.408  19.369  0.00  0.00    +0.000 C 
ATOM      5  O   UNL     1      -0.688  13.771  18.797  0.00  0.00    +0.000 OA
ATOM      6  C   UNL     1       1.535  15.439  18.584  0.00  0.00    +0.000 C 
ATOM      7  C   UNL     1       3.014  15.727  18.306  0.00  0.00    +0.000 C 
ENDROOT
BRANCH   4   8
ATOM      8  C   UNL     1       0.327  12.113  20.147  0.00  0.00    +0.000 A 
ATOM      9  C   UNL     1      -0.352  12.095  21.375  0.00  0.00    +0.000 A 
ATOM     10  C   UNL     1      -0.287  11.003  22.227  0.00  0.00    +0.000 A 
ATOM     11  C   UNL     1       0.337   9.851  21.794  0.00  0.00    +0.000 A 
ATOM     12  F   UNL     1       0.361   8.797  22.625  0.00  0.00    +0.000 F 
ATOM     13  C   UNL     1       0.881   9.753  20.509  0.00  0.00    +0.000 A 
ATOM     14  C   UNL     1       1.373   8.513  20.071  0.00  0.00    +0.000 A 
ATOM     15  C   UNL     1       1.884   8.357  18.789  0.00  0.00    +0.000 A 
ATOM     16  C   UNL     1       1.946   9.454  17.943  0.00  0.00    +0.000 A 
ATOM     17  C   UNL     1       1.484  10.707  18.373  0.00  0.00    +0.000 A 
ATOM     18  C   UNL     1       0.906  10.897  19.656  0.00  0.00    +0.000 A 
ENDBRANCH   4   8
BRANCH   1  21
ATOM     19  O   UNL     1       6.061  16.645  19.554  0.00  0.00    +0.000 OA
ATOM     20  C   UNL     1       6.175  15.449  19.294  0.00  0.00    +0.000 C 
ATOM     21  N   UNL     1       5.090  14.611  19.192  0.00  0.00    +0.000 N 
ATOM     22  H   UNL     1       5.324  13.626  19.070  0.00  0.00    +0.000 HD
BRANCH  20  23
ATOM     23  C   UNL     1       7.466  14.786  19.068  0.00  0.00    +0.000 A 
ATOM     24  C   UNL     1       7.850  14.065  17.891  0.00  0.00    +0.000 A 
ATOM     25  C   UNL     1       9.121  13.645  18.151  0.00  0.00    +0.000 A 
ATOM     26  N   UNL     1       9.416  14.087  19.391  0.00  0.00    +0.000 N 
ATOM     27  N   UNL     1       8.463  14.799  19.995  0.00  0.00    +0.000 NA
ATOM     28  C   UNL     1      10.738  13.741  19.867  0.00  0.00    +0.000 C 
ATOM     29  C   UNL     1      11.310  12.917  18.694  0.00  0.00    +0.000 C 
ATOM     30  C   UNL     1      10.235  12.889  17.571  0.00  0.00    +0.000 C 
ENDBRANCH  20  23
ENDBRANCH   1  21
BRANCH   7  31
ATOM     31  O   UNL     1       3.265  17.130  18.284  0.00  0.00    +0.000 OA
ATOM     32  H   UNL     1       3.133  17.434  17.359  0.00  0.00    +0.000 HD
ENDBRANCH   7  31
TORSDOF 4
ENDMDL
