MODEL 1
REMARK VINA RESULT:      -9.4      0.000      0.000
REMARK  Name = 
REMARK  5 active torsions:
REMARK  status: ('A' for Active; 'I' for Inactive)
REMARK    1  A    between atoms: C_2  and  C_13
REMARK    2  A    between atoms: N_3  and  C_4
REMARK    3  A    between atoms: C_17  and  S_18
REMARK    4  A    between atoms: S_18  and  N_21
REMARK    5  A    between atoms: N_21  and  C_22
REMARK                            x       y       z     vdW  Elec       q    Type
REMARK                         _______ _______ _______ _____ _____    ______ ____
ROOT
ATOM      1  C   UNL     1       3.319   5.353  18.642  0.00  0.00    +0.000 A 
ATOM      2  C   UNL     1       2.972   3.999  18.487  0.00  0.00    +0.000 A 
ATOM      3  C   UNL     1       3.821   3.118  17.821  0.00  0.00    +0.000 A 
ATOM      4  C   UNL     1       5.028   3.582  17.308  0.00  0.00    +0.000 A 
ATOM      5  C   UNL     1       5.368   4.933  17.453  0.00  0.00    +0.000 A 
ATOM      6  C   UNL     1       4.523   5.829  18.123  0.00  0.00    +0.000 A 
ENDROOT
BRANCH   1   8
ATOM      7  O   UNL     1       1.702   5.613  20.272  0.00  0.00    +0.000 OA
ATOM      8  C   UNL     1       2.414   6.200  19.462  0.00  0.00    +0.000 C 
ATOM      9  N   UNL     1       2.403   7.556  19.185  0.00  0.00    +0.000 N 
ATOM     10  H   UNL     1       2.876   7.871  18.348  0.00  0.00    +0.000 HD
BRANCH   9  11
ATOM     11  C   UNL     1       1.554   8.493  19.826  0.00  0.00    +0.000 A 
ATOM     12  C   UNL     1       0.998   9.593  19.147  0.00  0.00    +0.000 A 
ATOM     13  C   UNL     1       0.258  10.567  19.819  0.00  0.00    +0.000 A 
ATOM     14  C   UNL     1       0.073  10.421  21.178  0.00  0.00    +0.000 A 
ATOM     15  C   UNL     1       0.565   9.316  21.853  0.00  0.00    +0.000 A 
ATOM     16  C   UNL     1       1.290   8.329  21.194  0.00  0.00    +0.000 A 
ATOM     17  C   UNL     1       0.218   9.436  23.291  0.00  0.00    +0.000 C 
ATOM     18  O   UNL     1      -0.478  10.700  23.419  0.00  0.00    +0.000 OA
ATOM     19  C   UNL     1      -0.602  11.336  22.127  0.00  0.00    +0.000 C 
ENDBRANCH   9  11
ENDBRANCH   1   8
BRANCH   5  20
ATOM     20  S   UNL     1       6.930   5.513  16.842  0.00  0.00    +0.000 S 
ATOM     21  O   UNL     1       7.141   6.826  17.405  0.00  0.00    +0.000 OA
ATOM     22  O   UNL     1       7.910   4.456  16.966  0.00  0.00    +0.000 OA
BRANCH  20  23
ATOM     23  N   UNL     1       6.617   5.756  15.200  0.00  0.00    +0.000 NA
ATOM     24  H   UNL     1       6.999   6.661  14.916  0.00  0.00    +0.000 HD
BRANCH  23  25
ATOM     25  C   UNL     1       6.829   4.640  14.272  0.00  0.00    +0.000 C 
ATOM     26  C   UNL     1       7.557   5.124  13.018  0.00  0.00    +0.000 C 
ATOM     27  C   UNL     1       7.209   4.097  11.940  0.00  0.00    +0.000 C 
ATOM     28  C   UNL     1       5.997   3.328  12.461  0.00  0.00    +0.000 C 
ATOM     29  C   UNL     1       5.535   4.088  13.695  0.00  0.00    +0.000 C 
ENDBRANCH  23  25
ENDBRANCH  20  23
ENDBRANCH   5  20
TORSDOF 5
ENDMDL
MODEL 2
REMARK VINA RESULT:      -9.4      1.056      1.078
REMARK  Name = 
REMARK  5 active torsions:
REMARK  status: ('A' for Active; 'I' for Inactive)
REMARK    1  A    between atoms: C_2  and  C_13
REMARK    2  A    between atoms: N_3  and  C_4
REMARK    3  A    between atoms: C_17  and  S_18
REMARK    4  A    between atoms: S_18  and  N_21
REMARK    5  A    between atoms: N_21  and  C_22
REMARK                            x       y       z     vdW  Elec       q    Type
REMARK                         _______ _______ _______ _____ _____    ______ ____
ROOT
ATOM      1  C   UNL     1       3.422   6.474  17.875  0.00  0.00    +0.000 A 
ATOM      2  C   UNL     1       2.843   5.201  18.021  0.00  0.00    +0.000 A 
ATOM      3  C   UNL     1       3.593   4.048  17.796  0.00  0.00    +0.000 A 
ATOM      4  C   UNL     1       4.930   4.159  17.429  0.00  0.00    +0.000 A 
ATOM      5  C   UNL     1       5.503   5.427  17.274  0.00  0.00    +0.000 A 
ATOM      6  C   UNL     1       4.760   6.594  17.497  0.00  0.00    +0.000 A 
ENDROOT
BRANCH   1   8
ATOM      7  O   UNL     1       2.535   8.559  17.419  0.00  0.00    +0.000 OA
ATOM      8  C   UNL     1       2.588   7.649  18.242  0.00  0.00    +0.000 C 
ATOM      9  N   UNL     1       2.013   7.640  19.500  0.00  0.00    +0.000 N 
ATOM     10  H   UNL     1       2.317   6.930  20.154  0.00  0.00    +0.000 HD
BRANCH   9  11
ATOM     11  C   UNL     1       1.244   8.705  20.032  0.00  0.00    +0.000 A 
ATOM     12  C   UNL     1       0.985   9.883  19.306  0.00  0.00    +0.000 A 
ATOM     13  C   UNL     1       0.324  10.968  19.885  0.00  0.00    +0.000 A 
ATOM     14  C   UNL     1      -0.085  10.854  21.197  0.00  0.00    +0.000 A 
ATOM     15  C   UNL     1       0.110   9.683  21.909  0.00  0.00    +0.000 A 
ATOM     16  C   UNL     1       0.754   8.588  21.340  0.00  0.00    +0.000 A 
ATOM     17  C   UNL     1      -0.425   9.859  23.282  0.00  0.00    +0.000 C 
ATOM     18  O   UNL     1      -0.913  11.222  23.337  0.00  0.00    +0.000 OA
ATOM     19  C   UNL     1      -0.735  11.869  22.057  0.00  0.00    +0.000 C 
ENDBRANCH   9  11
ENDBRANCH   1   8
BRANCH   5  20
ATOM     20  S   UNL     1       7.222   5.566  16.853  0.00  0.00    +0.000 S 
ATOM     21  O   UNL     1       7.700   6.795  17.440  0.00  0.00    +0.000 OA
ATOM     22  O   UNL     1       7.872   4.296  17.091  0.00  0.00    +0.000 OA
BRANCH  20  23
ATOM     23  N   UNL     1       7.174   5.834  15.186  0.00  0.00    +0.000 NA
ATOM     24  H   UNL     1       7.848   6.562  14.943  0.00  0.00    +0.000 HD
BRANCH  23  25
ATOM     25  C   UNL     1       7.120   4.673  14.290  0.00  0.00    +0.000 C 
ATOM     26  C   UNL     1       7.704   5.031  12.924  0.00  0.00    +0.000 C 
ATOM     27  C   UNL     1       7.088   4.021  11.956  0.00  0.00    +0.000 C 
ATOM     28  C   UNL     1       5.888   3.415  12.680  0.00  0.00    +0.000 C 
ATOM     29  C   UNL     1       5.702   4.260  13.931  0.00  0.00    +0.000 C 
ENDBRANCH  23  25
ENDBRANCH  20  23
ENDBRANCH   5  20
TORSDOF 5
ENDMDL
MODEL 3
REMARK VINA RESULT:      -9.2      1.995      2.309
REMARK  Name = 
REMARK  5 active torsions:
REMARK  status: ('A' for Active; 'I' for Inactive)
REMARK    1  A    between atoms: C_2  and  C_13
REMARK    2  A    between atoms: N_3  and  C_4
REMARK    3  A    between atoms: C_17  and  S_18
REMARK    4  A    between atoms: S_18  and  N_21
REMARK    5  A    between atoms: N_21  and  C_22
REMARK                            x       y       z     vdW  Elec       q    Type
REMARK                         _______ _______ _______ _____ _____    ______ ____
ROOT
ATOM      1  C   UNL     1       3.058   6.517  18.050  0.00  0.00    +0.000 A 
ATOM      2  C   UNL     1       2.467   5.243  18.117  0.00  0.00    +0.000 A 
ATOM      3  C   UNL     1       3.159   4.114  17.683  0.00  0.00    +0.000 A 
ATOM      4  C   UNL     1       4.450   4.249  17.183  0.00  0.00    +0.000 A 
ATOM      5  C   UNL     1       5.033   5.519  17.106  0.00  0.00    +0.000 A 
ATOM      6  C   UNL     1       4.348   6.663  17.541  0.00  0.00    +0.000 A 
ENDROOT
BRANCH   1   8
ATOM      7  O   UNL     1       2.156   7.643  19.856  0.00  0.00    +0.000 OA
ATOM      8  C   UNL     1       2.299   7.653  18.636  0.00  0.00    +0.000 C 
ATOM      9  N   UNL     1       1.762   8.571  17.751  0.00  0.00    +0.000 N 
ATOM     10  H   UNL     1       1.771   8.339  16.766  0.00  0.00    +0.000 HD
BRANCH   9  11
ATOM     11  C   UNL     1       0.959   9.674  18.137  0.00  0.00    +0.000 A 
ATOM     12  C   UNL     1       1.471  10.757  18.875  0.00  0.00    +0.000 A 
ATOM     13  C   UNL     1       0.643  11.778  19.343  0.00  0.00    +0.000 A 
ATOM     14  C   UNL     1      -0.704  11.706  19.054  0.00  0.00    +0.000 A 
ATOM     15  C   UNL     1      -1.217  10.679  18.282  0.00  0.00    +0.000 A 
ATOM     16  C   UNL     1      -0.401   9.663  17.795  0.00  0.00    +0.000 A 
ATOM     17  C   UNL     1      -2.683  10.864  18.145  0.00  0.00    +0.000 C 
ATOM     18  O   UNL     1      -2.999  12.047  18.919  0.00  0.00    +0.000 OA
ATOM     19  C   UNL     1      -1.795  12.610  19.487  0.00  0.00    +0.000 C 
ENDBRANCH   9  11
ENDBRANCH   1   8
BRANCH   5  20
ATOM     20  S   UNL     1       6.698   5.684  16.514  0.00  0.00    +0.000 S 
ATOM     21  O   UNL     1       7.167   6.983  16.934  0.00  0.00    +0.000 OA
ATOM     22  O   UNL     1       7.428   4.471  16.809  0.00  0.00    +0.000 OA
BRANCH  20  23
ATOM     23  N   UNL     1       6.487   5.783  14.841  0.00  0.00    +0.000 NA
ATOM     24  H   UNL     1       6.928   6.639  14.497  0.00  0.00    +0.000 HD
BRANCH  23  25
ATOM     25  C   UNL     1       6.694   4.575  14.034  0.00  0.00    +0.000 C 
ATOM     26  C   UNL     1       7.453   4.917  12.753  0.00  0.00    +0.000 C 
ATOM     27  C   UNL     1       7.105   3.793  11.778  0.00  0.00    +0.000 C 
ATOM     28  C   UNL     1       5.869   3.101  12.349  0.00  0.00    +0.000 C 
ATOM     29  C   UNL     1       5.400   3.990  13.491  0.00  0.00    +0.000 C 
ENDBRANCH  23  25
ENDBRANCH  20  23
ENDBRANCH   5  20
TORSDOF 5
ENDMDL
MODEL 4
REMARK VINA RESULT:      -9.2      2.175      2.448
REMARK  Name = 
REMARK  5 active torsions:
REMARK  status: ('A' for Active; 'I' for Inactive)
REMARK    1  A    between atoms: C_2  and  C_13
REMARK    2  A    between atoms: N_3  and  C_4
REMARK    3  A    between atoms: C_17  and  S_18
REMARK    4  A    between atoms: S_18  and  N_21
REMARK    5  A    between atoms: N_21  and  C_22
REMARK                            x       y       z     vdW  Elec       q    Type
REMARK                         _______ _______ _______ _____ _____    ______ ____
ROOT
ATOM      1  C   UNL     1       3.331   6.404  17.919  0.00  0.00    +0.000 A 
ATOM      2  C   UNL     1       2.725   5.137  17.980  0.00  0.00    +0.000 A 
ATOM      3  C   UNL     1       3.402   4.002  17.536  0.00  0.00    +0.000 A 
ATOM      4  C   UNL     1       4.692   4.125  17.032  0.00  0.00    +0.000 A 
ATOM      5  C   UNL     1       5.291   5.389  16.960  0.00  0.00    +0.000 A 
ATOM      6  C   UNL     1       4.621   6.538  17.405  0.00  0.00    +0.000 A 
ENDROOT
BRANCH   1   8
ATOM      7  O   UNL     1       2.234   7.415  19.684  0.00  0.00    +0.000 OA
ATOM      8  C   UNL     1       2.588   7.545  18.515  0.00  0.00    +0.000 C 
ATOM      9  N   UNL     1       2.302   8.612  17.681  0.00  0.00    +0.000 N 
ATOM     10  H   UNL     1       2.462   8.492  16.689  0.00  0.00    +0.000 HD
BRANCH   9  11
ATOM     11  C   UNL     1       1.548   9.747  18.070  0.00  0.00    +0.000 A 
ATOM     12  C   UNL     1       0.146   9.715  18.193  0.00  0.00    +0.000 A 
ATOM     13  C   UNL     1      -0.589  10.870  18.466  0.00  0.00    +0.000 A 
ATOM     14  C   UNL     1       0.098  12.055  18.625  0.00  0.00    +0.000 A 
ATOM     15  C   UNL     1       1.480  12.096  18.564  0.00  0.00    +0.000 A 
ATOM     16  C   UNL     1       2.228  10.950  18.308  0.00  0.00    +0.000 A 
ATOM     17  C   UNL     1       1.931  13.495  18.767  0.00  0.00    +0.000 C 
ATOM     18  O   UNL     1       0.720  14.276  18.914  0.00  0.00    +0.000 OA
ATOM     19  C   UNL     1      -0.441  13.417  18.848  0.00  0.00    +0.000 C 
ENDBRANCH   9  11
ENDBRANCH   1   8
BRANCH   5  20
ATOM     20  S   UNL     1       6.955   5.537  16.363  0.00  0.00    +0.000 S 
ATOM     21  O   UNL     1       7.445   6.824  16.797  0.00  0.00    +0.000 OA
ATOM     22  O   UNL     1       7.669   4.310  16.637  0.00  0.00    +0.000 OA
BRANCH  20  23
ATOM     23  N   UNL     1       6.738   5.663  14.692  0.00  0.00    +0.000 NA
ATOM     24  H   UNL     1       7.266   6.466  14.344  0.00  0.00    +0.000 HD
BRANCH  23  25
ATOM     25  C   UNL     1       6.802   4.442  13.882  0.00  0.00    +0.000 C 
ATOM     26  C   UNL     1       7.482   4.728  12.543  0.00  0.00    +0.000 C 
ATOM     27  C   UNL     1       6.987   3.627  11.606  0.00  0.00    +0.000 C 
ATOM     28  C   UNL     1       5.756   3.020  12.276  0.00  0.00    +0.000 C 
ATOM     29  C   UNL     1       5.435   3.941  13.443  0.00  0.00    +0.000 C 
ENDBRANCH  23  25
ENDBRANCH  20  23
ENDBRANCH   5  20
TORSDOF 5
ENDMDL
MODEL 5
REMARK VINA RESULT:      -9.1      1.262      1.747
REMARK  Name = 
REMARK  5 active torsions:
REMARK  status: ('A' for Active; 'I' for Inactive)
REMARK    1  A    between atoms: C_2  and  C_13
REMARK    2  A    between atoms: N_3  and  C_4
REMARK    3  A    between atoms: C_17  and  S_18
REMARK    4  A    between atoms: S_18  and  N_21
REMARK    5  A    between atoms: N_21  and  C_22
REMARK                            x       y       z     vdW  Elec       q    Type
REMARK                         _______ _______ _______ _____ _____    ______ ____
ROOT
ATOM      1  C   UNL     1       3.162   6.597  17.994  0.00  0.00    +0.000 A 
ATOM      2  C   UNL     1       2.529   5.342  18.043  0.00  0.00    +0.000 A 
ATOM      3  C   UNL     1       3.190   4.194  17.609  0.00  0.00    +0.000 A 
ATOM      4  C   UNL     1       4.491   4.291  17.127  0.00  0.00    +0.000 A 
ATOM      5  C   UNL     1       5.116   5.543  17.068  0.00  0.00    +0.000 A 
ATOM      6  C   UNL     1       4.463   6.705  17.502  0.00  0.00    +0.000 A 
ENDROOT
BRANCH   1   8
ATOM      7  O   UNL     1       2.420   8.784  17.915  0.00  0.00    +0.000 OA
ATOM      8  C   UNL     1       2.432   7.752  18.579  0.00  0.00    +0.000 C 
ATOM      9  N   UNL     1       1.900   7.580  19.846  0.00  0.00    +0.000 N 
ATOM     10  H   UNL     1       2.171   6.755  20.364  0.00  0.00    +0.000 HD
BRANCH   9  11
ATOM     11  C   UNL     1       1.233   8.597  20.573  0.00  0.00    +0.000 A 
ATOM     12  C   UNL     1       1.253   8.654  21.980  0.00  0.00    +0.000 A 
ATOM     13  C   UNL     1       0.497   9.594  22.683  0.00  0.00    +0.000 A 
ATOM     14  C   UNL     1      -0.270  10.483  21.960  0.00  0.00    +0.000 A 
ATOM     15  C   UNL     1      -0.258  10.480  20.576  0.00  0.00    +0.000 A 
ATOM     16  C   UNL     1       0.502   9.559  19.861  0.00  0.00    +0.000 A 
ATOM     17  C   UNL     1      -1.176  11.536  20.084  0.00  0.00    +0.000 C 
ATOM     18  O   UNL     1      -1.752  12.135  21.270  0.00  0.00    +0.000 OA
ATOM     19  C   UNL     1      -1.204  11.520  22.457  0.00  0.00    +0.000 C 
ENDBRANCH   9  11
ENDBRANCH   1   8
BRANCH   5  20
ATOM     20  S   UNL     1       6.793   5.658  16.498  0.00  0.00    +0.000 S 
ATOM     21  O   UNL     1       7.295   6.943  16.924  0.00  0.00    +0.000 OA
ATOM     22  O   UNL     1       7.483   4.424  16.802  0.00  0.00    +0.000 OA
BRANCH  20  23
ATOM     23  N   UNL     1       6.608   5.763  14.822  0.00  0.00    +0.000 NA
ATOM     24  H   UNL     1       7.121   6.578  14.478  0.00  0.00    +0.000 HD
BRANCH  23  25
ATOM     25  C   UNL     1       6.723   4.538  14.025  0.00  0.00    +0.000 C 
ATOM     26  C   UNL     1       7.493   4.815  12.734  0.00  0.00    +0.000 C 
ATOM     27  C   UNL     1       7.059   3.710  11.771  0.00  0.00    +0.000 C 
ATOM     28  C   UNL     1       5.783   3.111  12.360  0.00  0.00    +0.000 C 
ATOM     29  C   UNL     1       5.387   4.039  13.497  0.00  0.00    +0.000 C 
ENDBRANCH  23  25
ENDBRANCH  20  23
ENDBRANCH   5  20
TORSDOF 5
ENDMDL
MODEL 6
REMARK VINA RESULT:      -9.0      0.724      1.387
REMARK  Name = 
REMARK  5 active torsions:
REMARK  status: ('A' for Active; 'I' for Inactive)
REMARK    1  A    between atoms: C_2  and  C_13
REMARK    2  A    between atoms: N_3  and  C_4
REMARK    3  A    between atoms: C_17  and  S_18
REMARK    4  A    between atoms: S_18  and  N_21
REMARK    5  A    between atoms: N_21  and  C_22
REMARK                            x       y       z     vdW  Elec       q    Type
REMARK                         _______ _______ _______ _____ _____    ______ ____
ROOT
ATOM      1  C   UNL     1       3.145   5.500  18.574  0.00  0.00    +0.000 A 
ATOM      2  C   UNL     1       2.678   4.209  18.264  0.00  0.00    +0.000 A 
ATOM      3  C   UNL     1       3.413   3.368  17.430  0.00  0.00    +0.000 A 
ATOM      4  C   UNL     1       4.622   3.808  16.903  0.00  0.00    +0.000 A 
ATOM      5  C   UNL     1       5.081   5.097  17.203  0.00  0.00    +0.000 A 
ATOM      6  C   UNL     1       4.352   5.952  18.041  0.00  0.00    +0.000 A 
ENDROOT
BRANCH   1   8
ATOM      7  O   UNL     1       1.760   5.651  20.417  0.00  0.00    +0.000 OA
ATOM      8  C   UNL     1       2.360   6.290  19.558  0.00  0.00    +0.000 C 
ATOM      9  N   UNL     1       2.319   7.661  19.370  0.00  0.00    +0.000 N 
ATOM     10  H   UNL     1       2.679   8.030  18.500  0.00  0.00    +0.000 HD
BRANCH   9  11
ATOM     11  C   UNL     1       1.568   8.553  20.176  0.00  0.00    +0.000 A 
ATOM     12  C   UNL     1       1.484   8.416  21.574  0.00  0.00    +0.000 A 
ATOM     13  C   UNL     1       0.649   9.233  22.339  0.00  0.00    +0.000 A 
ATOM     14  C   UNL     1      -0.091  10.197  21.687  0.00  0.00    +0.000 A 
ATOM     15  C   UNL     1       0.022  10.384  20.320  0.00  0.00    +0.000 A 
ATOM     16  C   UNL     1       0.861   9.588  19.547  0.00  0.00    +0.000 A 
ATOM     17  C   UNL     1      -0.891  11.478  19.907  0.00  0.00    +0.000 C 
ATOM     18  O   UNL     1      -1.572  11.895  21.116  0.00  0.00    +0.000 OA
ATOM     19  C   UNL     1      -1.092  11.134  22.247  0.00  0.00    +0.000 C 
ENDBRANCH   9  11
ENDBRANCH   1   8
BRANCH   5  20
ATOM     20  S   UNL     1       6.647   5.638  16.570  0.00  0.00    +0.000 S 
ATOM     21  O   UNL     1       6.844   6.991  17.035  0.00  0.00    +0.000 OA
ATOM     22  O   UNL     1       7.631   4.601  16.787  0.00  0.00    +0.000 OA
BRANCH  20  23
ATOM     23  N   UNL     1       6.356   5.755  14.910  0.00  0.00    +0.000 NA
ATOM     24  H   UNL     1       6.680   6.664  14.575  0.00  0.00    +0.000 HD
BRANCH  23  25
ATOM     25  C   UNL     1       6.665   4.600  14.060  0.00  0.00    +0.000 C 
ATOM     26  C   UNL     1       7.486   5.037  12.849  0.00  0.00    +0.000 C 
ATOM     27  C   UNL     1       7.249   3.952  11.799  0.00  0.00    +0.000 C 
ATOM     28  C   UNL     1       6.012   3.182  12.256  0.00  0.00    +0.000 C 
ATOM     29  C   UNL     1       5.434   3.991  13.407  0.00  0.00    +0.000 C 
ENDBRANCH  23  25
ENDBRANCH  20  23
ENDBRANCH   5  20
TORSDOF 5
ENDMDL
MODEL 7
REMARK VINA RESULT:      -8.8      1.785      2.353
REMARK  Name = 
REMARK  5 active torsions:
REMARK  status: ('A' for Active; 'I' for Inactive)
REMARK    1  A    between atoms: C_2  and  C_13
REMARK    2  A    between atoms: N_3  and  C_4
REMARK    3  A    between atoms: C_17  and  S_18
REMARK    4  A    between atoms: S_18  and  N_21
REMARK    5  A    between atoms: N_21  and  C_22
REMARK                            x       y       z     vdW  Elec       q    Type
REMARK                         _______ _______ _______ _____ _____    ______ ____
ROOT
ATOM      1  C   UNL     1       3.538   6.792  18.230  0.00  0.00    +0.000 A 
ATOM      2  C   UNL     1       3.316   5.770  19.170  0.00  0.00    +0.000 A 
ATOM      3  C   UNL     1       4.222   4.721  19.307  0.00  0.00    +0.000 A 
ATOM      4  C   UNL     1       5.362   4.688  18.511  0.00  0.00    +0.000 A 
ATOM      5  C   UNL     1       5.577   5.701  17.567  0.00  0.00    +0.000 A 
ATOM      6  C   UNL     1       4.673   6.762  17.420  0.00  0.00    +0.000 A 
ENDROOT
BRANCH   1   8
ATOM      7  O   UNL     1       2.558   8.617  17.206  0.00  0.00    +0.000 OA
ATOM      8  C   UNL     1       2.584   7.932  18.224  0.00  0.00    +0.000 C 
ATOM      9  N   UNL     1       1.871   8.159  19.389  0.00  0.00    +0.000 N 
ATOM     10  H   UNL     1       2.150   7.653  20.220  0.00  0.00    +0.000 HD
BRANCH   9  11
ATOM     11  C   UNL     1       0.971   9.238  19.574  0.00  0.00    +0.000 A 
ATOM     12  C   UNL     1       0.817   9.886  20.814  0.00  0.00    +0.000 A 
ATOM     13  C   UNL     1      -0.155  10.870  21.008  0.00  0.00    +0.000 A 
ATOM     14  C   UNL     1      -0.963  11.204  19.941  0.00  0.00    +0.000 A 
ATOM     15  C   UNL     1      -0.789  10.618  18.700  0.00  0.00    +0.000 A 
ATOM     16  C   UNL     1       0.186   9.647  18.487  0.00  0.00    +0.000 A 
ATOM     17  C   UNL     1      -1.798  11.168  17.761  0.00  0.00    +0.000 C 
ATOM     18  O   UNL     1      -2.597  12.088  18.545  0.00  0.00    +0.000 OA
ATOM     19  C   UNL     1      -2.101  12.151  19.901  0.00  0.00    +0.000 C 
ENDBRANCH   9  11
ENDBRANCH   1   8
BRANCH   5  20
ATOM     20  S   UNL     1       7.055   5.684  16.586  0.00  0.00    +0.000 S 
ATOM     21  O   UNL     1       7.712   6.953  16.792  0.00  0.00    +0.000 OA
ATOM     22  O   UNL     1       7.739   4.424  16.780  0.00  0.00    +0.000 OA
BRANCH  20  23
ATOM     23  N   UNL     1       6.452   5.722  15.008  0.00  0.00    +0.000 NA
ATOM     24  H   UNL     1       6.641   6.639  14.598  0.00  0.00    +0.000 HD
BRANCH  23  25
ATOM     25  C   UNL     1       6.681   4.562  14.140  0.00  0.00    +0.000 C 
ATOM     26  C   UNL     1       7.469   4.976  12.899  0.00  0.00    +0.000 C 
ATOM     27  C   UNL     1       7.147   3.909  11.853  0.00  0.00    +0.000 C 
ATOM     28  C   UNL     1       5.900   3.184  12.356  0.00  0.00    +0.000 C 
ATOM     29  C   UNL     1       5.401   4.007  13.534  0.00  0.00    +0.000 C 
ENDBRANCH  23  25
ENDBRANCH  20  23
ENDBRANCH   5  20
TORSDOF 5
ENDMDL
MODEL 8
REMARK VINA RESULT:      -8.8      2.152      2.398
REMARK  Name = 
REMARK  5 active torsions:
REMARK  status: ('A' for Active; 'I' for Inactive)
REMARK    1  A    between atoms: C_2  and  C_13
REMARK    2  A    between atoms: N_3  and  C_4
REMARK    3  A    between atoms: C_17  and  S_18
REMARK    4  A    between atoms: S_18  and  N_21
REMARK    5  A    between atoms: N_21  and  C_22
REMARK                            x       y       z     vdW  Elec       q    Type
REMARK                         _______ _______ _______ _____ _____    ______ ____
ROOT
ATOM      1  C   UNL     1       3.337   6.369  17.991  0.00  0.00    +0.000 A 
ATOM      2  C   UNL     1       2.660   5.146  17.840  0.00  0.00    +0.000 A 
ATOM      3  C   UNL     1       3.345   3.997  17.447  0.00  0.00    +0.000 A 
ATOM      4  C   UNL     1       4.713   4.061  17.205  0.00  0.00    +0.000 A 
ATOM      5  C   UNL     1       5.384   5.283  17.345  0.00  0.00    +0.000 A 
ATOM      6  C   UNL     1       4.708   6.445  17.742  0.00  0.00    +0.000 A 
ENDROOT
BRANCH   1   8
ATOM      7  O   UNL     1       2.216   7.449  19.699  0.00  0.00    +0.000 OA
ATOM      8  C   UNL     1       2.559   7.518  18.522  0.00  0.00    +0.000 C 
ATOM      9  N   UNL     1       2.230   8.521  17.626  0.00  0.00    +0.000 N 
ATOM     10  H   UNL     1       2.389   8.345  16.642  0.00  0.00    +0.000 HD
BRANCH   9  11
ATOM     11  C   UNL     1       1.440   9.651  17.950  0.00  0.00    +0.000 A 
ATOM     12  C   UNL     1       2.005  10.867  18.379  0.00  0.00    +0.000 A 
ATOM     13  C   UNL     1       1.209  11.933  18.803  0.00  0.00    +0.000 A 
ATOM     14  C   UNL     1      -0.161  11.769  18.782  0.00  0.00    +0.000 A 
ATOM     15  C   UNL     1      -0.736  10.602  18.310  0.00  0.00    +0.000 A 
ATOM     16  C   UNL     1       0.045   9.537  17.870  0.00  0.00    +0.000 A 
ATOM     17  C   UNL     1      -2.211  10.716  18.413  0.00  0.00    +0.000 C 
ATOM     18  O   UNL     1      -2.461  12.012  19.009  0.00  0.00    +0.000 OA
ATOM     19  C   UNL     1      -1.214  12.705  19.239  0.00  0.00    +0.000 C 
ENDBRANCH   9  11
ENDBRANCH   1   8
BRANCH   5  20
ATOM     20  S   UNL     1       7.138   5.352  17.085  0.00  0.00    +0.000 S 
ATOM     21  O   UNL     1       7.440   6.679  16.602  0.00  0.00    +0.000 OA
ATOM     22  O   UNL     1       7.811   4.779  18.230  0.00  0.00    +0.000 OA
BRANCH  20  23
ATOM     23  N   UNL     1       7.358   4.317  15.767  0.00  0.00    +0.000 NA
ATOM     24  H   UNL     1       7.111   3.365  16.044  0.00  0.00    +0.000 HD
BRANCH  23  25
ATOM     25  C   UNL     1       6.892   4.752  14.447  0.00  0.00    +0.000 C 
ATOM     26  C   UNL     1       6.164   3.611  13.738  0.00  0.00    +0.000 C 
ATOM     27  C   UNL     1       6.252   3.951  12.251  0.00  0.00    +0.000 C 
ATOM     28  C   UNL     1       7.352   5.002  12.119  0.00  0.00    +0.000 C 
ATOM     29  C   UNL     1       8.028   5.053  13.481  0.00  0.00    +0.000 C 
ENDBRANCH  23  25
ENDBRANCH  20  23
ENDBRANCH   5  20
TORSDOF 5
ENDMDL
MODEL 9
REMARK VINA RESULT:      -8.8      5.975      7.970
REMARK  Name = 
REMARK  5 active torsions:
REMARK  status: ('A' for Active; 'I' for Inactive)
REMARK    1  A    between atoms: C_2  and  C_13
REMARK    2  A    between atoms: N_3  and  C_4
REMARK    3  A    between atoms: C_17  and  S_18
REMARK    4  A    between atoms: S_18  and  N_21
REMARK    5  A    between atoms: N_21  and  C_22
REMARK                            x       y       z     vdW  Elec       q    Type
REMARK                         _______ _______ _______ _____ _____    ______ ____
ROOT
ATOM      1  C   UNL     1       7.869   7.838  18.237  0.00  0.00    +0.000 A 
ATOM      2  C   UNL     1       8.448   6.920  19.132  0.00  0.00    +0.000 A 
ATOM      3  C   UNL     1       8.105   5.570  19.087  0.00  0.00    +0.000 A 
ATOM      4  C   UNL     1       7.185   5.126  18.144  0.00  0.00    +0.000 A 
ATOM      5  C   UNL     1       6.600   6.042  17.261  0.00  0.00    +0.000 A 
ATOM      6  C   UNL     1       6.938   7.402  17.294  0.00  0.00    +0.000 A 
ENDROOT
BRANCH   1   8
ATOM      7  O   UNL     1       7.946   9.993  17.407  0.00  0.00    +0.000 OA
ATOM      8  C   UNL     1       8.371   9.236  18.275  0.00  0.00    +0.000 C 
ATOM      9  N   UNL     1       9.324   9.535  19.235  0.00  0.00    +0.000 N 
ATOM     10  H   UNL     1       9.741   8.765  19.740  0.00  0.00    +0.000 HD
BRANCH   9  11
ATOM     11  C   UNL     1       9.952  10.798  19.367  0.00  0.00    +0.000 A 
ATOM     12  C   UNL     1       9.877  11.557  20.549  0.00  0.00    +0.000 A 
ATOM     13  C   UNL     1      10.405  12.847  20.624  0.00  0.00    +0.000 A 
ATOM     14  C   UNL     1      11.019  13.363  19.502  0.00  0.00    +0.000 A 
ATOM     15  C   UNL     1      11.154  12.610  18.349  0.00  0.00    +0.000 A 
ATOM     16  C   UNL     1      10.646  11.318  18.265  0.00  0.00    +0.000 A 
ATOM     17  C   UNL     1      11.847  13.425  17.320  0.00  0.00    +0.000 C 
ATOM     18  O   UNL     1      12.077  14.715  17.936  0.00  0.00    +0.000 OA
ATOM     19  C   UNL     1      11.592  14.714  19.297  0.00  0.00    +0.000 C 
ENDBRANCH   9  11
ENDBRANCH   1   8
BRANCH   5  20
ATOM     20  S   UNL     1       5.464   5.466  16.026  0.00  0.00    +0.000 S 
ATOM     21  O   UNL     1       5.164   6.591  15.172  0.00  0.00    +0.000 OA
ATOM     22  O   UNL     1       5.935   4.204  15.499  0.00  0.00    +0.000 OA
BRANCH  20  23
ATOM     23  N   UNL     1       4.061   5.175  16.922  0.00  0.00    +0.000 NA
ATOM     24  H   UNL     1       3.332   5.827  16.625  0.00  0.00    +0.000 HD
BRANCH  23  25
ATOM     25  C   UNL     1       3.642   3.786  17.140  0.00  0.00    +0.000 C 
ATOM     26  C   UNL     1       2.141   3.722  17.418  0.00  0.00    +0.000 C 
ATOM     27  C   UNL     1       1.937   2.411  18.177  0.00  0.00    +0.000 C 
ATOM     28  C   UNL     1       3.317   1.988  18.674  0.00  0.00    +0.000 C 
ATOM     29  C   UNL     1       4.226   3.178  18.406  0.00  0.00    +0.000 C 
ENDBRANCH  23  25
ENDBRANCH  20  23
ENDBRANCH   5  20
TORSDOF 5
ENDMDL
