MODEL 1
REMARK VINA RESULT:      -8.9      0.000      0.000
REMARK  Name = 
REMARK  6 active torsions:
REMARK  status: ('A' for Active; 'I' for Inactive)
REMARK    1  A    between atoms: C_1  and  C_2
REMARK    2  A    between atoms: N_7  and  C_8
REMARK    3  A    between atoms: C_12  and  C_13
REMARK    4  A    between atoms: C_13  and  C_14
REMARK    5  A    between atoms: C_14  and  C_15
REMARK    6  A    between atoms: N_19  and  C_20
REMARK                            x       y       z     vdW  Elec       q    Type
REMARK                         _______ _______ _______ _____ _____    ______ ____
ROOT
ATOM      1  C   UNL     1       2.785   6.150  18.192  0.00  0.00    +0.000 A 
ATOM      2  C   UNL     1       1.872   5.102  18.282  0.00  0.00    +0.000 A 
ATOM      3  C   UNL     1       2.201   3.849  17.774  0.00  0.00    +0.000 A 
ATOM      4  C   UNL     1       3.433   3.652  17.151  0.00  0.00    +0.000 A 
ATOM      5  C   UNL     1       4.349   4.705  16.957  0.00  0.00    +0.000 A 
ATOM      6  C   UNL     1       3.988   5.949  17.503  0.00  0.00    +0.000 A 
ENDROOT
BRANCH   1  13
ATOM      7  C   UNL     1      -1.466  11.712  19.491  0.00  0.00    +0.000 C 
ATOM      8  C   UNL     1      -0.382  10.727  19.520  0.00  0.00    +0.000 C 
ATOM      9  C   UNL     1      -0.476  10.065  20.711  0.00  0.00    +0.000 C 
ATOM     10  C   UNL     1       0.441   9.654  19.842  0.00  0.00    +0.000 C 
ATOM     11  C   UNL     1       1.378   8.821  19.522  0.00  0.00    +0.000 C 
ATOM     12  C   UNL     1       1.988   7.600  20.146  0.00  0.00    +0.000 C 
ATOM     13  N   UNL     1       2.568   7.371  18.833  0.00  0.00    +0.000 N 
ATOM     14  C   UNL     1       2.153   8.557  18.316  0.00  0.00    +0.000 C 
ATOM     15  O   UNL     1       2.245   9.087  17.228  0.00  0.00    +0.000 OA
ENDBRANCH   1  13
BRANCH   5  16
ATOM     16  C   UNL     1       5.695   4.506  16.117  0.00  0.00    +0.000 C 
ATOM     17  C   UNL     1       5.868   5.441  14.887  0.00  0.00    +0.000 C 
ATOM     18  O   UNL     1       6.413   4.348  14.103  0.00  0.00    +0.000 OA
ATOM     19  C   UNL     1       5.786   3.405  15.020  0.00  0.00    +0.000 C 
BRANCH  16  20
ATOM     20  C   UNL     1       6.922   4.516  17.054  0.00  0.00    +0.000 C 
BRANCH  20  21
ATOM     21  C   UNL     1       7.388   5.896  17.395  0.00  0.00    +0.000 A 
ATOM     22  N   UNL     1       7.447   6.919  16.563  0.00  0.00    +0.000 NA
ATOM     23  N   UNL     1       7.889   8.018  17.258  0.00  0.00    +0.000 NA
ATOM     24  C   UNL     1       8.095   7.648  18.499  0.00  0.00    +0.000 A 
ATOM     25  N   UNL     1       7.814   6.321  18.630  0.00  0.00    +0.000 N 
ATOM     26  C   UNL     1       7.938   5.565  19.846  0.00  0.00    +0.000 C 
ENDBRANCH  20  21
ENDBRANCH  16  20
ENDBRANCH   5  16
TORSDOF 4
ENDMDL
MODEL 2
REMARK VINA RESULT:      -8.7      0.705      1.258
REMARK  Name = 
REMARK  6 active torsions:
REMARK  status: ('A' for Active; 'I' for Inactive)
REMARK    1  A    between atoms: C_1  and  C_2
REMARK    2  A    between atoms: N_7  and  C_8
REMARK    3  A    between atoms: C_12  and  C_13
REMARK    4  A    between atoms: C_13  and  C_14
REMARK    5  A    between atoms: C_14  and  C_15
REMARK    6  A    between atoms: N_19  and  C_20
REMARK                            x       y       z     vdW  Elec       q    Type
REMARK                         _______ _______ _______ _____ _____    ______ ____
ROOT
ATOM      1  C   UNL     1       2.778   6.177  18.203  0.00  0.00    +0.000 A 
ATOM      2  C   UNL     1       1.963   5.065  18.403  0.00  0.00    +0.000 A 
ATOM      3  C   UNL     1       2.319   3.836  17.858  0.00  0.00    +0.000 A 
ATOM      4  C   UNL     1       3.477   3.724  17.088  0.00  0.00    +0.000 A 
ATOM      5  C   UNL     1       4.282   4.841  16.784  0.00  0.00    +0.000 A 
ATOM      6  C   UNL     1       3.899   6.060  17.372  0.00  0.00    +0.000 A 
ENDROOT
BRANCH   1  13
ATOM      7  C   UNL     1      -1.537  11.653  19.647  0.00  0.00    +0.000 C 
ATOM      8  C   UNL     1      -0.438  10.684  19.646  0.00  0.00    +0.000 C 
ATOM      9  C   UNL     1      -0.508  10.000  20.827  0.00  0.00    +0.000 C 
ATOM     10  C   UNL     1       0.403   9.618  19.940  0.00  0.00    +0.000 C 
ATOM     11  C   UNL     1       1.348   8.804  19.595  0.00  0.00    +0.000 C 
ATOM     12  C   UNL     1       1.984   7.581  20.191  0.00  0.00    +0.000 C 
ATOM     13  N   UNL     1       2.550   7.383  18.867  0.00  0.00    +0.000 N 
ATOM     14  C   UNL     1       2.113   8.572  18.375  0.00  0.00    +0.000 C 
ATOM     15  O   UNL     1       2.183   9.121  17.295  0.00  0.00    +0.000 OA
ENDBRANCH   1  13
BRANCH   5  16
ATOM     16  C   UNL     1       5.525   4.735  15.785  0.00  0.00    +0.000 C 
ATOM     17  C   UNL     1       5.171   4.589  14.279  0.00  0.00    +0.000 C 
ATOM     18  O   UNL     1       6.237   3.621  14.098  0.00  0.00    +0.000 OA
ATOM     19  C   UNL     1       6.220   3.364  15.532  0.00  0.00    +0.000 C 
BRANCH  16  20
ATOM     20  C   UNL     1       6.533   5.873  16.056  0.00  0.00    +0.000 C 
BRANCH  20  21
ATOM     21  C   UNL     1       7.152   5.797  17.416  0.00  0.00    +0.000 A 
ATOM     22  N   UNL     1       7.281   4.704  18.145  0.00  0.00    +0.000 NA
ATOM     23  N   UNL     1       7.930   5.036  19.310  0.00  0.00    +0.000 NA
ATOM     24  C   UNL     1       8.183   6.322  19.273  0.00  0.00    +0.000 A 
ATOM     25  N   UNL     1       7.697   6.847  18.114  0.00  0.00    +0.000 N 
ATOM     26  C   UNL     1       7.777   8.231  17.734  0.00  0.00    +0.000 C 
ENDBRANCH  20  21
ENDBRANCH  16  20
ENDBRANCH   5  16
TORSDOF 4
ENDMDL
MODEL 3
REMARK VINA RESULT:      -8.3      3.458      5.425
REMARK  Name = 
REMARK  6 active torsions:
REMARK  status: ('A' for Active; 'I' for Inactive)
REMARK    1  A    between atoms: C_1  and  C_2
REMARK    2  A    between atoms: N_7  and  C_8
REMARK    3  A    between atoms: C_12  and  C_13
REMARK    4  A    between atoms: C_13  and  C_14
REMARK    5  A    between atoms: C_14  and  C_15
REMARK    6  A    between atoms: N_19  and  C_20
REMARK                            x       y       z     vdW  Elec       q    Type
REMARK                         _______ _______ _______ _____ _____    ______ ____
ROOT
ATOM      1  C   UNL     1       1.160   9.706  19.296  0.00  0.00    +0.000 A 
ATOM      2  C   UNL     1       0.702   9.509  20.597  0.00  0.00    +0.000 A 
ATOM      3  C   UNL     1       1.042   8.348  21.284  0.00  0.00    +0.000 A 
ATOM      4  C   UNL     1       1.819   7.372  20.660  0.00  0.00    +0.000 A 
ATOM      5  C   UNL     1       2.227   7.488  19.316  0.00  0.00    +0.000 A 
ATOM      6  C   UNL     1       1.881   8.685  18.664  0.00  0.00    +0.000 A 
ENDROOT
BRANCH   1  13
ATOM      7  C   UNL     1      -0.819  16.544  19.460  0.00  0.00    +0.000 C 
ATOM      8  C   UNL     1      -0.272  15.242  19.071  0.00  0.00    +0.000 C 
ATOM      9  C   UNL     1       1.086  15.382  19.007  0.00  0.00    +0.000 C 
ATOM     10  C   UNL     1       0.577  14.171  18.817  0.00  0.00    +0.000 C 
ATOM     11  C   UNL     1       0.758  12.907  18.605  0.00  0.00    +0.000 C 
ATOM     12  C   UNL     1       1.947  12.000  18.474  0.00  0.00    +0.000 C 
ATOM     13  N   UNL     1       0.985  10.922  18.632  0.00  0.00    +0.000 N 
ATOM     14  C   UNL     1      -0.105  11.732  18.585  0.00  0.00    +0.000 C 
ATOM     15  O   UNL     1      -1.302  11.551  18.674  0.00  0.00    +0.000 OA
ENDBRANCH   1  13
BRANCH   5  16
ATOM     16  C   UNL     1       2.993   6.304  18.564  0.00  0.00    +0.000 C 
ATOM     17  C   UNL     1       4.152   5.638  19.357  0.00  0.00    +0.000 C 
ATOM     18  O   UNL     1       4.965   5.567  18.157  0.00  0.00    +0.000 OA
ATOM     19  C   UNL     1       4.146   6.618  17.565  0.00  0.00    +0.000 C 
BRANCH  16  20
ATOM     20  C   UNL     1       1.983   5.278  18.005  0.00  0.00    +0.000 C 
BRANCH  20  21
ATOM     21  C   UNL     1       1.768   4.111  18.916  0.00  0.00    +0.000 A 
ATOM     22  N   UNL     1       1.003   4.103  19.991  0.00  0.00    +0.000 NA
ATOM     23  N   UNL     1       1.036   2.842  20.536  0.00  0.00    +0.000 NA
ATOM     24  C   UNL     1       1.820   2.105  19.788  0.00  0.00    +0.000 A 
ATOM     25  N   UNL     1       2.319   2.862  18.770  0.00  0.00    +0.000 N 
ATOM     26  C   UNL     1       3.227   2.394  17.759  0.00  0.00    +0.000 C 
ENDBRANCH  20  21
ENDBRANCH  16  20
ENDBRANCH   5  16
TORSDOF 4
ENDMDL
MODEL 4
REMARK VINA RESULT:      -8.2      3.590      5.272
REMARK  Name = 
REMARK  6 active torsions:
REMARK  status: ('A' for Active; 'I' for Inactive)
REMARK    1  A    between atoms: C_1  and  C_2
REMARK    2  A    between atoms: N_7  and  C_8
REMARK    3  A    between atoms: C_12  and  C_13
REMARK    4  A    between atoms: C_13  and  C_14
REMARK    5  A    between atoms: C_14  and  C_15
REMARK    6  A    between atoms: N_19  and  C_20
REMARK                            x       y       z     vdW  Elec       q    Type
REMARK                         _______ _______ _______ _____ _____    ______ ____
ROOT
ATOM      1  C   UNL     1       1.330   9.226  19.867  0.00  0.00    +0.000 A 
ATOM      2  C   UNL     1       1.103   9.934  18.689  0.00  0.00    +0.000 A 
ATOM      3  C   UNL     1       1.397   9.351  17.461  0.00  0.00    +0.000 A 
ATOM      4  C   UNL     1       1.945   8.069  17.412  0.00  0.00    +0.000 A 
ATOM      5  C   UNL     1       2.276   7.353  18.580  0.00  0.00    +0.000 A 
ATOM      6  C   UNL     1       1.943   7.968  19.800  0.00  0.00    +0.000 A 
ENDROOT
BRANCH   1  13
ATOM      7  C   UNL     1      -2.554  13.859  23.627  0.00  0.00    +0.000 C 
ATOM      8  C   UNL     1      -1.722  12.729  23.207  0.00  0.00    +0.000 C 
ATOM      9  C   UNL     1      -2.477  11.600  23.356  0.00  0.00    +0.000 C 
ATOM     10  C   UNL     1      -1.273  11.475  22.811  0.00  0.00    +0.000 C 
ATOM     11  C   UNL     1      -0.371  10.727  22.263  0.00  0.00    +0.000 C 
ATOM     12  C   UNL     1      -0.271   9.283  21.865  0.00  0.00    +0.000 C 
ATOM     13  N   UNL     1       0.896   9.702  21.106  0.00  0.00    +0.000 N 
ATOM     14  C   UNL     1       0.903  10.969  21.595  0.00  0.00    +0.000 C 
ATOM     15  O   UNL     1       1.591  11.950  21.404  0.00  0.00    +0.000 OA
ENDBRANCH   1  13
BRANCH   5  16
ATOM     16  C   UNL     1       3.034   5.947  18.519  0.00  0.00    +0.000 C 
ATOM     17  C   UNL     1       3.979   5.637  19.714  0.00  0.00    +0.000 C 
ATOM     18  O   UNL     1       4.964   5.063  18.817  0.00  0.00    +0.000 OA
ATOM     19  C   UNL     1       4.360   5.799  17.715  0.00  0.00    +0.000 C 
BRANCH  16  20
ATOM     20  C   UNL     1       2.033   4.806  18.235  0.00  0.00    +0.000 C 
BRANCH  20  21
ATOM     21  C   UNL     1       1.819   3.908  19.412  0.00  0.00    +0.000 A 
ATOM     22  N   UNL     1       1.063   4.176  20.460  0.00  0.00    +0.000 NA
ATOM     23  N   UNL     1       1.094   3.092  21.303  0.00  0.00    +0.000 NA
ATOM     24  C   UNL     1       1.867   2.185  20.759  0.00  0.00    +0.000 A 
ATOM     25  N   UNL     1       2.362   2.658  19.581  0.00  0.00    +0.000 N 
ATOM     26  C   UNL     1       3.259   1.944  18.713  0.00  0.00    +0.000 C 
ENDBRANCH  20  21
ENDBRANCH  16  20
ENDBRANCH   5  16
TORSDOF 4
ENDMDL
MODEL 5
REMARK VINA RESULT:      -8.1      2.375      7.602
REMARK  Name = 
REMARK  6 active torsions:
REMARK  status: ('A' for Active; 'I' for Inactive)
REMARK    1  A    between atoms: C_1  and  C_2
REMARK    2  A    between atoms: N_7  and  C_8
REMARK    3  A    between atoms: C_12  and  C_13
REMARK    4  A    between atoms: C_13  and  C_14
REMARK    5  A    between atoms: C_14  and  C_15
REMARK    6  A    between atoms: N_19  and  C_20
REMARK                            x       y       z     vdW  Elec       q    Type
REMARK                         _______ _______ _______ _____ _____    ______ ____
ROOT
ATOM      1  C   UNL     1       5.683   5.303  16.654  0.00  0.00    +0.000 A 
ATOM      2  C   UNL     1       6.833   5.510  17.412  0.00  0.00    +0.000 A 
ATOM      3  C   UNL     1       6.777   5.412  18.799  0.00  0.00    +0.000 A 
ATOM      4  C   UNL     1       5.564   5.135  19.429  0.00  0.00    +0.000 A 
ATOM      5  C   UNL     1       4.359   5.010  18.708  0.00  0.00    +0.000 A 
ATOM      6  C   UNL     1       4.463   5.094  17.308  0.00  0.00    +0.000 A 
ENDROOT
BRANCH   1  13
ATOM      7  C   UNL     1       7.541   1.742  10.775  0.00  0.00    +0.000 C 
ATOM      8  C   UNL     1       6.961   2.697  11.722  0.00  0.00    +0.000 C 
ATOM      9  C   UNL     1       5.609   2.501  11.709  0.00  0.00    +0.000 C 
ATOM     10  C   UNL     1       6.102   3.376  12.578  0.00  0.00    +0.000 C 
ATOM     11  C   UNL     1       5.911   4.209  13.549  0.00  0.00    +0.000 C 
ATOM     12  C   UNL     1       4.733   4.655  14.366  0.00  0.00    +0.000 C 
ATOM     13  N   UNL     1       5.727   5.225  15.260  0.00  0.00    +0.000 N 
ATOM     14  C   UNL     1       6.780   4.968  14.442  0.00  0.00    +0.000 C 
ATOM     15  O   UNL     1       7.979   5.142  14.519  0.00  0.00    +0.000 OA
ENDBRANCH   1  13
BRANCH   5  16
ATOM     16  C   UNL     1       2.951   4.836  19.444  0.00  0.00    +0.000 C 
ATOM     17  C   UNL     1       2.735   3.481  20.176  0.00  0.00    +0.000 C 
ATOM     18  O   UNL     1       1.359   3.426  19.718  0.00  0.00    +0.000 OA
ATOM     19  C   UNL     1       1.698   4.360  18.651  0.00  0.00    +0.000 C 
BRANCH  16  20
ATOM     20  C   UNL     1       2.659   6.056  20.345  0.00  0.00    +0.000 C 
BRANCH  20  21
ATOM     21  C   UNL     1       2.236   7.265  19.573  0.00  0.00    +0.000 A 
ATOM     22  N   UNL     1       2.424   7.463  18.282  0.00  0.00    +0.000 NA
ATOM     23  N   UNL     1       1.864   8.670  17.942  0.00  0.00    +0.000 NA
ATOM     24  C   UNL     1       1.347   9.189  19.029  0.00  0.00    +0.000 A 
ATOM     25  N   UNL     1       1.572   8.354  20.082  0.00  0.00    +0.000 N 
ATOM     26  C   UNL     1       1.161   8.602  21.437  0.00  0.00    +0.000 C 
ENDBRANCH  20  21
ENDBRANCH  16  20
ENDBRANCH   5  16
TORSDOF 4
ENDMDL
MODEL 6
REMARK VINA RESULT:      -8.1      2.692      4.227
REMARK  Name = 
REMARK  6 active torsions:
REMARK  status: ('A' for Active; 'I' for Inactive)
REMARK    1  A    between atoms: C_1  and  C_2
REMARK    2  A    between atoms: N_7  and  C_8
REMARK    3  A    between atoms: C_12  and  C_13
REMARK    4  A    between atoms: C_13  and  C_14
REMARK    5  A    between atoms: C_14  and  C_15
REMARK    6  A    between atoms: N_19  and  C_20
REMARK                            x       y       z     vdW  Elec       q    Type
REMARK                         _______ _______ _______ _____ _____    ______ ____
ROOT
ATOM      1  C   UNL     1       1.979   7.925  19.781  0.00  0.00    +0.000 A 
ATOM      2  C   UNL     1       2.148   8.157  18.417  0.00  0.00    +0.000 A 
ATOM      3  C   UNL     1       2.265   7.084  17.540  0.00  0.00    +0.000 A 
ATOM      4  C   UNL     1       2.240   5.778  18.030  0.00  0.00    +0.000 A 
ATOM      5  C   UNL     1       2.164   5.499  19.409  0.00  0.00    +0.000 A 
ATOM      6  C   UNL     1       2.025   6.610  20.260  0.00  0.00    +0.000 A 
ENDROOT
BRANCH   1  13
ATOM      7  C   UNL     1      -2.720  12.530  22.504  0.00  0.00    +0.000 C 
ATOM      8  C   UNL     1      -1.535  11.708  22.250  0.00  0.00    +0.000 C 
ATOM      9  C   UNL     1      -1.434  10.821  23.284  0.00  0.00    +0.000 C 
ATOM     10  C   UNL     1      -0.568  10.709  22.283  0.00  0.00    +0.000 C 
ATOM     11  C   UNL     1       0.419  10.083  21.730  0.00  0.00    +0.000 C 
ATOM     12  C   UNL     1       1.223   8.854  22.044  0.00  0.00    +0.000 C 
ATOM     13  N   UNL     1       1.690   8.961  20.671  0.00  0.00    +0.000 N 
ATOM     14  C   UNL     1       1.095  10.160  20.440  0.00  0.00    +0.000 C 
ATOM     15  O   UNL     1       1.016  10.897  19.479  0.00  0.00    +0.000 OA
ENDBRANCH   1  13
BRANCH   5  16
ATOM     16  C   UNL     1       2.281   4.008  19.974  0.00  0.00    +0.000 C 
ATOM     17  C   UNL     1       0.944   3.222  20.088  0.00  0.00    +0.000 C 
ATOM     18  O   UNL     1       1.358   2.657  21.358  0.00  0.00    +0.000 OA
ATOM     19  C   UNL     1       2.315   3.745  21.509  0.00  0.00    +0.000 C 
BRANCH  16  20
ATOM     20  C   UNL     1       3.372   3.227  19.211  0.00  0.00    +0.000 C 
BRANCH  20  21
ATOM     21  C   UNL     1       4.652   3.989  19.074  0.00  0.00    +0.000 A 
ATOM     22  N   UNL     1       5.345   4.519  20.064  0.00  0.00    +0.000 NA
ATOM     23  N   UNL     1       6.473   5.102  19.540  0.00  0.00    +0.000 NA
ATOM     24  C   UNL     1       6.448   4.921  18.242  0.00  0.00    +0.000 A 
ATOM     25  N   UNL     1       5.316   4.246  17.899  0.00  0.00    +0.000 N 
ATOM     26  C   UNL     1       4.942   3.882  16.560  0.00  0.00    +0.000 C 
ENDBRANCH  20  21
ENDBRANCH  16  20
ENDBRANCH   5  16
TORSDOF 4
ENDMDL
MODEL 7
REMARK VINA RESULT:      -8.1      1.705      2.950
REMARK  Name = 
REMARK  6 active torsions:
REMARK  status: ('A' for Active; 'I' for Inactive)
REMARK    1  A    between atoms: C_1  and  C_2
REMARK    2  A    between atoms: N_7  and  C_8
REMARK    3  A    between atoms: C_12  and  C_13
REMARK    4  A    between atoms: C_13  and  C_14
REMARK    5  A    between atoms: C_14  and  C_15
REMARK    6  A    between atoms: N_19  and  C_20
REMARK                            x       y       z     vdW  Elec       q    Type
REMARK                         _______ _______ _______ _____ _____    ______ ____
ROOT
ATOM      1  C   UNL     1       2.736   6.554  18.272  0.00  0.00    +0.000 A 
ATOM      2  C   UNL     1       1.785   5.554  18.081  0.00  0.00    +0.000 A 
ATOM      3  C   UNL     1       2.175   4.307  17.605  0.00  0.00    +0.000 A 
ATOM      4  C   UNL     1       3.514   4.068  17.294  0.00  0.00    +0.000 A 
ATOM      5  C   UNL     1       4.494   5.077  17.385  0.00  0.00    +0.000 A 
ATOM      6  C   UNL     1       4.062   6.316  17.890  0.00  0.00    +0.000 A 
ENDROOT
BRANCH   1  13
ATOM      7  C   UNL     1      -1.857  11.892  19.324  0.00  0.00    +0.000 C 
ATOM      8  C   UNL     1      -0.730  10.961  19.417  0.00  0.00    +0.000 C 
ATOM      9  C   UNL     1      -0.864  10.287  20.598  0.00  0.00    +0.000 C 
ATOM     10  C   UNL     1       0.123   9.928  19.786  0.00  0.00    +0.000 C 
ATOM     11  C   UNL     1       1.118   9.144  19.522  0.00  0.00    +0.000 C 
ATOM     12  C   UNL     1       1.748   7.950  20.178  0.00  0.00    +0.000 C 
ATOM     13  N   UNL     1       2.419   7.759  18.903  0.00  0.00    +0.000 N 
ATOM     14  C   UNL     1       1.979   8.926  18.365  0.00  0.00    +0.000 C 
ATOM     15  O   UNL     1       2.112   9.468  17.287  0.00  0.00    +0.000 OA
ENDBRANCH   1  13
BRANCH   5  16
ATOM     16  C   UNL     1       5.995   4.839  16.892  0.00  0.00    +0.000 C 
ATOM     17  C   UNL     1       7.004   4.393  17.988  0.00  0.00    +0.000 C 
ATOM     18  O   UNL     1       8.029   5.255  17.430  0.00  0.00    +0.000 OA
ATOM     19  C   UNL     1       6.987   6.034  16.773  0.00  0.00    +0.000 C 
BRANCH  16  20
ATOM     20  C   UNL     1       6.017   3.921  15.650  0.00  0.00    +0.000 C 
BRANCH  20  21
ATOM     21  C   UNL     1       6.753   4.518  14.493  0.00  0.00    +0.000 A 
ATOM     22  N   UNL     1       7.710   5.423  14.570  0.00  0.00    +0.000 NA
ATOM     23  N   UNL     1       8.158   5.688  13.299  0.00  0.00    +0.000 NA
ATOM     24  C   UNL     1       7.468   4.945  12.470  0.00  0.00    +0.000 A 
ATOM     25  N   UNL     1       6.560   4.208  13.169  0.00  0.00    +0.000 N 
ATOM     26  C   UNL     1       5.619   3.289  12.590  0.00  0.00    +0.000 C 
ENDBRANCH  20  21
ENDBRANCH  16  20
ENDBRANCH   5  16
TORSDOF 4
ENDMDL
MODEL 8
REMARK VINA RESULT:      -8.1      3.299      5.230
REMARK  Name = 
REMARK  6 active torsions:
REMARK  status: ('A' for Active; 'I' for Inactive)
REMARK    1  A    between atoms: C_1  and  C_2
REMARK    2  A    between atoms: N_7  and  C_8
REMARK    3  A    between atoms: C_12  and  C_13
REMARK    4  A    between atoms: C_13  and  C_14
REMARK    5  A    between atoms: C_14  and  C_15
REMARK    6  A    between atoms: N_19  and  C_20
REMARK                            x       y       z     vdW  Elec       q    Type
REMARK                         _______ _______ _______ _____ _____    ______ ____
ROOT
ATOM      1  C   UNL     1       1.153   9.633  19.265  0.00  0.00    +0.000 A 
ATOM      2  C   UNL     1       0.710   9.396  20.564  0.00  0.00    +0.000 A 
ATOM      3  C   UNL     1       1.079   8.226  21.221  0.00  0.00    +0.000 A 
ATOM      4  C   UNL     1       1.869   7.280  20.568  0.00  0.00    +0.000 A 
ATOM      5  C   UNL     1       2.264   7.437  19.224  0.00  0.00    +0.000 A 
ATOM      6  C   UNL     1       1.889   8.642  18.603  0.00  0.00    +0.000 A 
ENDROOT
BRANCH   1  13
ATOM      7  C   UNL     1      -0.927  16.434  19.616  0.00  0.00    +0.000 C 
ATOM      8  C   UNL     1      -0.366  15.150  19.189  0.00  0.00    +0.000 C 
ATOM      9  C   UNL     1       0.988  15.312  19.108  0.00  0.00    +0.000 C 
ATOM     10  C   UNL     1       0.494  14.098  18.898  0.00  0.00    +0.000 C 
ATOM     11  C   UNL     1       0.692  12.842  18.654  0.00  0.00    +0.000 C 
ATOM     12  C   UNL     1       1.892  11.957  18.484  0.00  0.00    +0.000 C 
ATOM     13  N   UNL     1       0.949  10.861  18.632  0.00  0.00    +0.000 N 
ATOM     14  C   UNL     1      -0.153  11.654  18.620  0.00  0.00    +0.000 C 
ATOM     15  O   UNL     1      -1.346  11.453  18.724  0.00  0.00    +0.000 OA
ENDBRANCH   1  13
BRANCH   5  16
ATOM     16  C   UNL     1       3.046   6.287  18.437  0.00  0.00    +0.000 C 
ATOM     17  C   UNL     1       4.151   5.549  19.244  0.00  0.00    +0.000 C 
ATOM     18  O   UNL     1       5.023   5.536  18.084  0.00  0.00    +0.000 OA
ATOM     19  C   UNL     1       4.255   6.638  17.520  0.00  0.00    +0.000 C 
BRANCH  16  20
ATOM     20  C   UNL     1       2.049   5.319  17.764  0.00  0.00    +0.000 C 
BRANCH  20  21
ATOM     21  C   UNL     1       2.271   3.890  18.146  0.00  0.00    +0.000 A 
ATOM     22  N   UNL     1       2.995   3.014  17.474  0.00  0.00    +0.000 NA
ATOM     23  N   UNL     1       2.985   1.826  18.163  0.00  0.00    +0.000 NA
ATOM     24  C   UNL     1       2.255   1.994  19.239  0.00  0.00    +0.000 A 
ATOM     25  N   UNL     1       1.769   3.267  19.262  0.00  0.00    +0.000 N 
ATOM     26  C   UNL     1       0.916   3.808  20.285  0.00  0.00    +0.000 C 
ENDBRANCH  20  21
ENDBRANCH  16  20
ENDBRANCH   5  16
TORSDOF 4
ENDMDL
MODEL 9
REMARK VINA RESULT:      -8.1      2.223      6.381
REMARK  Name = 
REMARK  6 active torsions:
REMARK  status: ('A' for Active; 'I' for Inactive)
REMARK    1  A    between atoms: C_1  and  C_2
REMARK    2  A    between atoms: N_7  and  C_8
REMARK    3  A    between atoms: C_12  and  C_13
REMARK    4  A    between atoms: C_13  and  C_14
REMARK    5  A    between atoms: C_14  and  C_15
REMARK    6  A    between atoms: N_19  and  C_20
REMARK                            x       y       z     vdW  Elec       q    Type
REMARK                         _______ _______ _______ _____ _____    ______ ____
ROOT
ATOM      1  C   UNL     1       5.874   4.868  17.909  0.00  0.00    +0.000 A 
ATOM      2  C   UNL     1       5.619   3.983  16.864  0.00  0.00    +0.000 A 
ATOM      3  C   UNL     1       4.372   3.376  16.757  0.00  0.00    +0.000 A 
ATOM      4  C   UNL     1       3.388   3.632  17.712  0.00  0.00    +0.000 A 
ATOM      5  C   UNL     1       3.632   4.449  18.835  0.00  0.00    +0.000 A 
ATOM      6  C   UNL     1       4.897   5.060  18.894  0.00  0.00    +0.000 A 
ENDROOT
BRANCH   1  13
ATOM      7  C   UNL     1       9.050  11.240  17.995  0.00  0.00    +0.000 C 
ATOM      8  C   UNL     1       8.761   9.806  18.072  0.00  0.00    +0.000 C 
ATOM      9  C   UNL     1       8.920   9.436  19.378  0.00  0.00    +0.000 C 
ATOM     10  C   UNL     1       8.475   8.523  18.523  0.00  0.00    +0.000 C 
ATOM     11  C   UNL     1       8.042   7.324  18.299  0.00  0.00    +0.000 C 
ATOM     12  C   UNL     1       7.739   6.117  19.140  0.00  0.00    +0.000 C 
ATOM     13  N   UNL     1       7.046   5.625  17.961  0.00  0.00    +0.000 N 
ATOM     14  C   UNL     1       7.458   6.637  17.153  0.00  0.00    +0.000 C 
ATOM     15  O   UNL     1       7.260   6.932  15.993  0.00  0.00    +0.000 OA
ENDBRANCH   1  13
BRANCH   5  16
ATOM     16  C   UNL     1       2.550   4.624  19.998  0.00  0.00    +0.000 C 
ATOM     17  C   UNL     1       2.477   3.466  21.033  0.00  0.00    +0.000 C 
ATOM     18  O   UNL     1       1.028   3.547  21.057  0.00  0.00    +0.000 OA
ATOM     19  C   UNL     1       1.065   4.219  19.764  0.00  0.00    +0.000 C 
BRANCH  16  20
ATOM     20  C   UNL     1       2.691   6.012  20.662  0.00  0.00    +0.000 C 
BRANCH  20  21
ATOM     21  C   UNL     1       2.246   7.132  19.776  0.00  0.00    +0.000 A 
ATOM     22  N   UNL     1       2.430   7.205  18.472  0.00  0.00    +0.000 NA
ATOM     23  N   UNL     1       1.848   8.364  18.017  0.00  0.00    +0.000 NA
ATOM     24  C   UNL     1       1.323   8.978  19.049  0.00  0.00    +0.000 A 
ATOM     25  N   UNL     1       1.564   8.254  20.178  0.00  0.00    +0.000 N 
ATOM     26  C   UNL     1       1.150   8.627  21.503  0.00  0.00    +0.000 C 
ENDBRANCH  20  21
ENDBRANCH  16  20
ENDBRANCH   5  16
TORSDOF 4
ENDMDL
