MODEL 1
REMARK VINA RESULT:      -8.5      0.000      0.000
REMARK  Name = 
REMARK  4 active torsions:
REMARK  status: ('A' for Active; 'I' for Inactive)
REMARK    1  A    between atoms: C_2  and  C_4
REMARK    2  A    between atoms: C_10  and  C_12
REMARK    3  A    between atoms: N_20  and  C_21
REMARK    4  A    between atoms: C_21  and  C_22
REMARK                            x       y       z     vdW  Elec       q    Type
REMARK                         _______ _______ _______ _____ _____    ______ ____
ROOT
ATOM      1  C   UNL     1       3.881   6.884  17.468  0.00  0.00    +0.000 A 
ATOM      2  C   UNL     1       3.265   8.106  17.285  0.00  0.00    +0.000 A 
ATOM      3  C   UNL     1       2.384   8.395  18.325  0.00  0.00    +0.000 A 
ATOM      4  C   UNL     1       1.489   9.457  18.521  0.00  0.00    +0.000 A 
ATOM      5  C   UNL     1       0.782   9.531  19.715  0.00  0.00    +0.000 A 
ATOM      6  C   UNL     1       0.999   8.578  20.702  0.00  0.00    +0.000 A 
ATOM      7  C   UNL     1       1.897   7.511  20.513  0.00  0.00    +0.000 A 
ATOM      8  C   UNL     1       2.571   7.410  19.284  0.00  0.00    +0.000 A 
ATOM      9  N   UNL     1       3.473   6.477  18.751  0.00  0.00    +0.000 N 
ENDROOT
BRANCH   1  16
ATOM     10  C   UNL     1       7.175   5.289  16.398  0.00  0.00    +0.000 C 
ATOM     11  C   UNL     1       7.555   4.443  17.625  0.00  0.00    +0.000 C 
ATOM     12  C   UNL     1       8.197   5.322  18.706  0.00  0.00    +0.000 C 
ATOM     13  C   UNL     1       7.287   6.492  19.050  0.00  0.00    +0.000 C 
ATOM     14  C   UNL     1       6.843   7.267  17.795  0.00  0.00    +0.000 C 
ATOM     15  N   UNL     1       6.238   6.370  16.803  0.00  0.00    +0.000 N 
ATOM     16  C   UNL     1       4.847   6.232  16.576  0.00  0.00    +0.000 C 
ATOM     17  O   UNL     1       4.458   5.577  15.611  0.00  0.00    +0.000 OA
BRANCH  10  19
ATOM     18  N   UNL     1       6.222   3.246  15.406  0.00  0.00    +0.000 N 
ATOM     19  C   UNL     1       6.892   4.416  15.157  0.00  0.00    +0.000 C 
ATOM     20  O   UNL     1       7.086   4.778  14.000  0.00  0.00    +0.000 OA
ATOM     21  H   UNL     1       6.151   2.633  14.608  0.00  0.00    +0.000 HD
ATOM     22  H   UNL     1       6.393   2.801  16.300  0.00  0.00    +0.000 HD
ENDBRANCH  10  19
ENDBRANCH   1  16
BRANCH   9  23
ATOM     23  C   UNL     1       3.933   5.286  19.480  0.00  0.00    +0.000 C 
BRANCH  23  24
ATOM     24  C   UNL     1       2.957   4.140  19.385  0.00  0.00    +0.000 A 
ATOM     25  C   UNL     1       2.825   3.388  18.209  0.00  0.00    +0.000 A 
ATOM     26  C   UNL     1       1.862   2.377  18.114  0.00  0.00    +0.000 A 
ATOM     27  C   UNL     1       1.015   2.105  19.190  0.00  0.00    +0.000 A 
ATOM     28  C   UNL     1       1.166   2.813  20.377  0.00  0.00    +0.000 A 
ATOM     29  C   UNL     1       2.140   3.802  20.470  0.00  0.00    +0.000 A 
ATOM     30  F   UNL     1       2.300   4.412  21.651  0.00  0.00    +0.000 F 
ENDBRANCH  23  24
ENDBRANCH   9  23
TORSDOF 4
ENDMDL
MODEL 2
REMARK VINA RESULT:      -8.5      0.994      1.332
REMARK  Name = 
REMARK  4 active torsions:
REMARK  status: ('A' for Active; 'I' for Inactive)
REMARK    1  A    between atoms: C_2  and  C_4
REMARK    2  A    between atoms: C_10  and  C_12
REMARK    3  A    between atoms: N_20  and  C_21
REMARK    4  A    between atoms: C_21  and  C_22
REMARK                            x       y       z     vdW  Elec       q    Type
REMARK                         _______ _______ _______ _____ _____    ______ ____
ROOT
ATOM      1  C   UNL     1       3.976   7.033  17.357  0.00  0.00    +0.000 A 
ATOM      2  C   UNL     1       3.376   8.272  17.254  0.00  0.00    +0.000 A 
ATOM      3  C   UNL     1       2.462   8.484  18.284  0.00  0.00    +0.000 A 
ATOM      4  C   UNL     1       1.569   9.537  18.535  0.00  0.00    +0.000 A 
ATOM      5  C   UNL     1       0.822   9.521  19.707  0.00  0.00    +0.000 A 
ATOM      6  C   UNL     1       0.997   8.488  20.619  0.00  0.00    +0.000 A 
ATOM      7  C   UNL     1       1.892   7.430  20.373  0.00  0.00    +0.000 A 
ATOM      8  C   UNL     1       2.608   7.423  19.164  0.00  0.00    +0.000 A 
ATOM      9  N   UNL     1       3.520   6.527  18.588  0.00  0.00    +0.000 N 
ENDROOT
BRANCH   1  16
ATOM     10  C   UNL     1       7.248   5.389  16.293  0.00  0.00    +0.000 C 
ATOM     11  C   UNL     1       7.491   4.363  17.414  0.00  0.00    +0.000 C 
ATOM     12  C   UNL     1       8.099   5.048  18.644  0.00  0.00    +0.000 C 
ATOM     13  C   UNL     1       7.232   6.217  19.087  0.00  0.00    +0.000 C 
ATOM     14  C   UNL     1       6.923   7.179  17.924  0.00  0.00    +0.000 C 
ATOM     15  N   UNL     1       6.344   6.463  16.781  0.00  0.00    +0.000 N 
ATOM     16  C   UNL     1       4.967   6.446  16.448  0.00  0.00    +0.000 C 
ATOM     17  O   UNL     1       4.614   5.952  15.379  0.00  0.00    +0.000 OA
BRANCH  10  19
ATOM     18  N   UNL     1       6.294   3.539  14.974  0.00  0.00    +0.000 N 
ATOM     19  C   UNL     1       7.008   4.709  14.928  0.00  0.00    +0.000 C 
ATOM     20  O   UNL     1       7.274   5.223  13.845  0.00  0.00    +0.000 OA
ATOM     21  H   UNL     1       6.250   3.047  14.095  0.00  0.00    +0.000 HD
ATOM     22  H   UNL     1       6.405   2.967  15.804  0.00  0.00    +0.000 HD
ENDBRANCH  10  19
ENDBRANCH   1  16
BRANCH   9  23
ATOM     23  C   UNL     1       3.945   5.276  19.233  0.00  0.00    +0.000 C 
BRANCH  23  24
ATOM     24  C   UNL     1       2.934   4.170  19.064  0.00  0.00    +0.000 A 
ATOM     25  C   UNL     1       1.850   4.030  19.943  0.00  0.00    +0.000 A 
ATOM     26  C   UNL     1       0.964   2.953  19.816  0.00  0.00    +0.000 A 
ATOM     27  C   UNL     1       1.151   2.000  18.814  0.00  0.00    +0.000 A 
ATOM     28  C   UNL     1       2.196   2.150  17.910  0.00  0.00    +0.000 A 
ATOM     29  C   UNL     1       3.059   3.235  18.030  0.00  0.00    +0.000 A 
ATOM     30  F   UNL     1       4.009   3.384  17.098  0.00  0.00    +0.000 F 
ENDBRANCH  23  24
ENDBRANCH   9  23
TORSDOF 4
ENDMDL
MODEL 3
REMARK VINA RESULT:      -7.8      2.415      5.100
REMARK  Name = 
REMARK  4 active torsions:
REMARK  status: ('A' for Active; 'I' for Inactive)
REMARK    1  A    between atoms: C_2  and  C_4
REMARK    2  A    between atoms: C_10  and  C_12
REMARK    3  A    between atoms: N_20  and  C_21
REMARK    4  A    between atoms: C_21  and  C_22
REMARK                            x       y       z     vdW  Elec       q    Type
REMARK                         _______ _______ _______ _____ _____    ______ ____
ROOT
ATOM      1  C   UNL     1       2.678   6.310  19.837  0.00  0.00    +0.000 A 
ATOM      2  C   UNL     1       2.037   7.159  20.717  0.00  0.00    +0.000 A 
ATOM      3  C   UNL     1       1.609   8.324  20.083  0.00  0.00    +0.000 A 
ATOM      4  C   UNL     1       1.005   9.488  20.581  0.00  0.00    +0.000 A 
ATOM      5  C   UNL     1       0.604  10.474  19.687  0.00  0.00    +0.000 A 
ATOM      6  C   UNL     1       0.776  10.275  18.323  0.00  0.00    +0.000 A 
ATOM      7  C   UNL     1       1.379   9.108  17.817  0.00  0.00    +0.000 A 
ATOM      8  C   UNL     1       1.830   8.137  18.726  0.00  0.00    +0.000 A 
ATOM      9  N   UNL     1       2.500   6.914  18.579  0.00  0.00    +0.000 N 
ENDROOT
BRANCH   1  16
ATOM     10  C   UNL     1       2.973   2.512  20.016  0.00  0.00    +0.000 C 
ATOM     11  C   UNL     1       2.396   2.065  18.662  0.00  0.00    +0.000 C 
ATOM     12  C   UNL     1       0.863   2.065  18.705  0.00  0.00    +0.000 C 
ATOM     13  C   UNL     1       0.342   3.422  19.153  0.00  0.00    +0.000 C 
ATOM     14  C   UNL     1       1.006   3.892  20.461  0.00  0.00    +0.000 C 
ATOM     15  N   UNL     1       2.469   3.870  20.353  0.00  0.00    +0.000 N 
ATOM     16  C   UNL     1       3.284   5.008  20.139  0.00  0.00    +0.000 C 
ATOM     17  O   UNL     1       4.505   4.898  20.230  0.00  0.00    +0.000 OA
BRANCH  10  19
ATOM     18  N   UNL     1       5.242   2.466  19.059  0.00  0.00    +0.000 N 
ATOM     19  C   UNL     1       4.471   2.165  20.151  0.00  0.00    +0.000 C 
ATOM     20  O   UNL     1       5.003   1.799  21.196  0.00  0.00    +0.000 OA
ATOM     21  H   UNL     1       6.190   2.124  19.115  0.00  0.00    +0.000 HD
ATOM     22  H   UNL     1       4.795   2.403  18.151  0.00  0.00    +0.000 HD
ENDBRANCH  10  19
ENDBRANCH   1  16
BRANCH   9  23
ATOM     23  C   UNL     1       2.898   6.359  17.277  0.00  0.00    +0.000 C 
BRANCH  23  24
ATOM     24  C   UNL     1       4.390   6.177  17.161  0.00  0.00    +0.000 A 
ATOM     25  C   UNL     1       5.282   7.195  17.528  0.00  0.00    +0.000 A 
ATOM     26  C   UNL     1       6.660   7.036  17.343  0.00  0.00    +0.000 A 
ATOM     27  C   UNL     1       7.167   5.860  16.786  0.00  0.00    +0.000 A 
ATOM     28  C   UNL     1       6.298   4.826  16.459  0.00  0.00    +0.000 A 
ATOM     29  C   UNL     1       4.930   4.984  16.666  0.00  0.00    +0.000 A 
ATOM     30  F   UNL     1       4.134   3.940  16.405  0.00  0.00    +0.000 F 
ENDBRANCH  23  24
ENDBRANCH   9  23
TORSDOF 4
ENDMDL
MODEL 4
REMARK VINA RESULT:      -7.2      3.004      5.317
REMARK  Name = 
REMARK  4 active torsions:
REMARK  status: ('A' for Active; 'I' for Inactive)
REMARK    1  A    between atoms: C_2  and  C_4
REMARK    2  A    between atoms: C_10  and  C_12
REMARK    3  A    between atoms: N_20  and  C_21
REMARK    4  A    between atoms: C_21  and  C_22
REMARK                            x       y       z     vdW  Elec       q    Type
REMARK                         _______ _______ _______ _____ _____    ______ ____
ROOT
ATOM      1  C   UNL     1       2.337   6.133  19.981  0.00  0.00    +0.000 A 
ATOM      2  C   UNL     1       1.531   7.093  20.562  0.00  0.00    +0.000 A 
ATOM      3  C   UNL     1       1.544   8.280  19.832  0.00  0.00    +0.000 A 
ATOM      4  C   UNL     1       0.962   9.532  20.079  0.00  0.00    +0.000 A 
ATOM      5  C   UNL     1       1.074  10.528  19.117  0.00  0.00    +0.000 A 
ATOM      6  C   UNL     1       1.725  10.258  17.920  0.00  0.00    +0.000 A 
ATOM      7  C   UNL     1       2.310   9.003  17.666  0.00  0.00    +0.000 A 
ATOM      8  C   UNL     1       2.240   8.014  18.661  0.00  0.00    +0.000 A 
ATOM      9  N   UNL     1       2.739   6.708  18.762  0.00  0.00    +0.000 N 
ENDROOT
BRANCH   1  16
ATOM     10  C   UNL     1       2.778   2.349  19.817  0.00  0.00    +0.000 C 
ATOM     11  C   UNL     1       3.565   2.157  18.509  0.00  0.00    +0.000 C 
ATOM     12  C   UNL     1       2.620   2.217  17.302  0.00  0.00    +0.000 C 
ATOM     13  C   UNL     1       1.809   3.503  17.323  0.00  0.00    +0.000 C 
ATOM     14  C   UNL     1       1.107   3.721  18.677  0.00  0.00    +0.000 C 
ATOM     15  N   UNL     1       2.064   3.653  19.788  0.00  0.00    +0.000 N 
ATOM     16  C   UNL     1       2.596   4.774  20.471  0.00  0.00    +0.000 C 
ATOM     17  O   UNL     1       3.259   4.598  21.490  0.00  0.00    +0.000 OA
BRANCH  10  19
ATOM     18  N   UNL     1       4.952   1.853  20.864  0.00  0.00    +0.000 N 
ATOM     19  C   UNL     1       3.596   1.919  21.054  0.00  0.00    +0.000 C 
ATOM     20  O   UNL     1       3.128   1.797  22.182  0.00  0.00    +0.000 OA
ATOM     21  H   UNL     1       5.459   1.456  21.640  0.00  0.00    +0.000 HD
ATOM     22  H   UNL     1       5.273   1.592  19.938  0.00  0.00    +0.000 HD
ENDBRANCH  10  19
ENDBRANCH   1  16
BRANCH   9  23
ATOM     23  C   UNL     1       3.525   6.057  17.704  0.00  0.00    +0.000 C 
BRANCH  23  24
ATOM     24  C   UNL     1       5.008   6.109  17.974  0.00  0.00    +0.000 A 
ATOM     25  C   UNL     1       5.576   5.439  19.068  0.00  0.00    +0.000 A 
ATOM     26  C   UNL     1       6.942   5.559  19.346  0.00  0.00    +0.000 A 
ATOM     27  C   UNL     1       7.760   6.352  18.539  0.00  0.00    +0.000 A 
ATOM     28  C   UNL     1       7.219   6.985  17.427  0.00  0.00    +0.000 A 
ATOM     29  C   UNL     1       5.863   6.843  17.145  0.00  0.00    +0.000 A 
ATOM     30  F   UNL     1       5.395   7.410  16.026  0.00  0.00    +0.000 F 
ENDBRANCH  23  24
ENDBRANCH   9  23
TORSDOF 4
ENDMDL
MODEL 5
REMARK VINA RESULT:      -7.1      2.808      5.228
REMARK  Name = 
REMARK  4 active torsions:
REMARK  status: ('A' for Active; 'I' for Inactive)
REMARK    1  A    between atoms: C_2  and  C_4
REMARK    2  A    between atoms: C_10  and  C_12
REMARK    3  A    between atoms: N_20  and  C_21
REMARK    4  A    between atoms: C_21  and  C_22
REMARK                            x       y       z     vdW  Elec       q    Type
REMARK                         _______ _______ _______ _____ _____    ______ ____
ROOT
ATOM      1  C   UNL     1       2.361   6.137  19.954  0.00  0.00    +0.000 A 
ATOM      2  C   UNL     1       1.521   7.090  20.494  0.00  0.00    +0.000 A 
ATOM      3  C   UNL     1       1.565   8.280  19.769  0.00  0.00    +0.000 A 
ATOM      4  C   UNL     1       0.964   9.528  19.989  0.00  0.00    +0.000 A 
ATOM      5  C   UNL     1       1.120  10.528  19.037  0.00  0.00    +0.000 A 
ATOM      6  C   UNL     1       1.835  10.264  17.875  0.00  0.00    +0.000 A 
ATOM      7  C   UNL     1       2.438   9.014  17.648  0.00  0.00    +0.000 A 
ATOM      8  C   UNL     1       2.322   8.022  18.636  0.00  0.00    +0.000 A 
ATOM      9  N   UNL     1       2.823   6.718  18.758  0.00  0.00    +0.000 N 
ENDROOT
BRANCH   1  16
ATOM     10  C   UNL     1       2.774   2.349  19.811  0.00  0.00    +0.000 C 
ATOM     11  C   UNL     1       3.579   2.146  18.515  0.00  0.00    +0.000 C 
ATOM     12  C   UNL     1       2.653   2.208  17.294  0.00  0.00    +0.000 C 
ATOM     13  C   UNL     1       1.851   3.501  17.299  0.00  0.00    +0.000 C 
ATOM     14  C   UNL     1       1.132   3.729  18.642  0.00  0.00    +0.000 C 
ATOM     15  N   UNL     1       2.072   3.659  19.766  0.00  0.00    +0.000 N 
ATOM     16  C   UNL     1       2.602   4.778  20.452  0.00  0.00    +0.000 C 
ATOM     17  O   UNL     1       3.249   4.600  21.482  0.00  0.00    +0.000 OA
BRANCH  10  19
ATOM     18  N   UNL     1       4.926   1.810  20.883  0.00  0.00    +0.000 N 
ATOM     19  C   UNL     1       3.571   1.917  21.061  0.00  0.00    +0.000 C 
ATOM     20  O   UNL     1       3.091   1.827  22.188  0.00  0.00    +0.000 OA
ATOM     21  H   UNL     1       5.416   1.413  21.670  0.00  0.00    +0.000 HD
ATOM     22  H   UNL     1       5.246   1.526  19.965  0.00  0.00    +0.000 HD
ENDBRANCH  10  19
ENDBRANCH   1  16
BRANCH   9  23
ATOM     23  C   UNL     1       3.667   6.074  17.741  0.00  0.00    +0.000 C 
BRANCH  23  24
ATOM     24  C   UNL     1       5.133   6.364  17.942  0.00  0.00    +0.000 A 
ATOM     25  C   UNL     1       5.764   7.431  17.286  0.00  0.00    +0.000 A 
ATOM     26  C   UNL     1       7.141   7.640  17.426  0.00  0.00    +0.000 A 
ATOM     27  C   UNL     1       7.908   6.784  18.218  0.00  0.00    +0.000 A 
ATOM     28  C   UNL     1       7.288   5.750  18.909  0.00  0.00    +0.000 A 
ATOM     29  C   UNL     1       5.914   5.562  18.782  0.00  0.00    +0.000 A 
ATOM     30  F   UNL     1       5.344   4.600  19.517  0.00  0.00    +0.000 F 
ENDBRANCH  23  24
ENDBRANCH   9  23
TORSDOF 4
ENDMDL
MODEL 6
REMARK VINA RESULT:      -7.0      8.949      9.875
REMARK  Name = 
REMARK  4 active torsions:
REMARK  status: ('A' for Active; 'I' for Inactive)
REMARK    1  A    between atoms: C_2  and  C_4
REMARK    2  A    between atoms: C_10  and  C_12
REMARK    3  A    between atoms: N_20  and  C_21
REMARK    4  A    between atoms: C_21  and  C_22
REMARK                            x       y       z     vdW  Elec       q    Type
REMARK                         _______ _______ _______ _____ _____    ______ ____
ROOT
ATOM      1  C   UNL     1       7.697  14.143  18.569  0.00  0.00    +0.000 A 
ATOM      2  C   UNL     1       6.739  14.375  17.602  0.00  0.00    +0.000 A 
ATOM      3  C   UNL     1       5.610  14.989  18.140  0.00  0.00    +0.000 A 
ATOM      4  C   UNL     1       4.373  15.328  17.570  0.00  0.00    +0.000 A 
ATOM      5  C   UNL     1       3.445  16.021  18.338  0.00  0.00    +0.000 A 
ATOM      6  C   UNL     1       3.770  16.394  19.636  0.00  0.00    +0.000 A 
ATOM      7  C   UNL     1       5.009  16.059  20.212  0.00  0.00    +0.000 A 
ATOM      8  C   UNL     1       5.925  15.313  19.451  0.00  0.00    +0.000 A 
ATOM      9  N   UNL     1       7.193  14.779  19.718  0.00  0.00    +0.000 N 
ENDROOT
BRANCH   1  16
ATOM     10  C   UNL     1      11.496  13.814  18.534  0.00  0.00    +0.000 C 
ATOM     11  C   UNL     1      11.913  14.577  19.803  0.00  0.00    +0.000 C 
ATOM     12  C   UNL     1      11.924  16.088  19.540  0.00  0.00    +0.000 C 
ATOM     13  C   UNL     1      10.582  16.543  18.988  0.00  0.00    +0.000 C 
ATOM     14  C   UNL     1      10.141  15.701  17.776  0.00  0.00    +0.000 C 
ATOM     15  N   UNL     1      10.151  14.268  18.093  0.00  0.00    +0.000 N 
ATOM     16  C   UNL     1       9.002  13.495  18.391  0.00  0.00    +0.000 C 
ATOM     17  O   UNL     1       9.106  12.274  18.479  0.00  0.00    +0.000 OA
BRANCH  10  19
ATOM     18  N   UNL     1      11.946  11.664  17.420  0.00  0.00    +0.000 N 
ATOM     19  C   UNL     1      11.837  12.311  18.623  0.00  0.00    +0.000 C 
ATOM     20  O   UNL     1      12.156  11.737  19.660  0.00  0.00    +0.000 OA
ATOM     21  H   UNL     1      12.049  10.663  17.497  0.00  0.00    +0.000 HD
ATOM     22  H   UNL     1      11.359  11.997  16.665  0.00  0.00    +0.000 HD
ENDBRANCH  10  19
ENDBRANCH   1  16
BRANCH   9  23
ATOM     23  C   UNL     1       7.880  14.927  21.009  0.00  0.00    +0.000 C 
BRANCH  23  24
ATOM     24  C   UNL     1       7.603  13.776  21.943  0.00  0.00    +0.000 A 
ATOM     25  C   UNL     1       6.364  13.636  22.584  0.00  0.00    +0.000 A 
ATOM     26  C   UNL     1       6.150  12.603  23.505  0.00  0.00    +0.000 A 
ATOM     27  C   UNL     1       7.172  11.700  23.802  0.00  0.00    +0.000 A 
ATOM     28  C   UNL     1       8.390  11.800  23.140  0.00  0.00    +0.000 A 
ATOM     29  C   UNL     1       8.587  12.817  22.210  0.00  0.00    +0.000 A 
ATOM     30  F   UNL     1       9.748  12.838  21.544  0.00  0.00    +0.000 F 
ENDBRANCH  23  24
ENDBRANCH   9  23
TORSDOF 4
ENDMDL
MODEL 7
REMARK VINA RESULT:      -6.9      2.472      5.084
REMARK  Name = 
REMARK  4 active torsions:
REMARK  status: ('A' for Active; 'I' for Inactive)
REMARK    1  A    between atoms: C_2  and  C_4
REMARK    2  A    between atoms: C_10  and  C_12
REMARK    3  A    between atoms: N_20  and  C_21
REMARK    4  A    between atoms: C_21  and  C_22
REMARK                            x       y       z     vdW  Elec       q    Type
REMARK                         _______ _______ _______ _____ _____    ______ ____
ROOT
ATOM      1  C   UNL     1       2.709   6.211  19.825  0.00  0.00    +0.000 A 
ATOM      2  C   UNL     1       2.099   7.107  20.679  0.00  0.00    +0.000 A 
ATOM      3  C   UNL     1       1.679   8.252  20.004  0.00  0.00    +0.000 A 
ATOM      4  C   UNL     1       1.104   9.446  20.462  0.00  0.00    +0.000 A 
ATOM      5  C   UNL     1       0.703  10.400  19.535  0.00  0.00    +0.000 A 
ATOM      6  C   UNL     1       0.847  10.141  18.177  0.00  0.00    +0.000 A 
ATOM      7  C   UNL     1       1.422   8.944  17.711  0.00  0.00    +0.000 A 
ATOM      8  C   UNL     1       1.873   8.004  18.653  0.00  0.00    +0.000 A 
ATOM      9  N   UNL     1       2.519   6.764  18.545  0.00  0.00    +0.000 N 
ENDROOT
BRANCH   1  16
ATOM     10  C   UNL     1       2.970   2.417  20.105  0.00  0.00    +0.000 C 
ATOM     11  C   UNL     1       2.415   1.939  18.751  0.00  0.00    +0.000 C 
ATOM     12  C   UNL     1       0.882   1.952  18.766  0.00  0.00    +0.000 C 
ATOM     13  C   UNL     1       0.364   3.325  19.168  0.00  0.00    +0.000 C 
ATOM     14  C   UNL     1       1.006   3.823  20.477  0.00  0.00    +0.000 C 
ATOM     15  N   UNL     1       2.471   3.787  20.398  0.00  0.00    +0.000 N 
ATOM     16  C   UNL     1       3.300   4.913  20.171  0.00  0.00    +0.000 C 
ATOM     17  O   UNL     1       4.518   4.795  20.288  0.00  0.00    +0.000 OA
BRANCH  10  19
ATOM     18  N   UNL     1       5.256   2.325  19.191  0.00  0.00    +0.000 N 
ATOM     19  C   UNL     1       4.462   2.061  20.277  0.00  0.00    +0.000 C 
ATOM     20  O   UNL     1       4.972   1.722  21.342  0.00  0.00    +0.000 OA
ATOM     21  H   UNL     1       6.199   1.977  19.274  0.00  0.00    +0.000 HD
ATOM     22  H   UNL     1       4.825   2.239  18.278  0.00  0.00    +0.000 HD
ENDBRANCH  10  19
ENDBRANCH   1  16
BRANCH   9  23
ATOM     23  C   UNL     1       2.884   6.149  17.262  0.00  0.00    +0.000 C 
BRANCH  23  24
ATOM     24  C   UNL     1       4.373   5.956  17.118  0.00  0.00    +0.000 A 
ATOM     25  C   UNL     1       4.918   4.720  16.742  0.00  0.00    +0.000 A 
ATOM     26  C   UNL     1       6.305   4.539  16.687  0.00  0.00    +0.000 A 
ATOM     27  C   UNL     1       7.167   5.588  17.010  0.00  0.00    +0.000 A 
ATOM     28  C   UNL     1       6.640   6.831  17.342  0.00  0.00    +0.000 A 
ATOM     29  C   UNL     1       5.260   7.009  17.373  0.00  0.00    +0.000 A 
ATOM     30  F   UNL     1       4.794   8.238  17.627  0.00  0.00    +0.000 F 
ENDBRANCH  23  24
ENDBRANCH   9  23
TORSDOF 4
ENDMDL
MODEL 8
REMARK VINA RESULT:      -6.9      8.273     12.216
REMARK  Name = 
REMARK  4 active torsions:
REMARK  status: ('A' for Active; 'I' for Inactive)
REMARK    1  A    between atoms: C_2  and  C_4
REMARK    2  A    between atoms: C_10  and  C_12
REMARK    3  A    between atoms: N_20  and  C_21
REMARK    4  A    between atoms: C_21  and  C_22
REMARK                            x       y       z     vdW  Elec       q    Type
REMARK                         _______ _______ _______ _____ _____    ______ ____
ROOT
ATOM      1  C   UNL     1      -4.205  12.506  19.981  0.00  0.00    +0.000 A 
ATOM      2  C   UNL     1      -5.020  11.953  19.014  0.00  0.00    +0.000 A 
ATOM      3  C   UNL     1      -4.290  11.568  17.891  0.00  0.00    +0.000 A 
ATOM      4  C   UNL     1      -4.691  11.054  16.649  0.00  0.00    +0.000 A 
ATOM      5  C   UNL     1      -3.720  10.674  15.731  0.00  0.00    +0.000 A 
ATOM      6  C   UNL     1      -2.377  10.778  16.070  0.00  0.00    +0.000 A 
ATOM      7  C   UNL     1      -1.967  11.291  17.314  0.00  0.00    +0.000 A 
ATOM      8  C   UNL     1      -2.951  11.722  18.221  0.00  0.00    +0.000 A 
ATOM      9  N   UNL     1      -2.901  12.312  19.491  0.00  0.00    +0.000 N 
ENDROOT
BRANCH   1  16
ATOM     10  C   UNL     1      -5.943  14.844  22.442  0.00  0.00    +0.000 C 
ATOM     11  C   UNL     1      -7.318  15.063  21.787  0.00  0.00    +0.000 C 
ATOM     12  C   UNL     1      -7.221  16.115  20.675  0.00  0.00    +0.000 C 
ATOM     13  C   UNL     1      -6.140  15.735  19.675  0.00  0.00    +0.000 C 
ATOM     14  C   UNL     1      -4.797  15.428  20.364  0.00  0.00    +0.000 C 
ATOM     15  N   UNL     1      -4.959  14.415  21.414  0.00  0.00    +0.000 N 
ATOM     16  C   UNL     1      -4.612  13.048  21.283  0.00  0.00    +0.000 C 
ATOM     17  O   UNL     1      -4.634  12.325  22.277  0.00  0.00    +0.000 OA
BRANCH  10  19
ATOM     18  N   UNL     1      -4.922  14.115  24.562  0.00  0.00    +0.000 N 
ATOM     19  C   UNL     1      -6.056  14.103  23.792  0.00  0.00    +0.000 C 
ATOM     20  O   UNL     1      -7.106  13.667  24.254  0.00  0.00    +0.000 OA
ATOM     21  H   UNL     1      -4.972  13.528  25.381  0.00  0.00    +0.000 HD
ATOM     22  H   UNL     1      -4.035  14.126  24.071  0.00  0.00    +0.000 HD
ENDBRANCH  10  19
ENDBRANCH   1  16
BRANCH   9  23
ATOM     23  C   UNL     1      -1.646  12.624  20.191  0.00  0.00    +0.000 C 
BRANCH  23  24
ATOM     24  C   UNL     1      -1.141  11.463  21.011  0.00  0.00    +0.000 A 
ATOM     25  C   UNL     1      -0.564  10.337  20.407  0.00  0.00    +0.000 A 
ATOM     26  C   UNL     1      -0.169   9.238  21.179  0.00  0.00    +0.000 A 
ATOM     27  C   UNL     1      -0.349   9.246  22.563  0.00  0.00    +0.000 A 
ATOM     28  C   UNL     1      -0.878  10.373  23.179  0.00  0.00    +0.000 A 
ATOM     29  C   UNL     1      -1.249  11.471  22.407  0.00  0.00    +0.000 A 
ATOM     30  F   UNL     1      -1.689  12.563  23.044  0.00  0.00    +0.000 F 
ENDBRANCH  23  24
ENDBRANCH   9  23
TORSDOF 4
ENDMDL
MODEL 9
REMARK VINA RESULT:      -6.8      5.478      8.636
REMARK  Name = 
REMARK  4 active torsions:
REMARK  status: ('A' for Active; 'I' for Inactive)
REMARK    1  A    between atoms: C_2  and  C_4
REMARK    2  A    between atoms: C_10  and  C_12
REMARK    3  A    between atoms: N_20  and  C_21
REMARK    4  A    between atoms: C_21  and  C_22
REMARK                            x       y       z     vdW  Elec       q    Type
REMARK                         _______ _______ _______ _____ _____    ______ ____
ROOT
ATOM      1  C   UNL     1       0.198  12.442  19.593  0.00  0.00    +0.000 A 
ATOM      2  C   UNL     1      -1.146  12.690  19.789  0.00  0.00    +0.000 A 
ATOM      3  C   UNL     1      -1.938  11.881  18.976  0.00  0.00    +0.000 A 
ATOM      4  C   UNL     1      -3.325  11.841  18.769  0.00  0.00    +0.000 A 
ATOM      5  C   UNL     1      -3.856  10.855  17.946  0.00  0.00    +0.000 A 
ATOM      6  C   UNL     1      -3.012   9.911  17.375  0.00  0.00    +0.000 A 
ATOM      7  C   UNL     1      -1.621   9.944  17.580  0.00  0.00    +0.000 A 
ATOM      8  C   UNL     1      -1.082  10.973  18.371  0.00  0.00    +0.000 A 
ATOM      9  N   UNL     1       0.225  11.328  18.734  0.00  0.00    +0.000 N 
ENDROOT
BRANCH   1  16
ATOM     10  C   UNL     1       2.470  15.321  20.636  0.00  0.00    +0.000 C 
ATOM     11  C   UNL     1       1.467  16.443  20.957  0.00  0.00    +0.000 C 
ATOM     12  C   UNL     1       0.997  17.127  19.668  0.00  0.00    +0.000 C 
ATOM     13  C   UNL     1       0.446  16.101  18.690  0.00  0.00    +0.000 C 
ATOM     14  C   UNL     1       1.429  14.938  18.459  0.00  0.00    +0.000 C 
ATOM     15  N   UNL     1       1.838  14.327  19.729  0.00  0.00    +0.000 N 
ATOM     16  C   UNL     1       1.330  13.110  20.245  0.00  0.00    +0.000 C 
ATOM     17  O   UNL     1       1.861  12.609  21.234  0.00  0.00    +0.000 OA
BRANCH  10  19
ATOM     18  N   UNL     1       4.405  14.169  21.634  0.00  0.00    +0.000 N 
ATOM     19  C   UNL     1       3.254  14.869  21.887  0.00  0.00    +0.000 C 
ATOM     20  O   UNL     1       2.993  15.228  23.031  0.00  0.00    +0.000 OA
ATOM     21  H   UNL     1       4.840  13.778  22.456  0.00  0.00    +0.000 HD
ATOM     22  H   UNL     1       4.416  13.590  20.802  0.00  0.00    +0.000 HD
ENDBRANCH  10  19
ENDBRANCH   1  16
BRANCH   9  23
ATOM     23  C   UNL     1       1.417  10.588  18.296  0.00  0.00    +0.000 C 
BRANCH  23  24
ATOM     24  C   UNL     1       1.566   9.265  19.003  0.00  0.00    +0.000 A 
ATOM     25  C   UNL     1       1.066   9.067  20.298  0.00  0.00    +0.000 A 
ATOM     26  C   UNL     1       1.279   7.856  20.968  0.00  0.00    +0.000 A 
ATOM     27  C   UNL     1       1.998   6.829  20.356  0.00  0.00    +0.000 A 
ATOM     28  C   UNL     1       2.461   6.995  19.056  0.00  0.00    +0.000 A 
ATOM     29  C   UNL     1       2.226   8.194  18.389  0.00  0.00    +0.000 A 
ATOM     30  F   UNL     1       2.626   8.289  17.115  0.00  0.00    +0.000 F 
ENDBRANCH  23  24
ENDBRANCH   9  23
TORSDOF 4
ENDMDL
