MODEL 1
REMARK VINA RESULT:      -8.7      0.000      0.000
REMARK  Name = 
REMARK  4 active torsions:
REMARK  status: ('A' for Active; 'I' for Inactive)
REMARK    1  A    between atoms: C_2  and  C_15
REMARK    2  A    between atoms: N_3  and  C_4
REMARK    3  A    between atoms: C_4  and  C_5
REMARK    4  A    between atoms: C_5  and  C_6
REMARK                            x       y       z     vdW  Elec       q    Type
REMARK                         _______ _______ _______ _____ _____    ______ ____
ROOT
ATOM      1  O   UNL     1       8.164   5.539  19.502  0.00  0.00    +0.000 OA
ATOM      2  C   UNL     1       7.344   6.041  18.740  0.00  0.00    +0.000 C 
ATOM      3  N   UNL     1       7.483   7.308  18.205  0.00  0.00    +0.000 N 
ATOM      4  H   UNL     1       6.737   7.651  17.606  0.00  0.00    +0.000 HD
ENDROOT
BRANCH   2   5
ATOM      5  C   UNL     1       6.118   5.290  18.352  0.00  0.00    +0.000 A 
ATOM      6  C   UNL     1       5.513   5.569  17.140  0.00  0.00    +0.000 A 
ATOM      7  N   UNL     1       4.403   4.917  16.718  0.00  0.00    +0.000 NA
ATOM      8  C   UNL     1       3.907   3.986  17.552  0.00  0.00    +0.000 A 
ATOM      9  C   UNL     1       2.764   3.289  17.182  0.00  0.00    +0.000 A 
ATOM     10  C   UNL     1       2.197   2.331  18.020  0.00  0.00    +0.000 A 
ATOM     11  C   UNL     1       2.785   2.062  19.249  0.00  0.00    +0.000 A 
ATOM     12  C   UNL     1       3.942   2.747  19.628  0.00  0.00    +0.000 A 
ATOM     13  C   UNL     1       4.521   3.706  18.806  0.00  0.00    +0.000 A 
ATOM     14  N   UNL     1       5.638   4.350  19.213  0.00  0.00    +0.000 NA
ENDBRANCH   2   5
BRANCH   3  15
ATOM     15  C   UNL     1       8.625   8.133  18.563  0.00  0.00    +0.000 C 
BRANCH  15  16
ATOM     16  C   UNL     1       8.440   9.615  18.243  0.00  0.00    +0.000 C 
BRANCH  16  17
ATOM     17  C   UNL     1       9.276  10.502  19.119  0.00  0.00    +0.000 A 
ATOM     18  C   UNL     1       9.182  10.601  20.496  0.00  0.00    +0.000 A 
ATOM     19  N   UNL     1      10.096  11.522  20.929  0.00  0.00    +0.000 N 
ATOM     20  C   UNL     1      10.788  12.046  19.862  0.00  0.00    +0.000 A 
ATOM     21  C   UNL     1      11.794  13.020  19.835  0.00  0.00    +0.000 A 
ATOM     22  C   UNL     1      12.327  13.368  18.593  0.00  0.00    +0.000 A 
ATOM     23  C   UNL     1      11.878  12.753  17.426  0.00  0.00    +0.000 A 
ATOM     24  C   UNL     1      10.875  11.775  17.472  0.00  0.00    +0.000 A 
ATOM     25  C   UNL     1      10.307  11.416  18.712  0.00  0.00    +0.000 A 
ATOM     26  H   UNL     1      10.243  11.793  21.892  0.00  0.00    +0.000 HD
ENDBRANCH  16  17
ENDBRANCH  15  16
ENDBRANCH   3  15
TORSDOF 4
ENDMDL
MODEL 2
REMARK VINA RESULT:      -8.7      5.333      7.764
REMARK  Name = 
REMARK  4 active torsions:
REMARK  status: ('A' for Active; 'I' for Inactive)
REMARK    1  A    between atoms: C_2  and  C_15
REMARK    2  A    between atoms: N_3  and  C_4
REMARK    3  A    between atoms: C_4  and  C_5
REMARK    4  A    between atoms: C_5  and  C_6
REMARK                            x       y       z     vdW  Elec       q    Type
REMARK                         _______ _______ _______ _____ _____    ______ ____
ROOT
ATOM      1  O   UNL     1       5.910   4.558  18.972  0.00  0.00    +0.000 OA
ATOM      2  C   UNL     1       5.563   3.967  17.955  0.00  0.00    +0.000 C 
ATOM      3  N   UNL     1       4.640   2.939  17.955  0.00  0.00    +0.000 N 
ATOM      4  H   UNL     1       4.437   2.489  17.066  0.00  0.00    +0.000 HD
ENDROOT
BRANCH   2   5
ATOM      5  C   UNL     1       6.147   4.333  16.635  0.00  0.00    +0.000 A 
ATOM      6  C   UNL     1       7.028   5.398  16.562  0.00  0.00    +0.000 A 
ATOM      7  N   UNL     1       7.607   5.780  15.399  0.00  0.00    +0.000 NA
ATOM      8  C   UNL     1       7.267   5.073  14.305  0.00  0.00    +0.000 A 
ATOM      9  C   UNL     1       7.818   5.422  13.079  0.00  0.00    +0.000 A 
ATOM     10  C   UNL     1       7.481   4.737  11.913  0.00  0.00    +0.000 A 
ATOM     11  C   UNL     1       6.579   3.683  11.975  0.00  0.00    +0.000 A 
ATOM     12  C   UNL     1       6.027   3.314  13.204  0.00  0.00    +0.000 A 
ATOM     13  C   UNL     1       6.350   3.986  14.377  0.00  0.00    +0.000 A 
ATOM     14  N   UNL     1       5.790   3.600  15.545  0.00  0.00    +0.000 NA
ENDBRANCH   2   5
BRANCH   3  15
ATOM     15  C   UNL     1       4.051   2.483  19.203  0.00  0.00    +0.000 C 
BRANCH  15  16
ATOM     16  C   UNL     1       2.573   2.838  19.354  0.00  0.00    +0.000 C 
BRANCH  16  17
ATOM     17  C   UNL     1       2.366   4.205  19.939  0.00  0.00    +0.000 A 
ATOM     18  C   UNL     1       2.127   4.487  21.272  0.00  0.00    +0.000 A 
ATOM     19  N   UNL     1       1.978   5.840  21.409  0.00  0.00    +0.000 N 
ATOM     20  C   UNL     1       2.102   6.461  20.189  0.00  0.00    +0.000 A 
ATOM     21  C   UNL     1       2.006   7.818  19.858  0.00  0.00    +0.000 A 
ATOM     22  C   UNL     1       2.176   8.173  18.518  0.00  0.00    +0.000 A 
ATOM     23  C   UNL     1       2.445   7.205  17.553  0.00  0.00    +0.000 A 
ATOM     24  C   UNL     1       2.544   5.852  17.903  0.00  0.00    +0.000 A 
ATOM     25  C   UNL     1       2.361   5.463  19.246  0.00  0.00    +0.000 A 
ATOM     26  H   UNL     1       1.793   6.323  22.279  0.00  0.00    +0.000 HD
ENDBRANCH  16  17
ENDBRANCH  15  16
ENDBRANCH   3  15
TORSDOF 4
ENDMDL
MODEL 3
REMARK VINA RESULT:      -8.6      2.374      3.388
REMARK  Name = 
REMARK  4 active torsions:
REMARK  status: ('A' for Active; 'I' for Inactive)
REMARK    1  A    between atoms: C_2  and  C_15
REMARK    2  A    between atoms: N_3  and  C_4
REMARK    3  A    between atoms: C_4  and  C_5
REMARK    4  A    between atoms: C_5  and  C_6
REMARK                            x       y       z     vdW  Elec       q    Type
REMARK                         _______ _______ _______ _____ _____    ______ ____
ROOT
ATOM      1  O   UNL     1       7.629   6.030  18.810  0.00  0.00    +0.000 OA
ATOM      2  C   UNL     1       7.548   6.536  17.696  0.00  0.00    +0.000 C 
ATOM      3  N   UNL     1       7.976   7.818  17.413  0.00  0.00    +0.000 N 
ATOM      4  H   UNL     1       7.841   8.162  16.466  0.00  0.00    +0.000 HD
ENDROOT
BRANCH   2   5
ATOM      5  C   UNL     1       6.955   5.770  16.564  0.00  0.00    +0.000 A 
ATOM      6  C   UNL     1       5.744   5.128  16.747  0.00  0.00    +0.000 A 
ATOM      7  N   UNL     1       5.141   4.424  15.759  0.00  0.00    +0.000 NA
ATOM      8  C   UNL     1       5.794   4.370  14.584  0.00  0.00    +0.000 A 
ATOM      9  C   UNL     1       5.233   3.655  13.534  0.00  0.00    +0.000 A 
ATOM     10  C   UNL     1       5.880   3.548  12.303  0.00  0.00    +0.000 A 
ATOM     11  C   UNL     1       7.108   4.171  12.120  0.00  0.00    +0.000 A 
ATOM     12  C   UNL     1       7.677   4.904  13.164  0.00  0.00    +0.000 A 
ATOM     13  C   UNL     1       7.047   5.020  14.398  0.00  0.00    +0.000 A 
ATOM     14  N   UNL     1       7.634   5.734  15.384  0.00  0.00    +0.000 NA
ENDBRANCH   2   5
BRANCH   3  15
ATOM     15  C   UNL     1       8.525   8.656  18.466  0.00  0.00    +0.000 C 
BRANCH  15  16
ATOM     16  C   UNL     1       8.393  10.153  18.196  0.00  0.00    +0.000 C 
BRANCH  16  17
ATOM     17  C   UNL     1       9.295  10.978  19.068  0.00  0.00    +0.000 A 
ATOM     18  C   UNL     1       9.356  10.926  20.449  0.00  0.00    +0.000 A 
ATOM     19  N   UNL     1      10.284  11.835  20.877  0.00  0.00    +0.000 N 
ATOM     20  C   UNL     1      10.832  12.499  19.806  0.00  0.00    +0.000 A 
ATOM     21  C   UNL     1      11.798  13.513  19.776  0.00  0.00    +0.000 A 
ATOM     22  C   UNL     1      12.174  14.015  18.529  0.00  0.00    +0.000 A 
ATOM     23  C   UNL     1      11.614  13.508  17.358  0.00  0.00    +0.000 A 
ATOM     24  C   UNL     1      10.654  12.488  17.406  0.00  0.00    +0.000 A 
ATOM     25  C   UNL     1      10.243  11.974  18.653  0.00  0.00    +0.000 A 
ATOM     26  H   UNL     1      10.531  12.008  21.843  0.00  0.00    +0.000 HD
ENDBRANCH  16  17
ENDBRANCH  15  16
ENDBRANCH   3  15
TORSDOF 4
ENDMDL
MODEL 4
REMARK VINA RESULT:      -8.2      5.948      9.414
REMARK  Name = 
REMARK  4 active torsions:
REMARK  status: ('A' for Active; 'I' for Inactive)
REMARK    1  A    between atoms: C_2  and  C_15
REMARK    2  A    between atoms: N_3  and  C_4
REMARK    3  A    between atoms: C_4  and  C_5
REMARK    4  A    between atoms: C_5  and  C_6
REMARK                            x       y       z     vdW  Elec       q    Type
REMARK                         _______ _______ _______ _____ _____    ______ ____
ROOT
ATOM      1  O   UNL     1       1.950   8.888  17.262  0.00  0.00    +0.000 OA
ATOM      2  C   UNL     1       2.231   8.410  18.356  0.00  0.00    +0.000 C 
ATOM      3  N   UNL     1       3.231   7.474  18.539  0.00  0.00    +0.000 N 
ATOM      4  H   UNL     1       3.372   7.113  19.479  0.00  0.00    +0.000 HD
ENDROOT
BRANCH   2   5
ATOM      5  C   UNL     1       1.476   8.820  19.572  0.00  0.00    +0.000 A 
ATOM      6  C   UNL     1       1.492   7.995  20.683  0.00  0.00    +0.000 A 
ATOM      7  N   UNL     1       0.839   8.310  21.827  0.00  0.00    +0.000 NA
ATOM      8  C   UNL     1       0.156   9.469  21.823  0.00  0.00    +0.000 A 
ATOM      9  C   UNL     1      -0.544   9.843  22.962  0.00  0.00    +0.000 A 
ATOM     10  C   UNL     1      -1.286  11.023  23.002  0.00  0.00    +0.000 A 
ATOM     11  C   UNL     1      -1.326  11.843  21.882  0.00  0.00    +0.000 A 
ATOM     12  C   UNL     1      -0.616  11.485  20.734  0.00  0.00    +0.000 A 
ATOM     13  C   UNL     1       0.128  10.312  20.676  0.00  0.00    +0.000 A 
ATOM     14  N   UNL     1       0.797   9.999  19.544  0.00  0.00    +0.000 NA
ENDBRANCH   2   5
BRANCH   3  15
ATOM     15  C   UNL     1       3.990   6.981  17.402  0.00  0.00    +0.000 C 
BRANCH  15  16
ATOM     16  C   UNL     1       3.684   5.529  17.039  0.00  0.00    +0.000 C 
BRANCH  16  17
ATOM     17  C   UNL     1       3.937   4.584  18.178  0.00  0.00    +0.000 A 
ATOM     18  C   UNL     1       5.146   3.980  18.476  0.00  0.00    +0.000 A 
ATOM     19  N   UNL     1       4.973   3.182  19.573  0.00  0.00    +0.000 N 
ATOM     20  C   UNL     1       3.669   3.235  20.003  0.00  0.00    +0.000 A 
ATOM     21  C   UNL     1       3.046   2.573  21.068  0.00  0.00    +0.000 A 
ATOM     22  C   UNL     1       1.687   2.816  21.278  0.00  0.00    +0.000 A 
ATOM     23  C   UNL     1       0.985   3.699  20.460  0.00  0.00    +0.000 A 
ATOM     24  C   UNL     1       1.626   4.358  19.402  0.00  0.00    +0.000 A 
ATOM     25  C   UNL     1       2.995   4.119  19.157  0.00  0.00    +0.000 A 
ATOM     26  H   UNL     1       5.694   2.620  20.007  0.00  0.00    +0.000 HD
ENDBRANCH  16  17
ENDBRANCH  15  16
ENDBRANCH   3  15
TORSDOF 4
ENDMDL
MODEL 5
REMARK VINA RESULT:      -8.2      5.676      8.109
REMARK  Name = 
REMARK  4 active torsions:
REMARK  status: ('A' for Active; 'I' for Inactive)
REMARK    1  A    between atoms: C_2  and  C_15
REMARK    2  A    between atoms: N_3  and  C_4
REMARK    3  A    between atoms: C_4  and  C_5
REMARK    4  A    between atoms: C_5  and  C_6
REMARK                            x       y       z     vdW  Elec       q    Type
REMARK                         _______ _______ _______ _____ _____    ______ ____
ROOT
ATOM      1  O   UNL     1       3.096   5.807  20.156  0.00  0.00    +0.000 OA
ATOM      2  C   UNL     1       3.020   6.404  19.086  0.00  0.00    +0.000 C 
ATOM      3  N   UNL     1       3.571   5.927  17.913  0.00  0.00    +0.000 N 
ATOM      4  H   UNL     1       3.482   6.506  17.081  0.00  0.00    +0.000 HD
ENDROOT
BRANCH   2   5
ATOM      5  C   UNL     1       2.317   7.714  19.004  0.00  0.00    +0.000 A 
ATOM      6  C   UNL     1       2.389   8.443  17.831  0.00  0.00    +0.000 A 
ATOM      7  N   UNL     1       1.765   9.636  17.681  0.00  0.00    +0.000 NA
ATOM      8  C   UNL     1       1.079  10.087  18.746  0.00  0.00    +0.000 A 
ATOM      9  C   UNL     1       0.426  11.309  18.660  0.00  0.00    +0.000 A 
ATOM     10  C   UNL     1      -0.280  11.832  19.742  0.00  0.00    +0.000 A 
ATOM     11  C   UNL     1      -0.336  11.117  20.932  0.00  0.00    +0.000 A 
ATOM     12  C   UNL     1       0.306   9.880  21.028  0.00  0.00    +0.000 A 
ATOM     13  C   UNL     1       1.015   9.344  19.959  0.00  0.00    +0.000 A 
ATOM     14  N   UNL     1       1.626   8.146  20.095  0.00  0.00    +0.000 NA
ENDBRANCH   2   5
BRANCH   3  15
ATOM     15  C   UNL     1       4.315   4.679  17.907  0.00  0.00    +0.000 C 
BRANCH  15  16
ATOM     16  C   UNL     1       4.457   4.052  16.521  0.00  0.00    +0.000 C 
BRANCH  16  17
ATOM     17  C   UNL     1       5.654   4.565  15.775  0.00  0.00    +0.000 A 
ATOM     18  C   UNL     1       6.625   5.408  16.285  0.00  0.00    +0.000 A 
ATOM     19  N   UNL     1       7.540   5.661  15.300  0.00  0.00    +0.000 N 
ATOM     20  C   UNL     1       7.187   5.012  14.141  0.00  0.00    +0.000 A 
ATOM     21  C   UNL     1       7.817   5.001  12.890  0.00  0.00    +0.000 A 
ATOM     22  C   UNL     1       7.229   4.245  11.875  0.00  0.00    +0.000 A 
ATOM     23  C   UNL     1       6.064   3.517  12.110  0.00  0.00    +0.000 A 
ATOM     24  C   UNL     1       5.452   3.533  13.370  0.00  0.00    +0.000 A 
ATOM     25  C   UNL     1       6.014   4.302  14.410  0.00  0.00    +0.000 A 
ATOM     26  H   UNL     1       8.358   6.249  15.398  0.00  0.00    +0.000 HD
ENDBRANCH  16  17
ENDBRANCH  15  16
ENDBRANCH   3  15
TORSDOF 4
ENDMDL
MODEL 6
REMARK VINA RESULT:      -8.1      2.483      9.931
REMARK  Name = 
REMARK  4 active torsions:
REMARK  status: ('A' for Active; 'I' for Inactive)
REMARK    1  A    between atoms: C_2  and  C_15
REMARK    2  A    between atoms: N_3  and  C_4
REMARK    3  A    between atoms: C_4  and  C_5
REMARK    4  A    between atoms: C_5  and  C_6
REMARK                            x       y       z     vdW  Elec       q    Type
REMARK                         _______ _______ _______ _____ _____    ______ ____
ROOT
ATOM      1  O   UNL     1       9.412  10.206  20.009  0.00  0.00    +0.000 OA
ATOM      2  C   UNL     1       9.278  10.502  18.826  0.00  0.00    +0.000 C 
ATOM      3  N   UNL     1       8.678   9.671  17.900  0.00  0.00    +0.000 N 
ATOM      4  H   UNL     1       8.638   9.991  16.936  0.00  0.00    +0.000 HD
ENDROOT
BRANCH   2   5
ATOM      5  C   UNL     1       9.782  11.808  18.316  0.00  0.00    +0.000 A 
ATOM      6  C   UNL     1      11.018  11.855  17.696  0.00  0.00    +0.000 A 
ATOM      7  N   UNL     1      11.534  13.005  17.198  0.00  0.00    +0.000 NA
ATOM      8  C   UNL     1      10.782  14.110  17.352  0.00  0.00    +0.000 A 
ATOM      9  C   UNL     1      11.260  15.322  16.872  0.00  0.00    +0.000 A 
ATOM     10  C   UNL     1      10.531  16.500  17.027  0.00  0.00    +0.000 A 
ATOM     11  C   UNL     1       9.301  16.464  17.670  0.00  0.00    +0.000 A 
ATOM     12  C   UNL     1       8.803  15.249  18.147  0.00  0.00    +0.000 A 
ATOM     13  C   UNL     1       9.516  14.064  18.002  0.00  0.00    +0.000 A 
ATOM     14  N   UNL     1       9.001  12.911  18.482  0.00  0.00    +0.000 NA
ENDBRANCH   2   5
BRANCH   3  15
ATOM     15  C   UNL     1       8.197   8.359  18.298  0.00  0.00    +0.000 C 
BRANCH  15  16
ATOM     16  C   UNL     1       7.392   7.643  17.215  0.00  0.00    +0.000 C 
BRANCH  16  17
ATOM     17  C   UNL     1       6.832   6.332  17.685  0.00  0.00    +0.000 A 
ATOM     18  C   UNL     1       7.569   5.212  18.025  0.00  0.00    +0.000 A 
ATOM     19  N   UNL     1       6.704   4.216  18.388  0.00  0.00    +0.000 N 
ATOM     20  C   UNL     1       5.405   4.651  18.285  0.00  0.00    +0.000 A 
ATOM     21  C   UNL     1       4.207   3.969  18.535  0.00  0.00    +0.000 A 
ATOM     22  C   UNL     1       3.012   4.665  18.343  0.00  0.00    +0.000 A 
ATOM     23  C   UNL     1       3.020   5.996  17.928  0.00  0.00    +0.000 A 
ATOM     24  C   UNL     1       4.228   6.664  17.688  0.00  0.00    +0.000 A 
ATOM     25  C   UNL     1       5.450   5.981  17.859  0.00  0.00    +0.000 A 
ATOM     26  H   UNL     1       6.973   3.286  18.683  0.00  0.00    +0.000 HD
ENDBRANCH  16  17
ENDBRANCH  15  16
ENDBRANCH   3  15
TORSDOF 4
ENDMDL
MODEL 7
REMARK VINA RESULT:      -8.1      4.313      6.954
REMARK  Name = 
REMARK  4 active torsions:
REMARK  status: ('A' for Active; 'I' for Inactive)
REMARK    1  A    between atoms: C_2  and  C_15
REMARK    2  A    between atoms: N_3  and  C_4
REMARK    3  A    between atoms: C_4  and  C_5
REMARK    4  A    between atoms: C_5  and  C_6
REMARK                            x       y       z     vdW  Elec       q    Type
REMARK                         _______ _______ _______ _____ _____    ______ ____
ROOT
ATOM      1  O   UNL     1       3.384   4.830  20.246  0.00  0.00    +0.000 OA
ATOM      2  C   UNL     1       2.888   5.378  19.266  0.00  0.00    +0.000 C 
ATOM      3  N   UNL     1       2.828   4.788  18.019  0.00  0.00    +0.000 N 
ATOM      4  H   UNL     1       2.424   5.331  17.260  0.00  0.00    +0.000 HD
ENDROOT
BRANCH   2   5
ATOM      5  C   UNL     1       2.320   6.750  19.379  0.00  0.00    +0.000 A 
ATOM      6  C   UNL     1       2.365   7.588  18.280  0.00  0.00    +0.000 A 
ATOM      7  N   UNL     1       1.858   8.844  18.306  0.00  0.00    +0.000 NA
ATOM      8  C   UNL     1       1.316   9.242  19.471  0.00  0.00    +0.000 A 
ATOM      9  C   UNL     1       0.789  10.523  19.566  0.00  0.00    +0.000 A 
ATOM     10  C   UNL     1       0.237  10.993  20.757  0.00  0.00    +0.000 A 
ATOM     11  C   UNL     1       0.210  10.165  21.872  0.00  0.00    +0.000 A 
ATOM     12  C   UNL     1       0.726   8.870  21.786  0.00  0.00    +0.000 A 
ATOM     13  C   UNL     1       1.281   8.385  20.607  0.00  0.00    +0.000 A 
ATOM     14  N   UNL     1       1.774   7.127  20.568  0.00  0.00    +0.000 NA
ENDBRANCH   2   5
BRANCH   3  15
ATOM     15  C   UNL     1       3.398   3.469  17.803  0.00  0.00    +0.000 C 
BRANCH  15  16
ATOM     16  C   UNL     1       4.521   3.443  16.768  0.00  0.00    +0.000 C 
BRANCH  16  17
ATOM     17  C   UNL     1       5.206   4.771  16.627  0.00  0.00    +0.000 A 
ATOM     18  C   UNL     1       5.008   5.680  15.604  0.00  0.00    +0.000 A 
ATOM     19  N   UNL     1       5.821   6.759  15.817  0.00  0.00    +0.000 N 
ATOM     20  C   UNL     1       6.566   6.577  16.958  0.00  0.00    +0.000 A 
ATOM     21  C   UNL     1       7.530   7.408  17.543  0.00  0.00    +0.000 A 
ATOM     22  C   UNL     1       8.140   6.966  18.719  0.00  0.00    +0.000 A 
ATOM     23  C   UNL     1       7.786   5.746  19.292  0.00  0.00    +0.000 A 
ATOM     24  C   UNL     1       6.814   4.931  18.697  0.00  0.00    +0.000 A 
ATOM     25  C   UNL     1       6.193   5.344  17.499  0.00  0.00    +0.000 A 
ATOM     26  H   UNL     1       5.880   7.574  15.221  0.00  0.00    +0.000 HD
ENDBRANCH  16  17
ENDBRANCH  15  16
ENDBRANCH   3  15
TORSDOF 4
ENDMDL
MODEL 8
REMARK VINA RESULT:      -8.1      1.157      1.692
REMARK  Name = 
REMARK  4 active torsions:
REMARK  status: ('A' for Active; 'I' for Inactive)
REMARK    1  A    between atoms: C_2  and  C_15
REMARK    2  A    between atoms: N_3  and  C_4
REMARK    3  A    between atoms: C_4  and  C_5
REMARK    4  A    between atoms: C_5  and  C_6
REMARK                            x       y       z     vdW  Elec       q    Type
REMARK                         _______ _______ _______ _____ _____    ______ ____
ROOT
ATOM      1  O   UNL     1       6.319   7.384  16.374  0.00  0.00    +0.000 OA
ATOM      2  C   UNL     1       6.531   6.893  17.478  0.00  0.00    +0.000 C 
ATOM      3  N   UNL     1       7.577   7.282  18.291  0.00  0.00    +0.000 N 
ATOM      4  H   UNL     1       7.691   6.797  19.178  0.00  0.00    +0.000 HD
ENDROOT
BRANCH   2   5
ATOM      5  C   UNL     1       5.648   5.814  18.003  0.00  0.00    +0.000 A 
ATOM      6  C   UNL     1       6.188   4.850  18.835  0.00  0.00    +0.000 A 
ATOM      7  N   UNL     1       5.443   3.847  19.360  0.00  0.00    +0.000 NA
ATOM      8  C   UNL     1       4.143   3.829  19.014  0.00  0.00    +0.000 A 
ATOM      9  C   UNL     1       3.328   2.820  19.510  0.00  0.00    +0.000 A 
ATOM     10  C   UNL     1       1.980   2.743  19.165  0.00  0.00    +0.000 A 
ATOM     11  C   UNL     1       1.437   3.694  18.311  0.00  0.00    +0.000 A 
ATOM     12  C   UNL     1       2.243   4.721  17.815  0.00  0.00    +0.000 A 
ATOM     13  C   UNL     1       3.589   4.814  18.147  0.00  0.00    +0.000 A 
ATOM     14  N   UNL     1       4.336   5.821  17.642  0.00  0.00    +0.000 NA
ENDBRANCH   2   5
BRANCH   3  15
ATOM     15  C   UNL     1       8.517   8.295  17.842  0.00  0.00    +0.000 C 
BRANCH  15  16
ATOM     16  C   UNL     1       8.078   9.725  18.151  0.00  0.00    +0.000 C 
BRANCH  16  17
ATOM     17  C   UNL     1       9.035  10.438  19.062  0.00  0.00    +0.000 A 
ATOM     18  C   UNL     1       9.011  10.409  20.445  0.00  0.00    +0.000 A 
ATOM     19  N   UNL     1      10.031  11.191  20.913  0.00  0.00    +0.000 N 
ATOM     20  C   UNL     1      10.725  11.749  19.866  0.00  0.00    +0.000 A 
ATOM     21  C   UNL     1      11.821  12.621  19.878  0.00  0.00    +0.000 A 
ATOM     22  C   UNL     1      12.332  13.037  18.648  0.00  0.00    +0.000 A 
ATOM     23  C   UNL     1      11.774  12.586  17.453  0.00  0.00    +0.000 A 
ATOM     24  C   UNL     1      10.681  11.709  17.460  0.00  0.00    +0.000 A 
ATOM     25  C   UNL     1      10.134  11.284  18.689  0.00  0.00    +0.000 A 
ATOM     26  H   UNL     1      10.245  11.350  21.889  0.00  0.00    +0.000 HD
ENDBRANCH  16  17
ENDBRANCH  15  16
ENDBRANCH   3  15
TORSDOF 4
ENDMDL
MODEL 9
REMARK VINA RESULT:      -8.0      1.795      2.241
REMARK  Name = 
REMARK  4 active torsions:
REMARK  status: ('A' for Active; 'I' for Inactive)
REMARK    1  A    between atoms: C_2  and  C_15
REMARK    2  A    between atoms: N_3  and  C_4
REMARK    3  A    between atoms: C_4  and  C_5
REMARK    4  A    between atoms: C_5  and  C_6
REMARK                            x       y       z     vdW  Elec       q    Type
REMARK                         _______ _______ _______ _____ _____    ______ ____
ROOT
ATOM      1  O   UNL     1       7.467   6.310  16.477  0.00  0.00    +0.000 OA
ATOM      2  C   UNL     1       6.816   6.683  17.448  0.00  0.00    +0.000 C 
ATOM      3  N   UNL     1       6.939   7.942  18.004  0.00  0.00    +0.000 N 
ATOM      4  H   UNL     1       6.378   8.151  18.826  0.00  0.00    +0.000 HD
ENDROOT
BRANCH   2   5
ATOM      5  C   UNL     1       5.840   5.764  18.098  0.00  0.00    +0.000 A 
ATOM      6  C   UNL     1       6.221   4.462  18.368  0.00  0.00    +0.000 A 
ATOM      7  N   UNL     1       5.391   3.575  18.968  0.00  0.00    +0.000 NA
ATOM      8  C   UNL     1       4.162   4.026  19.277  0.00  0.00    +0.000 A 
ATOM      9  C   UNL     1       3.260   3.162  19.884  0.00  0.00    +0.000 A 
ATOM     10  C   UNL     1       1.967   3.572  20.204  0.00  0.00    +0.000 A 
ATOM     11  C   UNL     1       1.570   4.872  19.913  0.00  0.00    +0.000 A 
ATOM     12  C   UNL     1       2.471   5.754  19.314  0.00  0.00    +0.000 A 
ATOM     13  C   UNL     1       3.765   5.362  18.988  0.00  0.00    +0.000 A 
ATOM     14  N   UNL     1       4.604   6.246  18.404  0.00  0.00    +0.000 NA
ENDBRANCH   2   5
BRANCH   3  15
ATOM     15  C   UNL     1       7.899   8.890  17.464  0.00  0.00    +0.000 C 
BRANCH  15  16
ATOM     16  C   UNL     1       8.789   9.537  18.523  0.00  0.00    +0.000 C 
BRANCH  16  17
ATOM     17  C   UNL     1       9.073  10.983  18.233  0.00  0.00    +0.000 A 
ATOM     18  C   UNL     1       8.269  11.834  17.497  0.00  0.00    +0.000 A 
ATOM     19  N   UNL     1       8.870  13.061  17.443  0.00  0.00    +0.000 N 
ATOM     20  C   UNL     1      10.066  13.038  18.121  0.00  0.00    +0.000 A 
ATOM     21  C   UNL     1      11.012  14.053  18.308  0.00  0.00    +0.000 A 
ATOM     22  C   UNL     1      12.155  13.746  19.050  0.00  0.00    +0.000 A 
ATOM     23  C   UNL     1      12.333  12.475  19.592  0.00  0.00    +0.000 A 
ATOM     24  C   UNL     1      11.373  11.473  19.401  0.00  0.00    +0.000 A 
ATOM     25  C   UNL     1      10.216  11.750  18.642  0.00  0.00    +0.000 A 
ATOM     26  H   UNL     1       8.500  13.873  16.966  0.00  0.00    +0.000 HD
ENDBRANCH  16  17
ENDBRANCH  15  16
ENDBRANCH   3  15
TORSDOF 4
ENDMDL
