MODEL 1
REMARK VINA RESULT:      -8.8      0.000      0.000
REMARK  Name = 
REMARK  5 active torsions:
REMARK  status: ('A' for Active; 'I' for Inactive)
REMARK    1  A    between atoms: C_1  and  C_2
REMARK    2  A    between atoms: C_4  and  N_5
REMARK    3  A    between atoms: C_9  and  C_11
REMARK    4  A    between atoms: C_15  and  N_16
REMARK    5  A    between atoms: C_20  and  C_21
REMARK                            x       y       z     vdW  Elec       q    Type
REMARK                         _______ _______ _______ _____ _____    ______ ____
ROOT
ATOM      1  C   UNL     1       1.532   8.466  19.895  0.00  0.00    +0.000 A 
ATOM      2  C   UNL     1       1.907   8.797  18.587  0.00  0.00    +0.000 A 
ATOM      3  C   UNL     1       2.499   7.857  17.743  0.00  0.00    +0.000 A 
ATOM      4  C   UNL     1       2.822   6.596  18.227  0.00  0.00    +0.000 A 
ATOM      5  C   UNL     1       2.499   6.254  19.547  0.00  0.00    +0.000 A 
ATOM      6  C   UNL     1       1.850   7.186  20.376  0.00  0.00    +0.000 A 
ENDROOT
BRANCH   1  14
ATOM      7  C   UNL     1       1.191  12.351  18.746  0.00  0.00    +0.000 C 
ATOM      8  C   UNL     1       0.246  11.192  19.091  0.00  0.00    +0.000 C 
ATOM      9  C   UNL     1      -1.230  11.558  18.887  0.00  0.00    +0.000 C 
ATOM     10  C   UNL     1      -1.725  12.542  19.946  0.00  0.00    +0.000 C 
ATOM     11  C   UNL     1      -1.465  11.983  21.349  0.00  0.00    +0.000 C 
ATOM     12  C   UNL     1       0.008  11.617  21.526  0.00  0.00    +0.000 C 
ATOM     13  N   UNL     1       0.471  10.711  20.466  0.00  0.00    +0.000 N 
ATOM     14  C   UNL     1       0.913   9.434  20.852  0.00  0.00    +0.000 C 
ATOM     15  O   UNL     1       0.805   9.050  22.022  0.00  0.00    +0.000 OA
BRANCH  10  16
ATOM     16  N   UNL     1      -3.150  12.815  19.757  0.00  0.00    +0.000 NA
ATOM     17  H   UNL     1      -3.628  11.961  19.465  0.00  0.00    +0.000 HD
ATOM     18  H   UNL     1      -3.275  13.479  18.992  0.00  0.00    +0.000 HD
ENDBRANCH  10  16
ENDBRANCH   1  14
BRANCH   5  19
ATOM     19  N   UNL     1       2.842   4.952  20.010  0.00  0.00    +0.000 N 
ATOM     20  N   UNL     1       2.124   4.426  21.044  0.00  0.00    +0.000 NA
ATOM     21  C   UNL     1       2.488   3.148  21.079  0.00  0.00    +0.000 A 
ATOM     22  C   UNL     1       3.535   2.869  20.192  0.00  0.00    +0.000 A 
ATOM     23  C   UNL     1       3.827   4.072  19.558  0.00  0.00    +0.000 A 
BRANCH  23  24
ATOM     24  C   UNL     1       4.964   4.404  18.677  0.00  0.00    +0.000 A 
ATOM     25  C   UNL     1       6.059   5.127  19.182  0.00  0.00    +0.000 A 
ATOM     26  C   UNL     1       7.152   5.424  18.360  0.00  0.00    +0.000 A 
ATOM     27  C   UNL     1       7.180   4.985  17.039  0.00  0.00    +0.000 A 
ATOM     28  C   UNL     1       6.094   4.296  16.522  0.00  0.00    +0.000 A 
ATOM     29  C   UNL     1       4.981   4.048  17.325  0.00  0.00    +0.000 A 
ENDBRANCH  23  24
ENDBRANCH   5  19
TORSDOF 4
ENDMDL
MODEL 2
REMARK VINA RESULT:      -8.8      2.258      8.386
REMARK  Name = 
REMARK  5 active torsions:
REMARK  status: ('A' for Active; 'I' for Inactive)
REMARK    1  A    between atoms: C_1  and  C_2
REMARK    2  A    between atoms: C_4  and  N_5
REMARK    3  A    between atoms: C_9  and  C_11
REMARK    4  A    between atoms: C_15  and  N_16
REMARK    5  A    between atoms: C_20  and  C_21
REMARK                            x       y       z     vdW  Elec       q    Type
REMARK                         _______ _______ _______ _____ _____    ______ ____
ROOT
ATOM      1  C   UNL     1       1.660   7.952  19.876  0.00  0.00    +0.000 A 
ATOM      2  C   UNL     1       1.206   7.722  21.181  0.00  0.00    +0.000 A 
ATOM      3  C   UNL     1       0.535   8.711  21.900  0.00  0.00    +0.000 A 
ATOM      4  C   UNL     1       0.397   9.985  21.366  0.00  0.00    +0.000 A 
ATOM      5  C   UNL     1       0.884  10.255  20.080  0.00  0.00    +0.000 A 
ATOM      6  C   UNL     1       1.508   9.239  19.335  0.00  0.00    +0.000 A 
ENDROOT
BRANCH   1  14
ATOM      7  C   UNL     1       2.472   4.347  21.572  0.00  0.00    +0.000 C 
ATOM      8  C   UNL     1       1.632   4.878  20.401  0.00  0.00    +0.000 C 
ATOM      9  C   UNL     1       0.819   3.772  19.715  0.00  0.00    +0.000 C 
ATOM     10  C   UNL     1       1.708   2.825  18.911  0.00  0.00    +0.000 C 
ATOM     11  C   UNL     1       2.553   3.617  17.908  0.00  0.00    +0.000 C 
ATOM     12  C   UNL     1       3.347   4.717  18.611  0.00  0.00    +0.000 C 
ATOM     13  N   UNL     1       2.474   5.582  19.417  0.00  0.00    +0.000 N 
ATOM     14  C   UNL     1       2.402   6.940  19.063  0.00  0.00    +0.000 C 
ATOM     15  O   UNL     1       2.959   7.363  18.044  0.00  0.00    +0.000 OA
BRANCH  10  16
ATOM     16  N   UNL     1       0.890   1.827  18.220  0.00  0.00    +0.000 NA
ATOM     17  H   UNL     1       1.055   0.905  18.626  0.00  0.00    +0.000 HD
ATOM     18  H   UNL     1       1.183   1.759  17.245  0.00  0.00    +0.000 HD
ENDBRANCH  10  16
ENDBRANCH   1  14
BRANCH   5  19
ATOM     19  N   UNL     1       0.723  11.572  19.561  0.00  0.00    +0.000 N 
ATOM     20  N   UNL     1       1.637  12.520  19.917  0.00  0.00    +0.000 NA
ATOM     21  C   UNL     1       1.385  13.540  19.103  0.00  0.00    +0.000 A 
ATOM     22  C   UNL     1       0.234  13.333  18.332  0.00  0.00    +0.000 A 
ATOM     23  C   UNL     1      -0.250  12.082  18.699  0.00  0.00    +0.000 A 
BRANCH  23  24
ATOM     24  C   UNL     1      -1.536  11.446  18.352  0.00  0.00    +0.000 A 
ATOM     25  C   UNL     1      -2.742  11.985  18.835  0.00  0.00    +0.000 A 
ATOM     26  C   UNL     1      -3.966  11.403  18.491  0.00  0.00    +0.000 A 
ATOM     27  C   UNL     1      -4.008  10.298  17.643  0.00  0.00    +0.000 A 
ATOM     28  C   UNL     1      -2.825   9.741  17.184  0.00  0.00    +0.000 A 
ATOM     29  C   UNL     1      -1.601  10.287  17.572  0.00  0.00    +0.000 A 
ENDBRANCH  23  24
ENDBRANCH   5  19
TORSDOF 4
ENDMDL
MODEL 3
REMARK VINA RESULT:      -8.7      0.476      1.044
REMARK  Name = 
REMARK  5 active torsions:
REMARK  status: ('A' for Active; 'I' for Inactive)
REMARK    1  A    between atoms: C_1  and  C_2
REMARK    2  A    between atoms: C_4  and  N_5
REMARK    3  A    between atoms: C_9  and  C_11
REMARK    4  A    between atoms: C_15  and  N_16
REMARK    5  A    between atoms: C_20  and  C_21
REMARK                            x       y       z     vdW  Elec       q    Type
REMARK                         _______ _______ _______ _____ _____    ______ ____
ROOT
ATOM      1  C   UNL     1       1.731   8.277  19.691  0.00  0.00    +0.000 A 
ATOM      2  C   UNL     1       2.191   8.657  18.424  0.00  0.00    +0.000 A 
ATOM      3  C   UNL     1       2.846   7.752  17.589  0.00  0.00    +0.000 A 
ATOM      4  C   UNL     1       3.147   6.476  18.048  0.00  0.00    +0.000 A 
ATOM      5  C   UNL     1       2.738   6.085  19.330  0.00  0.00    +0.000 A 
ATOM      6  C   UNL     1       2.027   6.982  20.147  0.00  0.00    +0.000 A 
ENDROOT
BRANCH   1  14
ATOM      7  C   UNL     1       1.555  12.223  18.727  0.00  0.00    +0.000 C 
ATOM      8  C   UNL     1       0.565  11.066  18.921  0.00  0.00    +0.000 C 
ATOM      9  C   UNL     1      -0.880  11.471  18.603  0.00  0.00    +0.000 C 
ATOM     10  C   UNL     1      -1.456  12.408  19.664  0.00  0.00    +0.000 C 
ATOM     11  C   UNL     1      -1.335  11.772  21.052  0.00  0.00    +0.000 C 
ATOM     12  C   UNL     1       0.110  11.368  21.344  0.00  0.00    +0.000 C 
ATOM     13  N   UNL     1       0.655  10.510  20.283  0.00  0.00    +0.000 N 
ATOM     14  C   UNL     1       1.041   9.205  20.639  0.00  0.00    +0.000 C 
ATOM     15  O   UNL     1       0.821   8.763  21.771  0.00  0.00    +0.000 OA
BRANCH  10  16
ATOM     16  N   UNL     1      -2.854  12.718  19.360  0.00  0.00    +0.000 NA
ATOM     17  H   UNL     1      -2.903  13.555  18.778  0.00  0.00    +0.000 HD
ATOM     18  H   UNL     1      -3.349  12.948  20.221  0.00  0.00    +0.000 HD
ENDBRANCH  10  16
ENDBRANCH   1  14
BRANCH   5  19
ATOM     19  N   UNL     1       3.060   4.769  19.768  0.00  0.00    +0.000 N 
ATOM     20  N   UNL     1       2.440   4.292  20.885  0.00  0.00    +0.000 NA
ATOM     21  C   UNL     1       2.735   2.996  20.896  0.00  0.00    +0.000 A 
ATOM     22  C   UNL     1       3.654   2.651  19.897  0.00  0.00    +0.000 A 
ATOM     23  C   UNL     1       3.936   3.831  19.217  0.00  0.00    +0.000 A 
BRANCH  23  24
ATOM     24  C   UNL     1       4.979   4.093  18.206  0.00  0.00    +0.000 A 
ATOM     25  C   UNL     1       4.767   3.727  16.864  0.00  0.00    +0.000 A 
ATOM     26  C   UNL     1       5.741   3.994  15.895  0.00  0.00    +0.000 A 
ATOM     27  C   UNL     1       6.920   4.649  16.242  0.00  0.00    +0.000 A 
ATOM     28  C   UNL     1       7.152   4.988  17.566  0.00  0.00    +0.000 A 
ATOM     29  C   UNL     1       6.206   4.673  18.542  0.00  0.00    +0.000 A 
ENDBRANCH  23  24
ENDBRANCH   5  19
TORSDOF 4
ENDMDL
MODEL 4
REMARK VINA RESULT:      -8.4      2.212      3.771
REMARK  Name = 
REMARK  5 active torsions:
REMARK  status: ('A' for Active; 'I' for Inactive)
REMARK    1  A    between atoms: C_1  and  C_2
REMARK    2  A    between atoms: C_4  and  N_5
REMARK    3  A    between atoms: C_9  and  C_11
REMARK    4  A    between atoms: C_15  and  N_16
REMARK    5  A    between atoms: C_20  and  C_21
REMARK                            x       y       z     vdW  Elec       q    Type
REMARK                         _______ _______ _______ _____ _____    ______ ____
ROOT
ATOM      1  C   UNL     1       0.921   9.191  19.199  0.00  0.00    +0.000 A 
ATOM      2  C   UNL     1       0.812   8.698  20.506  0.00  0.00    +0.000 A 
ATOM      3  C   UNL     1       1.597   7.633  20.947  0.00  0.00    +0.000 A 
ATOM      4  C   UNL     1       2.434   6.972  20.057  0.00  0.00    +0.000 A 
ATOM      5  C   UNL     1       2.528   7.416  18.732  0.00  0.00    +0.000 A 
ATOM      6  C   UNL     1       1.778   8.526  18.306  0.00  0.00    +0.000 A 
ENDROOT
BRANCH   1  14
ATOM      7  C   UNL     1       0.114  12.326  21.659  0.00  0.00    +0.000 C 
ATOM      8  C   UNL     1       0.888  12.088  20.355  0.00  0.00    +0.000 C 
ATOM      9  C   UNL     1       1.618  13.347  19.868  0.00  0.00    +0.000 C 
ATOM     10  C   UNL     1       0.646  14.399  19.336  0.00  0.00    +0.000 C 
ATOM     11  C   UNL     1      -0.239  13.795  18.241  0.00  0.00    +0.000 C 
ATOM     12  C   UNL     1      -0.948  12.539  18.744  0.00  0.00    +0.000 C 
ATOM     13  N   UNL     1       0.003  11.566  19.297  0.00  0.00    +0.000 N 
ATOM     14  C   UNL     1       0.095  10.315  18.662  0.00  0.00    +0.000 C 
ATOM     15  O   UNL     1      -0.516  10.088  17.612  0.00  0.00    +0.000 OA
BRANCH  10  16
ATOM     16  N   UNL     1       1.383  15.554  18.822  0.00  0.00    +0.000 NA
ATOM     17  H   UNL     1       2.091  15.841  19.499  0.00  0.00    +0.000 HD
ATOM     18  H   UNL     1       0.752  16.349  18.724  0.00  0.00    +0.000 HD
ENDBRANCH  10  16
ENDBRANCH   1  14
BRANCH   5  19
ATOM     19  N   UNL     1       3.398   6.717  17.847  0.00  0.00    +0.000 N 
ATOM     20  N   UNL     1       4.091   7.440  16.921  0.00  0.00    +0.000 NA
ATOM     21  C   UNL     1       4.981   6.581  16.433  0.00  0.00    +0.000 A 
ATOM     22  C   UNL     1       4.782   5.280  16.913  0.00  0.00    +0.000 A 
ATOM     23  C   UNL     1       3.687   5.353  17.768  0.00  0.00    +0.000 A 
BRANCH  23  24
ATOM     24  C   UNL     1       2.923   4.256  18.393  0.00  0.00    +0.000 A 
ATOM     25  C   UNL     1       3.487   3.515  19.447  0.00  0.00    +0.000 A 
ATOM     26  C   UNL     1       2.759   2.490  20.061  0.00  0.00    +0.000 A 
ATOM     27  C   UNL     1       1.458   2.208  19.653  0.00  0.00    +0.000 A 
ATOM     28  C   UNL     1       0.902   2.912  18.597  0.00  0.00    +0.000 A 
ATOM     29  C   UNL     1       1.647   3.897  17.948  0.00  0.00    +0.000 A 
ENDBRANCH  23  24
ENDBRANCH   5  19
TORSDOF 4
ENDMDL
MODEL 5
REMARK VINA RESULT:      -8.4      0.725      1.174
REMARK  Name = 
REMARK  5 active torsions:
REMARK  status: ('A' for Active; 'I' for Inactive)
REMARK    1  A    between atoms: C_1  and  C_2
REMARK    2  A    between atoms: C_4  and  N_5
REMARK    3  A    between atoms: C_9  and  C_11
REMARK    4  A    between atoms: C_15  and  N_16
REMARK    5  A    between atoms: C_20  and  C_21
REMARK                            x       y       z     vdW  Elec       q    Type
REMARK                         _______ _______ _______ _____ _____    ______ ____
ROOT
ATOM      1  C   UNL     1       1.381   9.085  19.931  0.00  0.00    +0.000 A 
ATOM      2  C   UNL     1       1.752   9.432  18.626  0.00  0.00    +0.000 A 
ATOM      3  C   UNL     1       2.293   8.490  17.751  0.00  0.00    +0.000 A 
ATOM      4  C   UNL     1       2.570   7.205  18.199  0.00  0.00    +0.000 A 
ATOM      5  C   UNL     1       2.250   6.844  19.515  0.00  0.00    +0.000 A 
ATOM      6  C   UNL     1       1.652   7.780  20.376  0.00  0.00    +0.000 A 
ENDROOT
BRANCH   1  14
ATOM      7  C   UNL     1       0.151  12.716  18.577  0.00  0.00    +0.000 C 
ATOM      8  C   UNL     1      -0.490  11.475  19.215  0.00  0.00    +0.000 C 
ATOM      9  C   UNL     1      -2.017  11.591  19.314  0.00  0.00    +0.000 C 
ATOM     10  C   UNL     1      -2.444  12.605  20.374  0.00  0.00    +0.000 C 
ATOM     11  C   UNL     1      -1.810  12.257  21.725  0.00  0.00    +0.000 C 
ATOM     12  C   UNL     1      -0.292  12.139  21.600  0.00  0.00    +0.000 C 
ATOM     13  N   UNL     1       0.091  11.196  20.540  0.00  0.00    +0.000 N 
ATOM     14  C   UNL     1       0.816  10.053  20.921  0.00  0.00    +0.000 C 
ATOM     15  O   UNL     1       1.018   9.795  22.112  0.00  0.00    +0.000 OA
BRANCH  10  16
ATOM     16  N   UNL     1      -3.903  12.637  20.484  0.00  0.00    +0.000 NA
ATOM     17  H   UNL     1      -4.177  13.250  21.253  0.00  0.00    +0.000 HD
ATOM     18  H   UNL     1      -4.250  11.710  20.730  0.00  0.00    +0.000 HD
ENDBRANCH  10  16
ENDBRANCH   1  14
BRANCH   5  19
ATOM     19  N   UNL     1       2.544   5.517  19.941  0.00  0.00    +0.000 N 
ATOM     20  N   UNL     1       1.844   5.009  20.995  0.00  0.00    +0.000 NA
ATOM     21  C   UNL     1       2.143   3.714  20.993  0.00  0.00    +0.000 A 
ATOM     22  C   UNL     1       3.136   3.398  20.057  0.00  0.00    +0.000 A 
ATOM     23  C   UNL     1       3.463   4.597  19.432  0.00  0.00    +0.000 A 
BRANCH  23  24
ATOM     24  C   UNL     1       4.577   4.887  18.509  0.00  0.00    +0.000 A 
ATOM     25  C   UNL     1       4.485   4.521  17.155  0.00  0.00    +0.000 A 
ATOM     26  C   UNL     1       5.526   4.815  16.268  0.00  0.00    +0.000 A 
ATOM     27  C   UNL     1       6.656   5.499  16.710  0.00  0.00    +0.000 A 
ATOM     28  C   UNL     1       6.771   5.840  18.048  0.00  0.00    +0.000 A 
ATOM     29  C   UNL     1       5.758   5.498  18.944  0.00  0.00    +0.000 A 
ENDBRANCH  23  24
ENDBRANCH   5  19
TORSDOF 4
ENDMDL
MODEL 6
REMARK VINA RESULT:      -8.4      1.879      8.273
REMARK  Name = 
REMARK  5 active torsions:
REMARK  status: ('A' for Active; 'I' for Inactive)
REMARK    1  A    between atoms: C_1  and  C_2
REMARK    2  A    between atoms: C_4  and  N_5
REMARK    3  A    between atoms: C_9  and  C_11
REMARK    4  A    between atoms: C_15  and  N_16
REMARK    5  A    between atoms: C_20  and  C_21
REMARK                            x       y       z     vdW  Elec       q    Type
REMARK                         _______ _______ _______ _____ _____    ______ ____
ROOT
ATOM      1  C   UNL     1       1.836   7.561  19.550  0.00  0.00    +0.000 A 
ATOM      2  C   UNL     1       2.409   7.648  18.275  0.00  0.00    +0.000 A 
ATOM      3  C   UNL     1       2.478   8.863  17.593  0.00  0.00    +0.000 A 
ATOM      4  C   UNL     1       1.881   9.996  18.131  0.00  0.00    +0.000 A 
ATOM      5  C   UNL     1       1.261   9.925  19.385  0.00  0.00    +0.000 A 
ATOM      6  C   UNL     1       1.244   8.712  20.095  0.00  0.00    +0.000 A 
ENDROOT
BRANCH   1  14
ATOM      7  C   UNL     1       1.781   4.062  17.481  0.00  0.00    +0.000 C 
ATOM      8  C   UNL     1       2.698   4.753  18.499  0.00  0.00    +0.000 C 
ATOM      9  C   UNL     1       3.979   3.954  18.771  0.00  0.00    +0.000 C 
ATOM     10  C   UNL     1       3.700   2.688  19.579  0.00  0.00    +0.000 C 
ATOM     11  C   UNL     1       2.962   3.040  20.875  0.00  0.00    +0.000 C 
ATOM     12  C   UNL     1       1.696   3.842  20.581  0.00  0.00    +0.000 C 
ATOM     13  N   UNL     1       1.985   5.026  19.760  0.00  0.00    +0.000 N 
ATOM     14  C   UNL     1       1.715   6.286  20.322  0.00  0.00    +0.000 C 
ATOM     15  O   UNL     1       1.360   6.395  21.500  0.00  0.00    +0.000 OA
BRANCH  10  16
ATOM     16  N   UNL     1       4.953   1.990  19.874  0.00  0.00    +0.000 NA
ATOM     17  H   UNL     1       4.755   1.123  20.375  0.00  0.00    +0.000 HD
ATOM     18  H   UNL     1       5.520   2.555  20.507  0.00  0.00    +0.000 HD
ENDBRANCH  10  16
ENDBRANCH   1  14
BRANCH   5  19
ATOM     19  N   UNL     1       0.662  11.107  19.909  0.00  0.00    +0.000 N 
ATOM     20  N   UNL     1       1.280  11.735  20.949  0.00  0.00    +0.000 NA
ATOM     21  C   UNL     1       0.653  12.904  21.045  0.00  0.00    +0.000 A 
ATOM     22  C   UNL     1      -0.454  12.985  20.190  0.00  0.00    +0.000 A 
ATOM     23  C   UNL     1      -0.501  11.772  19.513  0.00  0.00    +0.000 A 
BRANCH  23  24
ATOM     24  C   UNL     1      -1.565  11.237  18.641  0.00  0.00    +0.000 A 
ATOM     25  C   UNL     1      -2.875  11.736  18.741  0.00  0.00    +0.000 A 
ATOM     26  C   UNL     1      -3.884  11.251  17.901  0.00  0.00    +0.000 A 
ATOM     27  C   UNL     1      -3.596  10.288  16.938  0.00  0.00    +0.000 A 
ATOM     28  C   UNL     1      -2.315   9.768  16.848  0.00  0.00    +0.000 A 
ATOM     29  C   UNL     1      -1.322  10.210  17.722  0.00  0.00    +0.000 A 
ENDBRANCH  23  24
ENDBRANCH   5  19
TORSDOF 4
ENDMDL
MODEL 7
REMARK VINA RESULT:      -8.4      2.219      4.061
REMARK  Name = 
REMARK  5 active torsions:
REMARK  status: ('A' for Active; 'I' for Inactive)
REMARK    1  A    between atoms: C_1  and  C_2
REMARK    2  A    between atoms: C_4  and  N_5
REMARK    3  A    between atoms: C_9  and  C_11
REMARK    4  A    between atoms: C_15  and  N_16
REMARK    5  A    between atoms: C_20  and  C_21
REMARK                            x       y       z     vdW  Elec       q    Type
REMARK                         _______ _______ _______ _____ _____    ______ ____
ROOT
ATOM      1  C   UNL     1       0.579   9.691  19.580  0.00  0.00    +0.000 A 
ATOM      2  C   UNL     1       0.362   9.257  20.894  0.00  0.00    +0.000 A 
ATOM      3  C   UNL     1       1.050   8.163  21.419  0.00  0.00    +0.000 A 
ATOM      4  C   UNL     1       1.892   7.417  20.605  0.00  0.00    +0.000 A 
ATOM      5  C   UNL     1       2.092   7.802  19.273  0.00  0.00    +0.000 A 
ATOM      6  C   UNL     1       1.441   8.940  18.764  0.00  0.00    +0.000 A 
ENDROOT
BRANCH   1  14
ATOM      7  C   UNL     1       0.030  13.048  21.806  0.00  0.00    +0.000 C 
ATOM      8  C   UNL     1       0.791  12.653  20.533  0.00  0.00    +0.000 C 
ATOM      9  C   UNL     1       1.633  13.807  19.972  0.00  0.00    +0.000 C 
ATOM     10  C   UNL     1       0.763  14.900  19.354  0.00  0.00    +0.000 C 
ATOM     11  C   UNL     1      -0.163  14.301  18.291  0.00  0.00    +0.000 C 
ATOM     12  C   UNL     1      -0.984  13.149  18.868  0.00  0.00    +0.000 C 
ATOM     13  N   UNL     1      -0.127  12.138  19.501  0.00  0.00    +0.000 N 
ATOM     14  C   UNL     1      -0.141  10.842  18.954  0.00  0.00    +0.000 C 
ATOM     15  O   UNL     1      -0.760  10.597  17.914  0.00  0.00    +0.000 OA
BRANCH  10  16
ATOM     16  N   UNL     1       1.604  15.948  18.773  0.00  0.00    +0.000 NA
ATOM     17  H   UNL     1       1.645  16.747  19.406  0.00  0.00    +0.000 HD
ATOM     18  H   UNL     1       1.177  16.294  17.914  0.00  0.00    +0.000 HD
ENDBRANCH  10  16
ENDBRANCH   1  14
BRANCH   5  19
ATOM     19  N   UNL     1       2.965   7.017  18.467  0.00  0.00    +0.000 N 
ATOM     20  N   UNL     1       3.628   7.633  17.447  0.00  0.00    +0.000 NA
ATOM     21  C   UNL     1       4.530   6.738  17.055  0.00  0.00    +0.000 A 
ATOM     22  C   UNL     1       4.367   5.503  17.695  0.00  0.00    +0.000 A 
ATOM     23  C   UNL     1       3.284   5.660  18.554  0.00  0.00    +0.000 A 
BRANCH  23  24
ATOM     24  C   UNL     1       2.553   4.634  19.323  0.00  0.00    +0.000 A 
ATOM     25  C   UNL     1       1.458   3.967  18.745  0.00  0.00    +0.000 A 
ATOM     26  C   UNL     1       0.776   2.975  19.459  0.00  0.00    +0.000 A 
ATOM     27  C   UNL     1       1.190   2.617  20.739  0.00  0.00    +0.000 A 
ATOM     28  C   UNL     1       2.251   3.287  21.330  0.00  0.00    +0.000 A 
ATOM     29  C   UNL     1       2.896   4.314  20.641  0.00  0.00    +0.000 A 
ENDBRANCH  23  24
ENDBRANCH   5  19
TORSDOF 4
ENDMDL
MODEL 8
REMARK VINA RESULT:      -8.3      2.064      2.888
REMARK  Name = 
REMARK  5 active torsions:
REMARK  status: ('A' for Active; 'I' for Inactive)
REMARK    1  A    between atoms: C_1  and  C_2
REMARK    2  A    between atoms: C_4  and  N_5
REMARK    3  A    between atoms: C_9  and  C_11
REMARK    4  A    between atoms: C_15  and  N_16
REMARK    5  A    between atoms: C_20  and  C_21
REMARK                            x       y       z     vdW  Elec       q    Type
REMARK                         _______ _______ _______ _____ _____    ______ ____
ROOT
ATOM      1  C   UNL     1       1.877   8.457  19.120  0.00  0.00    +0.000 A 
ATOM      2  C   UNL     1       1.495   8.213  20.445  0.00  0.00    +0.000 A 
ATOM      3  C   UNL     1       1.676   6.961  21.033  0.00  0.00    +0.000 A 
ATOM      4  C   UNL     1       2.148   5.899  20.273  0.00  0.00    +0.000 A 
ATOM      5  C   UNL     1       2.495   6.105  18.931  0.00  0.00    +0.000 A 
ATOM      6  C   UNL     1       2.365   7.382  18.358  0.00  0.00    +0.000 A 
ENDROOT
BRANCH   1  14
ATOM      7  C   UNL     1      -0.868  11.049  20.627  0.00  0.00    +0.000 C 
ATOM      8  C   UNL     1       0.654  11.006  20.437  0.00  0.00    +0.000 C 
ATOM      9  C   UNL     1       1.354  12.236  21.031  0.00  0.00    +0.000 C 
ATOM     10  C   UNL     1       1.084  13.497  20.211  0.00  0.00    +0.000 C 
ATOM     11  C   UNL     1       1.476  13.270  18.747  0.00  0.00    +0.000 C 
ATOM     12  C   UNL     1       0.775  12.036  18.180  0.00  0.00    +0.000 C 
ATOM     13  N   UNL     1       1.009  10.850  19.014  0.00  0.00    +0.000 N 
ATOM     14  C   UNL     1       1.691   9.769  18.428  0.00  0.00    +0.000 C 
ATOM     15  O   UNL     1       2.176   9.862  17.295  0.00  0.00    +0.000 OA
BRANCH  10  16
ATOM     16  N   UNL     1       1.820  14.631  20.771  0.00  0.00    +0.000 NA
ATOM     17  H   UNL     1       2.247  15.170  20.017  0.00  0.00    +0.000 HD
ATOM     18  H   UNL     1       2.593  14.290  21.343  0.00  0.00    +0.000 HD
ENDBRANCH  10  16
ENDBRANCH   1  14
BRANCH   5  19
ATOM     19  N   UNL     1       2.978   4.994  18.182  0.00  0.00    +0.000 N 
ATOM     20  N   UNL     1       2.129   3.952  17.955  0.00  0.00    +0.000 NA
ATOM     21  C   UNL     1       2.754   3.212  17.044  0.00  0.00    +0.000 A 
ATOM     22  C   UNL     1       4.052   3.670  16.787  0.00  0.00    +0.000 A 
ATOM     23  C   UNL     1       4.230   4.784  17.601  0.00  0.00    +0.000 A 
BRANCH  23  24
ATOM     24  C   UNL     1       5.467   5.538  17.882  0.00  0.00    +0.000 A 
ATOM     25  C   UNL     1       6.310   5.142  18.937  0.00  0.00    +0.000 A 
ATOM     26  C   UNL     1       7.496   5.837  19.194  0.00  0.00    +0.000 A 
ATOM     27  C   UNL     1       7.871   6.912  18.393  0.00  0.00    +0.000 A 
ATOM     28  C   UNL     1       7.036   7.330  17.370  0.00  0.00    +0.000 A 
ATOM     29  C   UNL     1       5.826   6.672  17.147  0.00  0.00    +0.000 A 
ENDBRANCH  23  24
ENDBRANCH   5  19
TORSDOF 4
ENDMDL
MODEL 9
REMARK VINA RESULT:      -8.3      2.133      8.099
REMARK  Name = 
REMARK  5 active torsions:
REMARK  status: ('A' for Active; 'I' for Inactive)
REMARK    1  A    between atoms: C_1  and  C_2
REMARK    2  A    between atoms: C_4  and  N_5
REMARK    3  A    between atoms: C_9  and  C_11
REMARK    4  A    between atoms: C_15  and  N_16
REMARK    5  A    between atoms: C_20  and  C_21
REMARK                            x       y       z     vdW  Elec       q    Type
REMARK                         _______ _______ _______ _____ _____    ______ ____
ROOT
ATOM      1  C   UNL     1       1.836   7.862  19.799  0.00  0.00    +0.000 A 
ATOM      2  C   UNL     1       1.683   7.923  21.190  0.00  0.00    +0.000 A 
ATOM      3  C   UNL     1       0.832   8.854  21.786  0.00  0.00    +0.000 A 
ATOM      4  C   UNL     1       0.196   9.811  21.006  0.00  0.00    +0.000 A 
ATOM      5  C   UNL     1       0.368   9.801  19.616  0.00  0.00    +0.000 A 
ATOM      6  C   UNL     1       1.181   8.825  19.014  0.00  0.00    +0.000 A 
ENDROOT
BRANCH   1  14
ATOM      7  C   UNL     1       2.427   4.211  21.488  0.00  0.00    +0.000 C 
ATOM      8  C   UNL     1       1.804   4.769  20.201  0.00  0.00    +0.000 C 
ATOM      9  C   UNL     1       1.167   3.673  19.336  0.00  0.00    +0.000 C 
ATOM     10  C   UNL     1       2.219   2.780  18.680  0.00  0.00    +0.000 C 
ATOM     11  C   UNL     1       3.211   3.631  17.881  0.00  0.00    +0.000 C 
ATOM     12  C   UNL     1       3.826   4.721  18.758  0.00  0.00    +0.000 C 
ATOM     13  N   UNL     1       2.793   5.531  19.417  0.00  0.00    +0.000 N 
ATOM     14  C   UNL     1       2.746   6.901  19.103  0.00  0.00    +0.000 C 
ATOM     15  O   UNL     1       3.470   7.377  18.222  0.00  0.00    +0.000 OA
BRANCH  10  16
ATOM     16  N   UNL     1       1.574   1.792  17.813  0.00  0.00    +0.000 NA
ATOM     17  H   UNL     1       2.263   1.394  17.173  0.00  0.00    +0.000 HD
ATOM     18  H   UNL     1       0.880   2.253  17.224  0.00  0.00    +0.000 HD
ENDBRANCH  10  16
ENDBRANCH   1  14
BRANCH   5  19
ATOM     19  N   UNL     1      -0.302  10.795  18.846  0.00  0.00    +0.000 N 
ATOM     20  N   UNL     1      -1.362  10.410  18.080  0.00  0.00    +0.000 NA
ATOM     21  C   UNL     1      -1.922  11.553  17.697  0.00  0.00    +0.000 A 
ATOM     22  C   UNL     1      -1.163  12.669  18.072  0.00  0.00    +0.000 A 
ATOM     23  C   UNL     1      -0.055  12.166  18.746  0.00  0.00    +0.000 A 
BRANCH  23  24
ATOM     24  C   UNL     1       1.163  12.873  19.185  0.00  0.00    +0.000 A 
ATOM     25  C   UNL     1       2.176  13.176  18.257  0.00  0.00    +0.000 A 
ATOM     26  C   UNL     1       3.323  13.869  18.661  0.00  0.00    +0.000 A 
ATOM     27  C   UNL     1       3.464  14.289  19.981  0.00  0.00    +0.000 A 
ATOM     28  C   UNL     1       2.486  13.972  20.910  0.00  0.00    +0.000 A 
ATOM     29  C   UNL     1       1.369  13.234  20.521  0.00  0.00    +0.000 A 
ENDBRANCH  23  24
ENDBRANCH   5  19
TORSDOF 4
ENDMDL
