MODEL 1
REMARK VINA RESULT:      -9.2      0.000      0.000
REMARK  Name = 
REMARK  3 active torsions:
REMARK  status: ('A' for Active; 'I' for Inactive)
REMARK    1  A    between atoms: C_2  and  C_14
REMARK    2  A    between atoms: N_3  and  C_4
REMARK    3  A    between atoms: C_20  and  N_21
REMARK                            x       y       z     vdW  Elec       q    Type
REMARK                         _______ _______ _______ _____ _____    ______ ____
ROOT
ATOM      1  O   UNL     1       3.343   6.341  19.559  0.00  0.00    +0.000 OA
ATOM      2  C   UNL     1       3.311   6.726  18.391  0.00  0.00    +0.000 C 
ATOM      3  N   UNL     1       2.609   7.816  17.908  0.00  0.00    +0.000 N 
ATOM      4  H   UNL     1       2.574   7.934  16.903  0.00  0.00    +0.000 HD
ENDROOT
BRANCH   3   5
ATOM      5  C   UNL     1       1.841   8.710  18.700  0.00  0.00    +0.000 A 
ATOM      6  C   UNL     1       1.405   9.966  18.203  0.00  0.00    +0.000 A 
ATOM      7  C   UNL     1       0.683  10.872  18.987  0.00  0.00    +0.000 A 
ATOM      8  C   UNL     1       0.404  10.476  20.266  0.00  0.00    +0.000 A 
ATOM      9  N   UNL     1      -0.276  11.159  21.264  0.00  0.00    +0.000 N 
ATOM     10  C   UNL     1      -0.306  10.358  22.411  0.00  0.00    +0.000 A 
ATOM     11  O   UNL     1      -0.814  10.641  23.482  0.00  0.00    +0.000 OA
ATOM     12  N   UNL     1       0.366   9.169  22.089  0.00  0.00    +0.000 N 
ATOM     13  C   UNL     1       0.801   9.241  20.768  0.00  0.00    +0.000 A 
ATOM     14  C   UNL     1       1.513   8.331  20.010  0.00  0.00    +0.000 A 
ATOM     15  H   UNL     1      -0.678  12.082  21.208  0.00  0.00    +0.000 HD
ATOM     16  H   UNL     1       0.502   8.414  22.743  0.00  0.00    +0.000 HD
ENDBRANCH   3   5
BRANCH   2  17
ATOM     17  C   UNL     1       4.061   5.896  17.421  0.00  0.00    +0.000 A 
ATOM     18  C   UNL     1       4.876   6.604  16.518  0.00  0.00    +0.000 A 
ATOM     19  C   UNL     1       5.581   5.938  15.520  0.00  0.00    +0.000 A 
ATOM     20  C   UNL     1       5.479   4.555  15.424  0.00  0.00    +0.000 A 
ATOM     21 CL   UNL     1       6.293   3.736  14.149  0.00  0.00    +0.000 Cl
ATOM     22  C   UNL     1       4.700   3.833  16.333  0.00  0.00    +0.000 A 
ATOM     23  C   UNL     1       3.974   4.497  17.337  0.00  0.00    +0.000 A 
BRANCH  23  24
ATOM     24  N   UNL     1       3.144   3.751  18.203  0.00  0.00    +0.000 N 
ATOM     25  C   UNL     1       1.837   3.313  17.763  0.00  0.00    +0.000 C 
ATOM     26  C   UNL     1       1.298   2.579  18.976  0.00  0.00    +0.000 C 
ATOM     27  C   UNL     1       2.542   1.951  19.593  0.00  0.00    +0.000 C 
ATOM     28  C   UNL     1       3.647   2.895  19.186  0.00  0.00    +0.000 C 
ATOM     29  O   UNL     1       4.774   2.895  19.654  0.00  0.00    +0.000 OA
ENDBRANCH  23  24
ENDBRANCH   2  17
TORSDOF 3
ENDMDL
MODEL 2
REMARK VINA RESULT:      -9.1      0.853      1.254
REMARK  Name = 
REMARK  3 active torsions:
REMARK  status: ('A' for Active; 'I' for Inactive)
REMARK    1  A    between atoms: C_2  and  C_14
REMARK    2  A    between atoms: N_3  and  C_4
REMARK    3  A    between atoms: C_20  and  N_21
REMARK                            x       y       z     vdW  Elec       q    Type
REMARK                         _______ _______ _______ _____ _____    ______ ____
ROOT
ATOM      1  O   UNL     1       3.753   6.285  19.454  0.00  0.00    +0.000 OA
ATOM      2  C   UNL     1       3.495   6.548  18.281  0.00  0.00    +0.000 C 
ATOM      3  N   UNL     1       2.592   7.496  17.834  0.00  0.00    +0.000 N 
ATOM      4  H   UNL     1       2.390   7.510  16.842  0.00  0.00    +0.000 HD
ENDROOT
BRANCH   3   5
ATOM      5  C   UNL     1       1.841   8.368  18.667  0.00  0.00    +0.000 A 
ATOM      6  C   UNL     1       1.217   9.536  18.160  0.00  0.00    +0.000 A 
ATOM      7  C   UNL     1       0.510  10.424  18.979  0.00  0.00    +0.000 A 
ATOM      8  C   UNL     1       0.439  10.096  20.304  0.00  0.00    +0.000 A 
ATOM      9  N   UNL     1      -0.176  10.781  21.342  0.00  0.00    +0.000 N 
ATOM     10  C   UNL     1       0.024  10.066  22.529  0.00  0.00    +0.000 A 
ATOM     11  O   UNL     1      -0.371  10.376  23.639  0.00  0.00    +0.000 OA
ATOM     12  N   UNL     1       0.769   8.926  22.190  0.00  0.00    +0.000 N 
ATOM     13  C   UNL     1       1.023   8.944  20.820  0.00  0.00    +0.000 A 
ATOM     14  C   UNL     1       1.724   8.054  20.029  0.00  0.00    +0.000 A 
ATOM     15  H   UNL     1      -0.676  11.654  21.286  0.00  0.00    +0.000 HD
ATOM     16  H   UNL     1       1.066   8.237  22.863  0.00  0.00    +0.000 HD
ENDBRANCH   3   5
BRANCH   2  17
ATOM     17  C   UNL     1       4.192   5.721  17.270  0.00  0.00    +0.000 A 
ATOM     18  C   UNL     1       5.019   6.425  16.374  0.00  0.00    +0.000 A 
ATOM     19  C   UNL     1       5.678   5.763  15.341  0.00  0.00    +0.000 A 
ATOM     20  C   UNL     1       5.517   4.390  15.203  0.00  0.00    +0.000 A 
ATOM     21 CL   UNL     1       6.272   3.580  13.886  0.00  0.00    +0.000 Cl
ATOM     22  C   UNL     1       4.725   3.670  16.103  0.00  0.00    +0.000 A 
ATOM     23  C   UNL     1       4.046   4.331  17.141  0.00  0.00    +0.000 A 
BRANCH  23  24
ATOM     24  N   UNL     1       3.201   3.591  17.999  0.00  0.00    +0.000 N 
ATOM     25  C   UNL     1       3.684   3.133  19.283  0.00  0.00    +0.000 C 
ATOM     26  C   UNL     1       2.490   2.391  19.851  0.00  0.00    +0.000 C 
ATOM     27  C   UNL     1       1.296   3.174  19.318  0.00  0.00    +0.000 C 
ATOM     28  C   UNL     1       1.813   3.753  18.023  0.00  0.00    +0.000 C 
ATOM     29  O   UNL     1       1.117   4.264  17.160  0.00  0.00    +0.000 OA
ENDBRANCH  23  24
ENDBRANCH   2  17
TORSDOF 3
ENDMDL
MODEL 3
REMARK VINA RESULT:      -9.0      1.168      1.322
REMARK  Name = 
REMARK  3 active torsions:
REMARK  status: ('A' for Active; 'I' for Inactive)
REMARK    1  A    between atoms: C_2  and  C_14
REMARK    2  A    between atoms: N_3  and  C_4
REMARK    3  A    between atoms: C_20  and  N_21
REMARK                            x       y       z     vdW  Elec       q    Type
REMARK                         _______ _______ _______ _____ _____    ______ ____
ROOT
ATOM      1  O   UNL     1       5.107   7.441  18.092  0.00  0.00    +0.000 OA
ATOM      2  C   UNL     1       4.270   6.811  17.448  0.00  0.00    +0.000 C 
ATOM      3  N   UNL     1       2.896   6.906  17.578  0.00  0.00    +0.000 N 
ATOM      4  H   UNL     1       2.337   6.230  17.071  0.00  0.00    +0.000 HD
ENDROOT
BRANCH   3   5
ATOM      5  C   UNL     1       2.216   7.794  18.452  0.00  0.00    +0.000 A 
ATOM      6  C   UNL     1       1.613   8.990  17.985  0.00  0.00    +0.000 A 
ATOM      7  C   UNL     1       0.976   9.893  18.844  0.00  0.00    +0.000 A 
ATOM      8  C   UNL     1       0.953   9.554  20.168  0.00  0.00    +0.000 A 
ATOM      9  N   UNL     1       0.411  10.249  21.239  0.00  0.00    +0.000 N 
ATOM     10  C   UNL     1       0.638   9.513  22.409  0.00  0.00    +0.000 A 
ATOM     11  O   UNL     1       0.305   9.825  23.538  0.00  0.00    +0.000 OA
ATOM     12  N   UNL     1       1.325   8.352  22.026  0.00  0.00    +0.000 N 
ATOM     13  C   UNL     1       1.517   8.375  20.646  0.00  0.00    +0.000 A 
ATOM     14  C   UNL     1       2.149   7.470  19.815  0.00  0.00    +0.000 A 
ATOM     15  H   UNL     1      -0.059  11.140  21.214  0.00  0.00    +0.000 HD
ATOM     16  H   UNL     1       1.626   7.645  22.678  0.00  0.00    +0.000 HD
ENDBRANCH   3   5
BRANCH   2  17
ATOM     17  C   UNL     1       4.811   5.825  16.485  0.00  0.00    +0.000 A 
ATOM     18  C   UNL     1       5.368   6.365  15.310  0.00  0.00    +0.000 A 
ATOM     19  C   UNL     1       5.853   5.535  14.303  0.00  0.00    +0.000 A 
ATOM     20  C   UNL     1       5.787   4.157  14.469  0.00  0.00    +0.000 A 
ATOM     21 CL   UNL     1       6.320   3.127  13.198  0.00  0.00    +0.000 Cl
ATOM     22  C   UNL     1       5.267   3.604  15.644  0.00  0.00    +0.000 A 
ATOM     23  C   UNL     1       4.764   4.433  16.661  0.00  0.00    +0.000 A 
BRANCH  23  24
ATOM     24  N   UNL     1       4.184   3.849  17.809  0.00  0.00    +0.000 N 
ATOM     25  C   UNL     1       3.114   2.885  17.677  0.00  0.00    +0.000 C 
ATOM     26  C   UNL     1       2.790   2.536  19.117  0.00  0.00    +0.000 C 
ATOM     27  C   UNL     1       4.141   2.622  19.817  0.00  0.00    +0.000 C 
ATOM     28  C   UNL     1       4.894   3.639  18.995  0.00  0.00    +0.000 C 
ATOM     29  O   UNL     1       5.937   4.177  19.333  0.00  0.00    +0.000 OA
ENDBRANCH  23  24
ENDBRANCH   2  17
TORSDOF 3
ENDMDL
MODEL 4
REMARK VINA RESULT:      -8.9      1.205      1.919
REMARK  Name = 
REMARK  3 active torsions:
REMARK  status: ('A' for Active; 'I' for Inactive)
REMARK    1  A    between atoms: C_2  and  C_14
REMARK    2  A    between atoms: N_3  and  C_4
REMARK    3  A    between atoms: C_20  and  N_21
REMARK                            x       y       z     vdW  Elec       q    Type
REMARK                         _______ _______ _______ _____ _____    ______ ____
ROOT
ATOM      1  O   UNL     1       3.994   6.084  19.645  0.00  0.00    +0.000 OA
ATOM      2  C   UNL     1       3.605   6.359  18.511  0.00  0.00    +0.000 C 
ATOM      3  N   UNL     1       2.607   7.259  18.184  0.00  0.00    +0.000 N 
ATOM      4  H   UNL     1       2.306   7.285  17.217  0.00  0.00    +0.000 HD
ENDROOT
BRANCH   3   5
ATOM      5  C   UNL     1       1.893   8.062  19.112  0.00  0.00    +0.000 A 
ATOM      6  C   UNL     1       1.660   7.640  20.446  0.00  0.00    +0.000 A 
ATOM      7  C   UNL     1       0.923   8.405  21.357  0.00  0.00    +0.000 A 
ATOM      8  C   UNL     1       0.444   9.599  20.895  0.00  0.00    +0.000 A 
ATOM      9  N   UNL     1      -0.319  10.550  21.556  0.00  0.00    +0.000 N 
ATOM     10  C   UNL     1      -0.579  11.605  20.674  0.00  0.00    +0.000 A 
ATOM     11  O   UNL     1      -1.226  12.609  20.914  0.00  0.00    +0.000 OA
ATOM     12  N   UNL     1       0.047  11.279  19.461  0.00  0.00    +0.000 N 
ATOM     13  C   UNL     1       0.679  10.045  19.598  0.00  0.00    +0.000 A 
ATOM     14  C   UNL     1       1.405   9.306  18.684  0.00  0.00    +0.000 A 
ATOM     15  H   UNL     1      -0.656  10.510  22.505  0.00  0.00    +0.000 HD
ATOM     16  H   UNL     1       0.009  11.865  18.643  0.00  0.00    +0.000 HD
ENDBRANCH   3   5
BRANCH   2  17
ATOM     17  C   UNL     1       4.246   5.601  17.412  0.00  0.00    +0.000 A 
ATOM     18  C   UNL     1       5.123   6.340  16.596  0.00  0.00    +0.000 A 
ATOM     19  C   UNL     1       5.737   5.751  15.494  0.00  0.00    +0.000 A 
ATOM     20  C   UNL     1       5.480   4.417  15.206  0.00  0.00    +0.000 A 
ATOM     21 CL   UNL     1       6.182   3.706  13.804  0.00  0.00    +0.000 Cl
ATOM     22  C   UNL     1       4.637   3.660  16.025  0.00  0.00    +0.000 A 
ATOM     23  C   UNL     1       4.002   4.247  17.132  0.00  0.00    +0.000 A 
BRANCH  23  24
ATOM     24  N   UNL     1       3.104   3.479  17.906  0.00  0.00    +0.000 N 
ATOM     25  C   UNL     1       3.558   2.820  19.112  0.00  0.00    +0.000 C 
ATOM     26  C   UNL     1       2.310   2.116  19.606  0.00  0.00    +0.000 C 
ATOM     27  C   UNL     1       1.184   3.061  19.202  0.00  0.00    +0.000 C 
ATOM     28  C   UNL     1       1.736   3.755  17.980  0.00  0.00    +0.000 C 
ATOM     29  O   UNL     1       1.079   4.430  17.204  0.00  0.00    +0.000 OA
ENDBRANCH  23  24
ENDBRANCH   2  17
TORSDOF 3
ENDMDL
MODEL 5
REMARK VINA RESULT:      -8.9      1.154      1.687
REMARK  Name = 
REMARK  3 active torsions:
REMARK  status: ('A' for Active; 'I' for Inactive)
REMARK    1  A    between atoms: C_2  and  C_14
REMARK    2  A    between atoms: N_3  and  C_4
REMARK    3  A    between atoms: C_20  and  N_21
REMARK                            x       y       z     vdW  Elec       q    Type
REMARK                         _______ _______ _______ _____ _____    ______ ____
ROOT
ATOM      1  O   UNL     1       3.312   6.348  19.621  0.00  0.00    +0.000 OA
ATOM      2  C   UNL     1       3.235   6.717  18.450  0.00  0.00    +0.000 C 
ATOM      3  N   UNL     1       2.462   7.758  17.969  0.00  0.00    +0.000 N 
ATOM      4  H   UNL     1       2.400   7.862  16.964  0.00  0.00    +0.000 HD
ENDROOT
BRANCH   3   5
ATOM      5  C   UNL     1       1.657   8.615  18.766  0.00  0.00    +0.000 A 
ATOM      6  C   UNL     1       1.533   8.438  20.168  0.00  0.00    +0.000 A 
ATOM      7  C   UNL     1       0.711   9.252  20.956  0.00  0.00    +0.000 A 
ATOM      8  C   UNL     1       0.037  10.245  20.302  0.00  0.00    +0.000 A 
ATOM      9  N   UNL     1      -0.846  11.185  20.811  0.00  0.00    +0.000 N 
ATOM     10  C   UNL     1      -1.295  11.992  19.759  0.00  0.00    +0.000 A 
ATOM     11  O   UNL     1      -2.085  12.916  19.838  0.00  0.00    +0.000 OA
ATOM     12  N   UNL     1      -0.661  11.527  18.597  0.00  0.00    +0.000 N 
ATOM     13  C   UNL     1       0.161  10.452  18.931  0.00  0.00    +0.000 A 
ATOM     14  C   UNL     1       0.968   9.662  18.135  0.00  0.00    +0.000 A 
ATOM     15  H   UNL     1      -1.146  11.286  21.768  0.00  0.00    +0.000 HD
ATOM     16  H   UNL     1      -0.814  11.925  17.684  0.00  0.00    +0.000 HD
ENDBRANCH   3   5
BRANCH   2  17
ATOM     17  C   UNL     1       4.014   5.922  17.474  0.00  0.00    +0.000 A 
ATOM     18  C   UNL     1       4.817   6.664  16.588  0.00  0.00    +0.000 A 
ATOM     19  C   UNL     1       5.547   6.031  15.586  0.00  0.00    +0.000 A 
ATOM     20  C   UNL     1       5.482   4.648  15.469  0.00  0.00    +0.000 A 
ATOM     21 CL   UNL     1       6.327   3.868  14.189  0.00  0.00    +0.000 Cl
ATOM     22  C   UNL     1       4.716   3.892  16.362  0.00  0.00    +0.000 A 
ATOM     23  C   UNL     1       3.965   4.522  17.368  0.00  0.00    +0.000 A 
BRANCH  23  24
ATOM     24  N   UNL     1       3.148   3.742  18.217  0.00  0.00    +0.000 N 
ATOM     25  C   UNL     1       1.856   3.277  17.761  0.00  0.00    +0.000 C 
ATOM     26  C   UNL     1       1.327   2.511  18.958  0.00  0.00    +0.000 C 
ATOM     27  C   UNL     1       2.582   1.906  19.576  0.00  0.00    +0.000 C 
ATOM     28  C   UNL     1       3.665   2.885  19.192  0.00  0.00    +0.000 C 
ATOM     29  O   UNL     1       4.788   2.907  19.670  0.00  0.00    +0.000 OA
ENDBRANCH  23  24
ENDBRANCH   2  17
TORSDOF 3
ENDMDL
MODEL 6
REMARK VINA RESULT:      -8.6      1.653      2.156
REMARK  Name = 
REMARK  3 active torsions:
REMARK  status: ('A' for Active; 'I' for Inactive)
REMARK    1  A    between atoms: C_2  and  C_14
REMARK    2  A    between atoms: N_3  and  C_4
REMARK    3  A    between atoms: C_20  and  N_21
REMARK                            x       y       z     vdW  Elec       q    Type
REMARK                         _______ _______ _______ _____ _____    ______ ____
ROOT
ATOM      1  O   UNL     1       1.475   7.995  17.811  0.00  0.00    +0.000 OA
ATOM      2  C   UNL     1       2.235   7.438  18.601  0.00  0.00    +0.000 C 
ATOM      3  N   UNL     1       2.267   7.620  19.972  0.00  0.00    +0.000 N 
ATOM      4  H   UNL     1       3.033   7.191  20.477  0.00  0.00    +0.000 HD
ENDROOT
BRANCH   3   5
ATOM      5  C   UNL     1       1.384   8.454  20.707  0.00  0.00    +0.000 A 
ATOM      6  C   UNL     1       0.420   7.921  21.601  0.00  0.00    +0.000 A 
ATOM      7  C   UNL     1      -0.483   8.731  22.300  0.00  0.00    +0.000 A 
ATOM      8  C   UNL     1      -0.378  10.077  22.085  0.00  0.00    +0.000 A 
ATOM      9  N   UNL     1      -1.133  11.110  22.622  0.00  0.00    +0.000 N 
ATOM     10  C   UNL     1      -0.665  12.322  22.101  0.00  0.00    +0.000 A 
ATOM     11  O   UNL     1      -1.099  13.434  22.347  0.00  0.00    +0.000 OA
ATOM     12  N   UNL     1       0.396  12.006  21.240  0.00  0.00    +0.000 N 
ATOM     13  C   UNL     1       0.575  10.624  21.231  0.00  0.00    +0.000 A 
ATOM     14  C   UNL     1       1.476   9.843  20.534  0.00  0.00    +0.000 A 
ATOM     15  H   UNL     1      -1.904  11.031  23.267  0.00  0.00    +0.000 HD
ATOM     16  H   UNL     1       0.912  12.697  20.718  0.00  0.00    +0.000 HD
ENDBRANCH   3   5
BRANCH   2  17
ATOM     17  C   UNL     1       3.236   6.529  17.997  0.00  0.00    +0.000 A 
ATOM     18  C   UNL     1       4.270   7.156  17.277  0.00  0.00    +0.000 A 
ATOM     19  C   UNL     1       5.235   6.403  16.613  0.00  0.00    +0.000 A 
ATOM     20  C   UNL     1       5.172   5.016  16.671  0.00  0.00    +0.000 A 
ATOM     21 CL   UNL     1       6.320   4.082  15.793  0.00  0.00    +0.000 Cl
ATOM     22  C   UNL     1       4.170   4.378  17.408  0.00  0.00    +0.000 A 
ATOM     23  C   UNL     1       3.185   5.128  18.072  0.00  0.00    +0.000 A 
BRANCH  23  24
ATOM     24  N   UNL     1       2.146   4.458  18.756  0.00  0.00    +0.000 N 
ATOM     25  C   UNL     1       1.401   3.404  18.102  0.00  0.00    +0.000 C 
ATOM     26  C   UNL     1       0.403   2.983  19.164  0.00  0.00    +0.000 C 
ATOM     27  C   UNL     1       1.170   3.170  20.468  0.00  0.00    +0.000 C 
ATOM     28  C   UNL     1       2.142   4.278  20.142  0.00  0.00    +0.000 C 
ATOM     29  O   UNL     1       2.796   4.898  20.966  0.00  0.00    +0.000 OA
ENDBRANCH  23  24
ENDBRANCH   2  17
TORSDOF 3
ENDMDL
MODEL 7
REMARK VINA RESULT:      -8.5      2.476      2.908
REMARK  Name = 
REMARK  3 active torsions:
REMARK  status: ('A' for Active; 'I' for Inactive)
REMARK    1  A    between atoms: C_2  and  C_14
REMARK    2  A    between atoms: N_3  and  C_4
REMARK    3  A    between atoms: C_20  and  N_21
REMARK                            x       y       z     vdW  Elec       q    Type
REMARK                         _______ _______ _______ _____ _____    ______ ____
ROOT
ATOM      1  O   UNL     1       1.551   6.378  17.663  0.00  0.00    +0.000 OA
ATOM      2  C   UNL     1       2.493   6.954  18.204  0.00  0.00    +0.000 C 
ATOM      3  N   UNL     1       2.451   8.194  18.816  0.00  0.00    +0.000 N 
ATOM      4  H   UNL     1       3.334   8.598  19.103  0.00  0.00    +0.000 HD
ENDROOT
BRANCH   3   5
ATOM      5  C   UNL     1       1.287   8.993  18.967  0.00  0.00    +0.000 A 
ATOM      6  C   UNL     1       0.838   9.432  20.239  0.00  0.00    +0.000 A 
ATOM      7  C   UNL     1      -0.330  10.185  20.402  0.00  0.00    +0.000 A 
ATOM      8  C   UNL     1      -1.017  10.491  19.261  0.00  0.00    +0.000 A 
ATOM      9  N   UNL     1      -2.197  11.205  19.115  0.00  0.00    +0.000 N 
ATOM     10  C   UNL     1      -2.524  11.254  17.754  0.00  0.00    +0.000 A 
ATOM     11  O   UNL     1      -3.499  11.792  17.261  0.00  0.00    +0.000 OA
ATOM     12  N   UNL     1      -1.513  10.560  17.073  0.00  0.00    +0.000 N 
ATOM     13  C   UNL     1      -0.583  10.092  18.000  0.00  0.00    +0.000 A 
ATOM     14  C   UNL     1       0.567   9.350  17.816  0.00  0.00    +0.000 A 
ATOM     15  H   UNL     1      -2.756  11.616  19.845  0.00  0.00    +0.000 HD
ATOM     16  H   UNL     1      -1.505  10.431  16.074  0.00  0.00    +0.000 HD
ENDBRANCH   3   5
BRANCH   2  17
ATOM     17  C   UNL     1       3.797   6.257  18.134  0.00  0.00    +0.000 A 
ATOM     18  C   UNL     1       4.816   6.940  17.443  0.00  0.00    +0.000 A 
ATOM     19  C   UNL     1       6.067   6.359  17.258  0.00  0.00    +0.000 A 
ATOM     20  C   UNL     1       6.308   5.090  17.770  0.00  0.00    +0.000 A 
ATOM     21 CL   UNL     1       7.829   4.339  17.483  0.00  0.00    +0.000 Cl
ATOM     22  C   UNL     1       5.318   4.410  18.487  0.00  0.00    +0.000 A 
ATOM     23  C   UNL     1       4.048   4.983  18.668  0.00  0.00    +0.000 A 
BRANCH  23  24
ATOM     24  N   UNL     1       3.045   4.250  19.341  0.00  0.00    +0.000 N 
ATOM     25  C   UNL     1       2.537   4.707  20.616  0.00  0.00    +0.000 C 
ATOM     26  C   UNL     1       1.515   3.646  20.975  0.00  0.00    +0.000 C 
ATOM     27  C   UNL     1       0.943   3.229  19.626  0.00  0.00    +0.000 C 
ATOM     28  C   UNL     1       2.084   3.487  18.671  0.00  0.00    +0.000 C 
ATOM     29  O   UNL     1       2.138   3.082  17.521  0.00  0.00    +0.000 OA
ENDBRANCH  23  24
ENDBRANCH   2  17
TORSDOF 3
ENDMDL
MODEL 8
REMARK VINA RESULT:      -8.4      1.946      2.154
REMARK  Name = 
REMARK  3 active torsions:
REMARK  status: ('A' for Active; 'I' for Inactive)
REMARK    1  A    between atoms: C_2  and  C_14
REMARK    2  A    between atoms: N_3  and  C_4
REMARK    3  A    between atoms: C_20  and  N_21
REMARK                            x       y       z     vdW  Elec       q    Type
REMARK                         _______ _______ _______ _____ _____    ______ ____
ROOT
ATOM      1  O   UNL     1       2.692   7.101  19.350  0.00  0.00    +0.000 OA
ATOM      2  C   UNL     1       2.922   7.358  18.170  0.00  0.00    +0.000 C 
ATOM      3  N   UNL     1       2.444   8.446  17.461  0.00  0.00    +0.000 N 
ATOM      4  H   UNL     1       2.612   8.457  16.462  0.00  0.00    +0.000 HD
ENDROOT
BRANCH   3   5
ATOM      5  C   UNL     1       1.638   9.483  17.999  0.00  0.00    +0.000 A 
ATOM      6  C   UNL     1       0.252   9.307  18.243  0.00  0.00    +0.000 A 
ATOM      7  C   UNL     1      -0.560  10.335  18.736  0.00  0.00    +0.000 A 
ATOM      8  C   UNL     1       0.060  11.528  18.985  0.00  0.00    +0.000 A 
ATOM      9  N   UNL     1      -0.482  12.713  19.459  0.00  0.00    +0.000 N 
ATOM     10  C   UNL     1       0.538  13.668  19.544  0.00  0.00    +0.000 A 
ATOM     11  O   UNL     1       0.423  14.823  19.915  0.00  0.00    +0.000 OA
ATOM     12  N   UNL     1       1.716  13.036  19.118  0.00  0.00    +0.000 N 
ATOM     13  C   UNL     1       1.423  11.718  18.775  0.00  0.00    +0.000 A 
ATOM     14  C   UNL     1       2.242  10.716  18.292  0.00  0.00    +0.000 A 
ATOM     15  H   UNL     1      -1.445  12.892  19.695  0.00  0.00    +0.000 HD
ATOM     16  H   UNL     1       2.609  13.501  19.069  0.00  0.00    +0.000 HD
ENDBRANCH   3   5
BRANCH   2  17
ATOM     17  C   UNL     1       3.751   6.368  17.447  0.00  0.00    +0.000 A 
ATOM     18  C   UNL     1       4.657   6.900  16.510  0.00  0.00    +0.000 A 
ATOM     19  C   UNL     1       5.446   6.064  15.725  0.00  0.00    +0.000 A 
ATOM     20  C   UNL     1       5.337   4.687  15.878  0.00  0.00    +0.000 A 
ATOM     21 CL   UNL     1       6.258   3.649  14.861  0.00  0.00    +0.000 Cl
ATOM     22  C   UNL     1       4.466   4.142  16.827  0.00  0.00    +0.000 A 
ATOM     23  C   UNL     1       3.656   4.977  17.615  0.00  0.00    +0.000 A 
BRANCH  23  24
ATOM     24  N   UNL     1       2.738   4.400  18.521  0.00  0.00    +0.000 N 
ATOM     25  C   UNL     1       1.417   4.013  18.075  0.00  0.00    +0.000 C 
ATOM     26  C   UNL     1       0.778   3.466  19.337  0.00  0.00    +0.000 C 
ATOM     27  C   UNL     1       1.944   2.822  20.077  0.00  0.00    +0.000 C 
ATOM     28  C   UNL     1       3.135   3.628  19.616  0.00  0.00    +0.000 C 
ATOM     29  O   UNL     1       4.241   3.597  20.132  0.00  0.00    +0.000 OA
ENDBRANCH  23  24
ENDBRANCH   2  17
TORSDOF 3
ENDMDL
MODEL 9
REMARK VINA RESULT:      -8.3      1.498      2.124
REMARK  Name = 
REMARK  3 active torsions:
REMARK  status: ('A' for Active; 'I' for Inactive)
REMARK    1  A    between atoms: C_2  and  C_14
REMARK    2  A    between atoms: N_3  and  C_4
REMARK    3  A    between atoms: C_20  and  N_21
REMARK                            x       y       z     vdW  Elec       q    Type
REMARK                         _______ _______ _______ _____ _____    ______ ____
ROOT
ATOM      1  O   UNL     1       5.117   6.990  18.486  0.00  0.00    +0.000 OA
ATOM      2  C   UNL     1       4.279   6.536  17.709  0.00  0.00    +0.000 C 
ATOM      3  N   UNL     1       2.913   6.748  17.764  0.00  0.00    +0.000 N 
ATOM      4  H   UNL     1       2.335   6.205  17.134  0.00  0.00    +0.000 HD
ENDROOT
BRANCH   3   5
ATOM      5  C   UNL     1       2.251   7.576  18.709  0.00  0.00    +0.000 A 
ATOM      6  C   UNL     1       2.045   7.166  20.051  0.00  0.00    +0.000 A 
ATOM      7  C   UNL     1       1.358   7.957  20.979  0.00  0.00    +0.000 A 
ATOM      8  C   UNL     1       0.902   9.163  20.525  0.00  0.00    +0.000 A 
ATOM      9  N   UNL     1       0.188  10.139  21.204  0.00  0.00    +0.000 N 
ATOM     10  C   UNL     1      -0.067  11.199  20.324  0.00  0.00    +0.000 A 
ATOM     11  O   UNL     1      -0.676  12.223  20.578  0.00  0.00    +0.000 OA
ATOM     12  N   UNL     1       0.513  10.849  19.096  0.00  0.00    +0.000 N 
ATOM     13  C   UNL     1       1.112   9.596  19.220  0.00  0.00    +0.000 A 
ATOM     14  C   UNL     1       1.789   8.833  18.288  0.00  0.00    +0.000 A 
ATOM     15  H   UNL     1      -0.123  10.114  22.162  0.00  0.00    +0.000 HD
ATOM     16  H   UNL     1       0.470  11.432  18.276  0.00  0.00    +0.000 HD
ENDBRANCH   3   5
BRANCH   2  17
ATOM     17  C   UNL     1       4.801   5.638  16.655  0.00  0.00    +0.000 A 
ATOM     18  C   UNL     1       5.363   6.278  15.534  0.00  0.00    +0.000 A 
ATOM     19  C   UNL     1       5.831   5.540  14.450  0.00  0.00    +0.000 A 
ATOM     20  C   UNL     1       5.744   4.154  14.485  0.00  0.00    +0.000 A 
ATOM     21 CL   UNL     1       6.256   3.242  13.119  0.00  0.00    +0.000 Cl
ATOM     22  C   UNL     1       5.220   3.500  15.604  0.00  0.00    +0.000 A 
ATOM     23  C   UNL     1       4.733   4.236  16.698  0.00  0.00    +0.000 A 
BRANCH  23  24
ATOM     24  N   UNL     1       4.148   3.555  17.789  0.00  0.00    +0.000 N 
ATOM     25  C   UNL     1       4.832   3.493  19.062  0.00  0.00    +0.000 C 
ATOM     26  C   UNL     1       3.883   2.678  19.919  0.00  0.00    +0.000 C 
ATOM     27  C   UNL     1       2.506   3.079  19.406  0.00  0.00    +0.000 C 
ATOM     28  C   UNL     1       2.766   3.448  17.965  0.00  0.00    +0.000 C 
ATOM     29  O   UNL     1       1.902   3.612  17.119  0.00  0.00    +0.000 OA
ENDBRANCH  23  24
ENDBRANCH   2  17
TORSDOF 3
ENDMDL
