MODEL 1
REMARK VINA RESULT:      -8.6      0.000      0.000
REMARK  Name = 
REMARK  4 active torsions:
REMARK  status: ('A' for Active; 'I' for Inactive)
REMARK    1  A    between atoms: C_2  and  C_3
REMARK    2  A    between atoms: C_5  and  C_6
REMARK    3  A    between atoms: N_17  and  C_18
REMARK    4  A    between atoms: C_18  and  C_19
REMARK                            x       y       z     vdW  Elec       q    Type
REMARK                         _______ _______ _______ _____ _____    ______ ____
ROOT
ATOM      1  O   UNL     1       4.632   2.810  19.634  0.00  0.00    +0.000 OA
ATOM      2  C   UNL     1       4.739   3.913  19.096  0.00  0.00    +0.000 C 
ATOM      3  N   UNL     1       3.978   5.006  19.510  0.00  0.00    +0.000 N 
ATOM      4  C   UNL     1       3.213   4.915  20.752  0.00  0.00    +0.000 C 
ATOM      5  C   UNL     1       1.749   5.338  20.536  0.00  0.00    +0.000 C 
ATOM      6  N   UNL     1       1.584   6.672  19.911  0.00  0.00    +0.000 NA
ATOM      7  C   UNL     1       2.342   6.678  18.639  0.00  0.00    +0.000 C 
ATOM      8  C   UNL     1       3.825   6.260  18.761  0.00  0.00    +0.000 C 
ENDROOT
BRANCH   2   9
ATOM      9  C   UNL     1       5.659   4.091  17.957  0.00  0.00    +0.000 A 
ATOM     10  C   UNL     1       5.331   3.897  16.589  0.00  0.00    +0.000 A 
ATOM     11  C   UNL     1       6.462   4.230  15.870  0.00  0.00    +0.000 A 
ATOM     12  N   UNL     1       7.394   4.541  16.825  0.00  0.00    +0.000 N 
ATOM     13  N   UNL     1       6.951   4.447  18.087  0.00  0.00    +0.000 NA
ATOM     14  H   UNL     1       8.346   4.854  16.677  0.00  0.00    +0.000 HD
BRANCH  11  15
ATOM     15  C   UNL     1       6.713   4.322  14.438  0.00  0.00    +0.000 A 
ATOM     16  C   UNL     1       7.599   5.287  13.937  0.00  0.00    +0.000 A 
ATOM     17  C   UNL     1       7.866   5.366  12.568  0.00  0.00    +0.000 A 
ATOM     18  C   UNL     1       7.245   4.486  11.687  0.00  0.00    +0.000 A 
ATOM     19  C   UNL     1       6.355   3.530  12.168  0.00  0.00    +0.000 A 
ATOM     20  C   UNL     1       6.088   3.449  13.537  0.00  0.00    +0.000 A 
ENDBRANCH  11  15
ENDBRANCH   2   9
BRANCH   6  21
ATOM     21  C   UNL     1       2.037   7.784  20.766  0.00  0.00    +0.000 C 
BRANCH  21  22
ATOM     22  C   UNL     1       1.026   8.895  20.928  0.00  0.00    +0.000 A 
ATOM     23  C   UNL     1       0.502   9.559  19.794  0.00  0.00    +0.000 A 
ATOM     24  C   UNL     1      -0.437  10.585  19.935  0.00  0.00    +0.000 A 
ATOM     25  C   UNL     1      -0.841  10.914  21.210  0.00  0.00    +0.000 A 
ATOM     26  C   UNL     1      -0.338  10.272  22.317  0.00  0.00    +0.000 A 
ATOM     27  C   UNL     1       0.600   9.270  22.211  0.00  0.00    +0.000 A 
ATOM     28  O   UNL     1      -0.875  10.736  23.476  0.00  0.00    +0.000 OA
ATOM     29  C   UNL     1      -1.839  11.677  22.965  0.00  0.00    +0.000 C 
ATOM     30  O   UNL     1      -1.755  11.866  21.537  0.00  0.00    +0.000 OA
ENDBRANCH  21  22
ENDBRANCH   6  21
TORSDOF 4
ENDMDL
MODEL 2
REMARK VINA RESULT:      -8.5      0.610      1.566
REMARK  Name = 
REMARK  4 active torsions:
REMARK  status: ('A' for Active; 'I' for Inactive)
REMARK    1  A    between atoms: C_2  and  C_3
REMARK    2  A    between atoms: C_5  and  C_6
REMARK    3  A    between atoms: N_17  and  C_18
REMARK    4  A    between atoms: C_18  and  C_19
REMARK                            x       y       z     vdW  Elec       q    Type
REMARK                         _______ _______ _______ _____ _____    ______ ____
ROOT
ATOM      1  O   UNL     1       4.214   2.676  19.587  0.00  0.00    +0.000 OA
ATOM      2  C   UNL     1       4.417   3.804  19.137  0.00  0.00    +0.000 C 
ATOM      3  N   UNL     1       3.715   4.915  19.606  0.00  0.00    +0.000 N 
ATOM      4  C   UNL     1       2.896   4.788  20.810  0.00  0.00    +0.000 C 
ATOM      5  C   UNL     1       1.475   5.328  20.575  0.00  0.00    +0.000 C 
ATOM      6  N   UNL     1       1.425   6.712  20.047  0.00  0.00    +0.000 NA
ATOM      7  C   UNL     1       2.232   6.757  18.806  0.00  0.00    +0.000 C 
ATOM      8  C   UNL     1       3.677   6.228  18.948  0.00  0.00    +0.000 C 
ENDROOT
BRANCH   2   9
ATOM      9  C   UNL     1       5.391   3.999  18.049  0.00  0.00    +0.000 A 
ATOM     10  C   UNL     1       5.134   3.819  16.664  0.00  0.00    +0.000 A 
ATOM     11  C   UNL     1       6.297   4.165  16.006  0.00  0.00    +0.000 A 
ATOM     12  N   UNL     1       7.178   4.469  17.009  0.00  0.00    +0.000 N 
ATOM     13  N   UNL     1       6.674   4.359  18.246  0.00  0.00    +0.000 NA
ATOM     14  H   UNL     1       8.135   4.788  16.912  0.00  0.00    +0.000 HD
BRANCH  11  15
ATOM     15  C   UNL     1       6.619   4.274  14.589  0.00  0.00    +0.000 A 
ATOM     16  C   UNL     1       5.950   3.476  13.649  0.00  0.00    +0.000 A 
ATOM     17  C   UNL     1       6.233   3.591  12.287  0.00  0.00    +0.000 A 
ATOM     18  C   UNL     1       7.192   4.502  11.851  0.00  0.00    +0.000 A 
ATOM     19  C   UNL     1       7.871   5.293  12.772  0.00  0.00    +0.000 A 
ATOM     20  C   UNL     1       7.588   5.179  14.136  0.00  0.00    +0.000 A 
ENDBRANCH  11  15
ENDBRANCH   2   9
BRANCH   6  21
ATOM     21  C   UNL     1       1.918   7.724  20.997  0.00  0.00    +0.000 C 
BRANCH  21  22
ATOM     22  C   UNL     1       0.931   8.830  21.295  0.00  0.00    +0.000 A 
ATOM     23  C   UNL     1       0.524   9.089  22.624  0.00  0.00    +0.000 A 
ATOM     24  C   UNL     1      -0.385  10.112  22.909  0.00  0.00    +0.000 A 
ATOM     25  C   UNL     1      -0.855  10.863  21.854  0.00  0.00    +0.000 A 
ATOM     26  C   UNL     1      -0.462  10.620  20.559  0.00  0.00    +0.000 A 
ATOM     27  C   UNL     1       0.418   9.608  20.246  0.00  0.00    +0.000 A 
ATOM     28  O   UNL     1      -1.029  11.480  19.672  0.00  0.00    +0.000 OA
ATOM     29  C   UNL     1      -1.750  12.349  20.568  0.00  0.00    +0.000 C 
ATOM     30  O   UNL     1      -1.723  11.907  21.942  0.00  0.00    +0.000 OA
ENDBRANCH  21  22
ENDBRANCH   6  21
TORSDOF 4
ENDMDL
MODEL 3
REMARK VINA RESULT:      -7.6      4.177      5.945
REMARK  Name = 
REMARK  4 active torsions:
REMARK  status: ('A' for Active; 'I' for Inactive)
REMARK    1  A    between atoms: C_2  and  C_3
REMARK    2  A    between atoms: C_5  and  C_6
REMARK    3  A    between atoms: N_17  and  C_18
REMARK    4  A    between atoms: C_18  and  C_19
REMARK                            x       y       z     vdW  Elec       q    Type
REMARK                         _______ _______ _______ _____ _____    ______ ____
ROOT
ATOM      1  O   UNL     1       2.193   9.453  17.264  0.00  0.00    +0.000 OA
ATOM      2  C   UNL     1       1.731   9.095  18.348  0.00  0.00    +0.000 C 
ATOM      3  N   UNL     1       0.937   9.943  19.121  0.00  0.00    +0.000 N 
ATOM      4  C   UNL     1       0.446  11.190  18.538  0.00  0.00    +0.000 C 
ATOM      5  C   UNL     1       0.745  12.389  19.455  0.00  0.00    +0.000 C 
ATOM      6  N   UNL     1       0.261  12.230  20.848  0.00  0.00    +0.000 NA
ATOM      7  C   UNL     1       0.835  10.977  21.391  0.00  0.00    +0.000 C 
ATOM      8  C   UNL     1       0.585   9.719  20.529  0.00  0.00    +0.000 C 
ENDROOT
BRANCH   2   9
ATOM      9  C   UNL     1       2.047   7.756  18.878  0.00  0.00    +0.000 A 
ATOM     10  C   UNL     1       2.169   6.568  18.109  0.00  0.00    +0.000 A 
ATOM     11  C   UNL     1       2.528   5.571  18.994  0.00  0.00    +0.000 A 
ATOM     12  N   UNL     1       2.545   6.189  20.216  0.00  0.00    +0.000 N 
ATOM     13  N   UNL     1       2.239   7.494  20.184  0.00  0.00    +0.000 NA
ATOM     14  H   UNL     1       2.786   5.778  21.110  0.00  0.00    +0.000 HD
BRANCH  11  15
ATOM     15  C   UNL     1       2.885   4.173  18.792  0.00  0.00    +0.000 A 
ATOM     16  C   UNL     1       3.744   3.526  19.693  0.00  0.00    +0.000 A 
ATOM     17  C   UNL     1       4.071   2.179  19.522  0.00  0.00    +0.000 A 
ATOM     18  C   UNL     1       3.548   1.468  18.446  0.00  0.00    +0.000 A 
ATOM     19  C   UNL     1       2.703   2.098  17.539  0.00  0.00    +0.000 A 
ATOM     20  C   UNL     1       2.374   3.446  17.708  0.00  0.00    +0.000 A 
ENDBRANCH  11  15
ENDBRANCH   2   9
BRANCH   6  21
ATOM     21  C   UNL     1      -1.207  12.196  20.961  0.00  0.00    +0.000 C 
BRANCH  21  22
ATOM     22  C   UNL     1      -1.753  12.909  22.177  0.00  0.00    +0.000 A 
ATOM     23  C   UNL     1      -3.087  12.696  22.595  0.00  0.00    +0.000 A 
ATOM     24  C   UNL     1      -3.599  13.347  23.720  0.00  0.00    +0.000 A 
ATOM     25  C   UNL     1      -2.755  14.189  24.412  0.00  0.00    +0.000 A 
ATOM     26  C   UNL     1      -1.456  14.400  24.015  0.00  0.00    +0.000 A 
ATOM     27  C   UNL     1      -0.930  13.785  22.900  0.00  0.00    +0.000 A 
ATOM     28  O   UNL     1      -0.791  15.252  24.838  0.00  0.00    +0.000 OA
ATOM     29  C   UNL     1      -1.792  15.479  25.850  0.00  0.00    +0.000 C 
ATOM     30  O   UNL     1      -3.070  14.888  25.536  0.00  0.00    +0.000 OA
ENDBRANCH  21  22
ENDBRANCH   6  21
TORSDOF 4
ENDMDL
MODEL 4
REMARK VINA RESULT:      -7.5      4.209      6.797
REMARK  Name = 
REMARK  4 active torsions:
REMARK  status: ('A' for Active; 'I' for Inactive)
REMARK    1  A    between atoms: C_2  and  C_3
REMARK    2  A    between atoms: C_5  and  C_6
REMARK    3  A    between atoms: N_17  and  C_18
REMARK    4  A    between atoms: C_18  and  C_19
REMARK                            x       y       z     vdW  Elec       q    Type
REMARK                         _______ _______ _______ _____ _____    ______ ____
ROOT
ATOM      1  O   UNL     1       2.217  11.264  18.120  0.00  0.00    +0.000 OA
ATOM      2  C   UNL     1       1.363  10.572  18.676  0.00  0.00    +0.000 C 
ATOM      3  N   UNL     1       0.101  11.078  18.988  0.00  0.00    +0.000 N 
ATOM      4  C   UNL     1      -0.307  12.370  18.440  0.00  0.00    +0.000 C 
ATOM      5  C   UNL     1      -0.839  13.300  19.544  0.00  0.00    +0.000 C 
ATOM      6  N   UNL     1      -1.921  12.711  20.370  0.00  0.00    +0.000 NA
ATOM      7  C   UNL     1      -1.425  11.434  20.931  0.00  0.00    +0.000 C 
ATOM      8  C   UNL     1      -0.865  10.438  19.890  0.00  0.00    +0.000 C 
ENDROOT
BRANCH   2   9
ATOM      9  C   UNL     1       1.678   9.186  19.066  0.00  0.00    +0.000 A 
ATOM     10  C   UNL     1       2.077   8.147  18.184  0.00  0.00    +0.000 A 
ATOM     11  C   UNL     1       2.324   7.043  18.976  0.00  0.00    +0.000 A 
ATOM     12  N   UNL     1       2.012   7.455  20.244  0.00  0.00    +0.000 N 
ATOM     13  N   UNL     1       1.601   8.728  20.330  0.00  0.00    +0.000 NA
ATOM     14  H   UNL     1       2.087   6.920  21.101  0.00  0.00    +0.000 HD
BRANCH  11  15
ATOM     15  C   UNL     1       2.846   5.718  18.664  0.00  0.00    +0.000 A 
ATOM     16  C   UNL     1       2.115   4.846  17.844  0.00  0.00    +0.000 A 
ATOM     17  C   UNL     1       2.618   3.585  17.519  0.00  0.00    +0.000 A 
ATOM     18  C   UNL     1       3.855   3.181  18.014  0.00  0.00    +0.000 A 
ATOM     19  C   UNL     1       4.588   4.032  18.836  0.00  0.00    +0.000 A 
ATOM     20  C   UNL     1       4.085   5.294  19.162  0.00  0.00    +0.000 A 
ENDBRANCH  11  15
ENDBRANCH   2   9
BRANCH   6  21
ATOM     21  C   UNL     1      -3.170  12.476  19.625  0.00  0.00    +0.000 C 
BRANCH  21  22
ATOM     22  C   UNL     1      -4.420  12.529  20.473  0.00  0.00    +0.000 A 
ATOM     23  C   UNL     1      -5.663  12.109  19.946  0.00  0.00    +0.000 A 
ATOM     24  C   UNL     1      -6.823  12.151  20.725  0.00  0.00    +0.000 A 
ATOM     25  C   UNL     1      -6.707  12.600  22.022  0.00  0.00    +0.000 A 
ATOM     26  C   UNL     1      -5.502  13.008  22.543  0.00  0.00    +0.000 A 
ATOM     27  C   UNL     1      -4.346  12.994  21.795  0.00  0.00    +0.000 A 
ATOM     28  O   UNL     1      -5.602  13.401  23.841  0.00  0.00    +0.000 OA
ATOM     29  C   UNL     1      -6.988  13.105  24.102  0.00  0.00    +0.000 C 
ATOM     30  O   UNL     1      -7.718  12.690  22.928  0.00  0.00    +0.000 OA
ENDBRANCH  21  22
ENDBRANCH   6  21
TORSDOF 4
ENDMDL
MODEL 5
REMARK VINA RESULT:      -7.4      2.425     10.679
REMARK  Name = 
REMARK  4 active torsions:
REMARK  status: ('A' for Active; 'I' for Inactive)
REMARK    1  A    between atoms: C_2  and  C_3
REMARK    2  A    between atoms: C_5  and  C_6
REMARK    3  A    between atoms: N_17  and  C_18
REMARK    4  A    between atoms: C_18  and  C_19
REMARK                            x       y       z     vdW  Elec       q    Type
REMARK                         _______ _______ _______ _____ _____    ______ ____
ROOT
ATOM      1  O   UNL     1       0.788   9.875  18.206  0.00  0.00    +0.000 OA
ATOM      2  C   UNL     1       1.079   9.353  19.282  0.00  0.00    +0.000 C 
ATOM      3  N   UNL     1       1.899   8.226  19.351  0.00  0.00    +0.000 N 
ATOM      4  C   UNL     1       2.620   7.792  18.156  0.00  0.00    +0.000 C 
ATOM      5  C   UNL     1       2.398   6.294  17.885  0.00  0.00    +0.000 C 
ATOM      6  N   UNL     1       2.706   5.412  19.036  0.00  0.00    +0.000 NA
ATOM      7  C   UNL     1       1.908   5.876  20.194  0.00  0.00    +0.000 C 
ATOM      8  C   UNL     1       2.067   7.375  20.537  0.00  0.00    +0.000 C 
ENDROOT
BRANCH   2   9
ATOM      9  C   UNL     1       0.524   9.892  20.537  0.00  0.00    +0.000 A 
ATOM     10  C   UNL     1      -0.124  11.147  20.684  0.00  0.00    +0.000 A 
ATOM     11  C   UNL     1      -0.533  11.218  22.001  0.00  0.00    +0.000 A 
ATOM     12  N   UNL     1      -0.070  10.059  22.565  0.00  0.00    +0.000 N 
ATOM     13  N   UNL     1       0.587   9.252  21.720  0.00  0.00    +0.000 NA
ATOM     14  H   UNL     1      -0.196   9.746  23.521  0.00  0.00    +0.000 HD
BRANCH  11  15
ATOM     15  C   UNL     1      -1.322  12.208  22.723  0.00  0.00    +0.000 A 
ATOM     16  C   UNL     1      -2.587  11.872  23.226  0.00  0.00    +0.000 A 
ATOM     17  C   UNL     1      -3.340  12.806  23.942  0.00  0.00    +0.000 A 
ATOM     18  C   UNL     1      -2.837  14.086  24.157  0.00  0.00    +0.000 A 
ATOM     19  C   UNL     1      -1.587  14.436  23.656  0.00  0.00    +0.000 A 
ATOM     20  C   UNL     1      -0.832  13.503  22.940  0.00  0.00    +0.000 A 
ENDBRANCH  11  15
ENDBRANCH   2   9
BRANCH   6  21
ATOM     21  C   UNL     1       4.135   5.387  19.395  0.00  0.00    +0.000 C 
BRANCH  21  22
ATOM     22  C   UNL     1       5.073   5.428  18.211  0.00  0.00    +0.000 A 
ATOM     23  C   UNL     1       6.134   6.361  18.167  0.00  0.00    +0.000 A 
ATOM     24  C   UNL     1       7.009   6.403  17.078  0.00  0.00    +0.000 A 
ATOM     25  C   UNL     1       6.809   5.495  16.061  0.00  0.00    +0.000 A 
ATOM     26  C   UNL     1       5.782   4.582  16.096  0.00  0.00    +0.000 A 
ATOM     27  C   UNL     1       4.894   4.529  17.147  0.00  0.00    +0.000 A 
ATOM     28  O   UNL     1       5.768   3.771  15.005  0.00  0.00    +0.000 OA
ATOM     29  C   UNL     1       6.959   4.218  14.327  0.00  0.00    +0.000 C 
ATOM     30  O   UNL     1       7.569   5.374  14.939  0.00  0.00    +0.000 OA
ENDBRANCH  21  22
ENDBRANCH   6  21
TORSDOF 4
ENDMDL
MODEL 6
REMARK VINA RESULT:      -7.3      4.351      6.419
REMARK  Name = 
REMARK  4 active torsions:
REMARK  status: ('A' for Active; 'I' for Inactive)
REMARK    1  A    between atoms: C_2  and  C_3
REMARK    2  A    between atoms: C_5  and  C_6
REMARK    3  A    between atoms: N_17  and  C_18
REMARK    4  A    between atoms: C_18  and  C_19
REMARK                            x       y       z     vdW  Elec       q    Type
REMARK                         _______ _______ _______ _____ _____    ______ ____
ROOT
ATOM      1  O   UNL     1       1.979  10.086  17.371  0.00  0.00    +0.000 OA
ATOM      2  C   UNL     1       1.749   9.424  18.383  0.00  0.00    +0.000 C 
ATOM      3  N   UNL     1       0.994   9.939  19.438  0.00  0.00    +0.000 N 
ATOM      4  C   UNL     1       0.263  11.190  19.250  0.00  0.00    +0.000 C 
ATOM      5  C   UNL     1       0.558  12.183  20.387  0.00  0.00    +0.000 C 
ATOM      6  N   UNL     1       0.333  11.640  21.748  0.00  0.00    +0.000 NA
ATOM      7  C   UNL     1       1.139  10.405  21.886  0.00  0.00    +0.000 C 
ATOM      8  C   UNL     1       0.909   9.350  20.781  0.00  0.00    +0.000 C 
ENDROOT
BRANCH   2   9
ATOM      9  C   UNL     1       2.311   8.068  18.521  0.00  0.00    +0.000 A 
ATOM     10  C   UNL     1       2.111   7.196  19.624  0.00  0.00    +0.000 A 
ATOM     11  C   UNL     1       2.763   6.021  19.311  0.00  0.00    +0.000 A 
ATOM     12  N   UNL     1       3.349   6.269  18.098  0.00  0.00    +0.000 N 
ATOM     13  N   UNL     1       3.115   7.494  17.607  0.00  0.00    +0.000 NA
ATOM     14  H   UNL     1       3.899   5.628  17.537  0.00  0.00    +0.000 HD
BRANCH  11  15
ATOM     15  C   UNL     1       2.839   4.737  19.996  0.00  0.00    +0.000 A 
ATOM     16  C   UNL     1       1.968   4.450  21.057  0.00  0.00    +0.000 A 
ATOM     17  C   UNL     1       2.016   3.213  21.703  0.00  0.00    +0.000 A 
ATOM     18  C   UNL     1       2.939   2.252  21.298  0.00  0.00    +0.000 A 
ATOM     19  C   UNL     1       3.816   2.526  20.253  0.00  0.00    +0.000 A 
ATOM     20  C   UNL     1       3.769   3.764  19.605  0.00  0.00    +0.000 A 
ENDBRANCH  11  15
ENDBRANCH   2   9
BRANCH   6  21
ATOM     21  C   UNL     1      -1.081  11.347  22.040  0.00  0.00    +0.000 C 
BRANCH  21  22
ATOM     22  C   UNL     1      -1.765  12.383  22.902  0.00  0.00    +0.000 A 
ATOM     23  C   UNL     1      -3.088  12.177  23.357  0.00  0.00    +0.000 A 
ATOM     24  C   UNL     1      -3.727  13.128  24.158  0.00  0.00    +0.000 A 
ATOM     25  C   UNL     1      -3.017  14.259  24.499  0.00  0.00    +0.000 A 
ATOM     26  C   UNL     1      -1.730  14.465  24.064  0.00  0.00    +0.000 A 
ATOM     27  C   UNL     1      -1.082  13.555  23.259  0.00  0.00    +0.000 A 
ATOM     28  O   UNL     1      -1.207  15.633  24.521  0.00  0.00    +0.000 OA
ATOM     29  C   UNL     1      -2.279  16.091  25.369  0.00  0.00    +0.000 C 
ATOM     30  O   UNL     1      -3.466  15.276  25.283  0.00  0.00    +0.000 OA
ENDBRANCH  21  22
ENDBRANCH   6  21
TORSDOF 4
ENDMDL
MODEL 7
REMARK VINA RESULT:      -7.3      4.286      6.155
REMARK  Name = 
REMARK  4 active torsions:
REMARK  status: ('A' for Active; 'I' for Inactive)
REMARK    1  A    between atoms: C_2  and  C_3
REMARK    2  A    between atoms: C_5  and  C_6
REMARK    3  A    between atoms: N_17  and  C_18
REMARK    4  A    between atoms: C_18  and  C_19
REMARK                            x       y       z     vdW  Elec       q    Type
REMARK                         _______ _______ _______ _____ _____    ______ ____
ROOT
ATOM      1  O   UNL     1       2.227   9.619  17.467  0.00  0.00    +0.000 OA
ATOM      2  C   UNL     1       1.653   9.187  18.466  0.00  0.00    +0.000 C 
ATOM      3  N   UNL     1       0.728   9.960  19.170  0.00  0.00    +0.000 N 
ATOM      4  C   UNL     1       0.252  11.213  18.586  0.00  0.00    +0.000 C 
ATOM      5  C   UNL     1       0.376  12.375  19.585  0.00  0.00    +0.000 C 
ATOM      6  N   UNL     1      -0.268  12.126  20.897  0.00  0.00    +0.000 NA
ATOM      7  C   UNL     1       0.294  10.874  21.452  0.00  0.00    +0.000 C 
ATOM      8  C   UNL     1       0.215   9.650  20.511  0.00  0.00    +0.000 C 
ENDROOT
BRANCH   2   9
ATOM      9  C   UNL     1       1.966   7.838  18.972  0.00  0.00    +0.000 A 
ATOM     10  C   UNL     1       2.112   6.669  18.179  0.00  0.00    +0.000 A 
ATOM     11  C   UNL     1       2.459   5.654  19.048  0.00  0.00    +0.000 A 
ATOM     12  N   UNL     1       2.445   6.243  20.284  0.00  0.00    +0.000 N 
ATOM     13  N   UNL     1       2.132   7.547  20.276  0.00  0.00    +0.000 NA
ATOM     14  H   UNL     1       2.670   5.814  21.174  0.00  0.00    +0.000 HD
BRANCH  11  15
ATOM     15  C   UNL     1       2.829   4.263  18.821  0.00  0.00    +0.000 A 
ATOM     16  C   UNL     1       3.791   3.647  19.635  0.00  0.00    +0.000 A 
ATOM     17  C   UNL     1       4.134   2.307  19.442  0.00  0.00    +0.000 A 
ATOM     18  C   UNL     1       3.523   1.571  18.431  0.00  0.00    +0.000 A 
ATOM     19  C   UNL     1       2.574   2.172  17.609  0.00  0.00    +0.000 A 
ATOM     20  C   UNL     1       2.229   3.513  17.801  0.00  0.00    +0.000 A 
ENDBRANCH  11  15
ENDBRANCH   2   9
BRANCH   6  21
ATOM     21  C   UNL     1      -1.736  12.023  20.823  0.00  0.00    +0.000 C 
BRANCH  21  22
ATOM     22  C   UNL     1      -2.471  12.878  21.828  0.00  0.00    +0.000 A 
ATOM     23  C   UNL     1      -2.921  12.324  23.049  0.00  0.00    +0.000 A 
ATOM     24  C   UNL     1      -3.598  13.110  23.987  0.00  0.00    +0.000 A 
ATOM     25  C   UNL     1      -3.796  14.439  23.685  0.00  0.00    +0.000 A 
ATOM     26  C   UNL     1      -3.361  14.986  22.502  0.00  0.00    +0.000 A 
ATOM     27  C   UNL     1      -2.707  14.234  21.551  0.00  0.00    +0.000 A 
ATOM     28  O   UNL     1      -3.644  16.312  22.405  0.00  0.00    +0.000 OA
ATOM     29  C   UNL     1      -4.224  16.555  23.702  0.00  0.00    +0.000 C 
ATOM     30  O   UNL     1      -4.413  15.355  24.480  0.00  0.00    +0.000 OA
ENDBRANCH  21  22
ENDBRANCH   6  21
TORSDOF 4
ENDMDL
MODEL 8
REMARK VINA RESULT:      -7.3      3.920      6.879
REMARK  Name = 
REMARK  4 active torsions:
REMARK  status: ('A' for Active; 'I' for Inactive)
REMARK    1  A    between atoms: C_2  and  C_3
REMARK    2  A    between atoms: C_5  and  C_6
REMARK    3  A    between atoms: N_17  and  C_18
REMARK    4  A    between atoms: C_18  and  C_19
REMARK                            x       y       z     vdW  Elec       q    Type
REMARK                         _______ _______ _______ _____ _____    ______ ____
ROOT
ATOM      1  O   UNL     1       2.151  11.828  18.171  0.00  0.00    +0.000 OA
ATOM      2  C   UNL     1       1.318  11.067  18.665  0.00  0.00    +0.000 C 
ATOM      3  N   UNL     1       0.077  11.528  19.105  0.00  0.00    +0.000 N 
ATOM      4  C   UNL     1      -0.344  12.885  18.765  0.00  0.00    +0.000 C 
ATOM      5  C   UNL     1      -0.815  13.651  20.013  0.00  0.00    +0.000 C 
ATOM      6  N   UNL     1      -1.863  12.955  20.798  0.00  0.00    +0.000 NA
ATOM      7  C   UNL     1      -1.353  11.610  21.150  0.00  0.00    +0.000 C 
ATOM      8  C   UNL     1      -0.852  10.770  19.953  0.00  0.00    +0.000 C 
ENDROOT
BRANCH   2   9
ATOM      9  C   UNL     1       1.637   9.639  18.841  0.00  0.00    +0.000 A 
ATOM     10  C   UNL     1       2.077   8.756  17.819  0.00  0.00    +0.000 A 
ATOM     11  C   UNL     1       2.312   7.542  18.433  0.00  0.00    +0.000 A 
ATOM     12  N   UNL     1       1.956   7.745  19.740  0.00  0.00    +0.000 N 
ATOM     13  N   UNL     1       1.527   8.986  20.013  0.00  0.00    +0.000 NA
ATOM     14  H   UNL     1       2.012   7.082  20.504  0.00  0.00    +0.000 HD
BRANCH  11  15
ATOM     15  C   UNL     1       2.860   6.288  17.933  0.00  0.00    +0.000 A 
ATOM     16  C   UNL     1       4.134   6.256  17.348  0.00  0.00    +0.000 A 
ATOM     17  C   UNL     1       4.678   5.055  16.889  0.00  0.00    +0.000 A 
ATOM     18  C   UNL     1       3.951   3.874  17.004  0.00  0.00    +0.000 A 
ATOM     19  C   UNL     1       2.681   3.890  17.572  0.00  0.00    +0.000 A 
ATOM     20  C   UNL     1       2.135   5.092  18.033  0.00  0.00    +0.000 A 
ENDBRANCH  11  15
ENDBRANCH   2   9
BRANCH   6  21
ATOM     21  C   UNL     1      -3.148  12.831  20.087  0.00  0.00    +0.000 C 
BRANCH  21  22
ATOM     22  C   UNL     1      -4.348  13.271  20.892  0.00  0.00    +0.000 A 
ATOM     23  C   UNL     1      -5.150  14.350  20.453  0.00  0.00    +0.000 A 
ATOM     24  C   UNL     1      -6.265  14.762  21.189  0.00  0.00    +0.000 A 
ATOM     25  C   UNL     1      -6.560  14.070  22.344  0.00  0.00    +0.000 A 
ATOM     26  C   UNL     1      -5.788  13.019  22.777  0.00  0.00    +0.000 A 
ATOM     27  C   UNL     1      -4.674  12.603  22.082  0.00  0.00    +0.000 A 
ATOM     28  O   UNL     1      -6.258  12.467  23.927  0.00  0.00    +0.000 OA
ATOM     29  C   UNL     1      -7.464  13.233  24.116  0.00  0.00    +0.000 C 
ATOM     30  O   UNL     1      -7.611  14.314  23.172  0.00  0.00    +0.000 OA
ENDBRANCH  21  22
ENDBRANCH   6  21
TORSDOF 4
ENDMDL
MODEL 9
REMARK VINA RESULT:      -7.3      4.255      6.148
REMARK  Name = 
REMARK  4 active torsions:
REMARK  status: ('A' for Active; 'I' for Inactive)
REMARK    1  A    between atoms: C_2  and  C_3
REMARK    2  A    between atoms: C_5  and  C_6
REMARK    3  A    between atoms: N_17  and  C_18
REMARK    4  A    between atoms: C_18  and  C_19
REMARK                            x       y       z     vdW  Elec       q    Type
REMARK                         _______ _______ _______ _____ _____    ______ ____
ROOT
ATOM      1  O   UNL     1       2.178   9.522  17.447  0.00  0.00    +0.000 OA
ATOM      2  C   UNL     1       1.654   9.121  18.486  0.00  0.00    +0.000 C 
ATOM      3  N   UNL     1       0.789   9.927  19.228  0.00  0.00    +0.000 N 
ATOM      4  C   UNL     1       0.305  11.179  18.648  0.00  0.00    +0.000 C 
ATOM      5  C   UNL     1       0.511  12.357  19.616  0.00  0.00    +0.000 C 
ATOM      6  N   UNL     1      -0.059  12.146  20.968  0.00  0.00    +0.000 NA
ATOM      7  C   UNL     1       0.509  10.892  21.513  0.00  0.00    +0.000 C 
ATOM      8  C   UNL     1       0.350   9.653  20.602  0.00  0.00    +0.000 C 
ENDROOT
BRANCH   2   9
ATOM      9  C   UNL     1       1.969   7.776  18.999  0.00  0.00    +0.000 A 
ATOM     10  C   UNL     1       2.095   6.599  18.215  0.00  0.00    +0.000 A 
ATOM     11  C   UNL     1       2.451   5.590  19.087  0.00  0.00    +0.000 A 
ATOM     12  N   UNL     1       2.463   6.191  20.318  0.00  0.00    +0.000 N 
ATOM     13  N   UNL     1       2.156   7.496  20.303  0.00  0.00    +0.000 NA
ATOM     14  H   UNL     1       2.701   5.768  21.207  0.00  0.00    +0.000 HD
BRANCH  11  15
ATOM     15  C   UNL     1       2.810   4.195  18.868  0.00  0.00    +0.000 A 
ATOM     16  C   UNL     1       2.285   3.494  17.772  0.00  0.00    +0.000 A 
ATOM     17  C   UNL     1       2.643   2.165  17.538  0.00  0.00    +0.000 A 
ATOM     18  C   UNL     1       3.525   1.520  18.402  0.00  0.00    +0.000 A 
ATOM     19  C   UNL     1       4.046   2.199  19.499  0.00  0.00    +0.000 A 
ATOM     20  C   UNL     1       3.689   3.530  19.734  0.00  0.00    +0.000 A 
ENDBRANCH  11  15
ENDBRANCH   2   9
BRANCH   6  21
ATOM     21  C   UNL     1      -1.531  12.072  20.982  0.00  0.00    +0.000 C 
BRANCH  21  22
ATOM     22  C   UNL     1      -2.189  12.983  21.993  0.00  0.00    +0.000 A 
ATOM     23  C   UNL     1      -1.445  13.513  23.072  0.00  0.00    +0.000 A 
ATOM     24  C   UNL     1      -2.044  14.359  24.009  0.00  0.00    +0.000 A 
ATOM     25  C   UNL     1      -3.376  14.667  23.834  0.00  0.00    +0.000 A 
ATOM     26  C   UNL     1      -4.106  14.158  22.787  0.00  0.00    +0.000 A 
ATOM     27  C   UNL     1      -3.547  13.308  21.858  0.00  0.00    +0.000 A 
ATOM     28  O   UNL     1      -5.393  14.594  22.789  0.00  0.00    +0.000 OA
ATOM     29  C   UNL     1      -5.363  15.507  23.904  0.00  0.00    +0.000 C 
ATOM     30  O   UNL     1      -4.116  15.485  24.630  0.00  0.00    +0.000 OA
ENDBRANCH  21  22
ENDBRANCH   6  21
TORSDOF 4
ENDMDL
