MODEL 1
REMARK VINA RESULT:      -8.4      0.000      0.000
REMARK  Name = 
REMARK  5 active torsions:
REMARK  status: ('A' for Active; 'I' for Inactive)
REMARK    1  A    between atoms: C_1  and  N_2
REMARK    2  A    between atoms: C_4  and  C_5
REMARK    3  A    between atoms: N_7  and  C_8
REMARK    4  A    between atoms: N_7  and  C_16
REMARK    5  A    between atoms: C_8  and  C_9
REMARK                            x       y       z     vdW  Elec       q    Type
REMARK                         _______ _______ _______ _____ _____    ______ ____
ROOT
ATOM      1  C   UNL     1       2.031   8.569  18.624  0.00  0.00    +0.000 C 
ATOM      2  O   UNL     1       2.445   9.164  17.622  0.00  0.00    +0.000 OA
ATOM      3  N   UNL     1       1.119   9.246  19.455  0.00  0.00    +0.000 N 
ENDROOT
BRANCH   1   7
ATOM      4  C   UNL     1       1.977   4.238  21.181  0.00  0.00    +0.000 C 
ATOM      5  N   UNL     1       2.443   4.993  20.026  0.00  0.00    +0.000 N 
ATOM      6  C   UNL     1       2.107   6.331  19.866  0.00  0.00    +0.000 A 
ATOM      7  C   UNL     1       2.490   7.102  18.824  0.00  0.00    +0.000 A 
ATOM      8  C   UNL     1       3.486   6.458  17.885  0.00  0.00    +0.000 A 
ATOM      9  C   UNL     1       4.166   7.139  16.859  0.00  0.00    +0.000 A 
ATOM     10  C   UNL     1       5.088   6.502  16.011  0.00  0.00    +0.000 A 
ATOM     11  C   UNL     1       5.354   5.152  16.153  0.00  0.00    +0.000 A 
ATOM     12  C   UNL     1       4.716   4.443  17.160  0.00  0.00    +0.000 A 
ATOM     13  C   UNL     1       3.809   5.094  18.020  0.00  0.00    +0.000 A 
ATOM     14  C   UNL     1       3.252   4.302  19.130  0.00  0.00    +0.000 A 
ATOM     15  O   UNL     1       3.525   3.107  19.244  0.00  0.00    +0.000 OA
ENDBRANCH   1   7
BRANCH   3  16
ATOM     16  C   UNL     1       0.739   8.853  20.787  0.00  0.00    +0.000 C 
ATOM     17  C   UNL     1       0.300   9.920  21.757  0.00  0.00    +0.000 C 
ATOM     18  C   UNL     1       1.511   9.099  22.060  0.00  0.00    +0.000 C 
ENDBRANCH   3  16
BRANCH   3  19
ATOM     19  C   UNL     1       0.657  10.579  18.999  0.00  0.00    +0.000 C 
BRANCH  19  20
ATOM     20  C   UNL     1      -0.774  10.565  18.510  0.00  0.00    +0.000 A 
ATOM     21  C   UNL     1      -1.131   9.770  17.408  0.00  0.00    +0.000 A 
ATOM     22  C   UNL     1      -2.402   9.855  16.842  0.00  0.00    +0.000 A 
ATOM     23  C   UNL     1      -3.346  10.720  17.388  0.00  0.00    +0.000 A 
ATOM     24  C   UNL     1      -3.022  11.455  18.522  0.00  0.00    +0.000 A 
ATOM     25  F   UNL     1      -3.937  12.272  19.059  0.00  0.00    +0.000 F 
ATOM     26  C   UNL     1      -1.754  11.379  19.093  0.00  0.00    +0.000 A 
ENDBRANCH  19  20
ENDBRANCH   3  19
TORSDOF 4
ENDMDL
MODEL 2
REMARK VINA RESULT:      -8.3      0.890      1.295
REMARK  Name = 
REMARK  5 active torsions:
REMARK  status: ('A' for Active; 'I' for Inactive)
REMARK    1  A    between atoms: C_1  and  N_2
REMARK    2  A    between atoms: C_4  and  C_5
REMARK    3  A    between atoms: N_7  and  C_8
REMARK    4  A    between atoms: N_7  and  C_16
REMARK    5  A    between atoms: C_8  and  C_9
REMARK                            x       y       z     vdW  Elec       q    Type
REMARK                         _______ _______ _______ _____ _____    ______ ____
ROOT
ATOM      1  C   UNL     1       2.071   8.554  18.584  0.00  0.00    +0.000 C 
ATOM      2  O   UNL     1       2.552   9.160  17.619  0.00  0.00    +0.000 OA
ATOM      3  N   UNL     1       1.196   9.262  19.428  0.00  0.00    +0.000 N 
ENDROOT
BRANCH   1   7
ATOM      4  C   UNL     1       1.542   4.105  20.869  0.00  0.00    +0.000 C 
ATOM      5  N   UNL     1       2.137   4.886  19.792  0.00  0.00    +0.000 N 
ATOM      6  C   UNL     1       1.906   6.252  19.692  0.00  0.00    +0.000 A 
ATOM      7  C   UNL     1       2.412   7.049  18.725  0.00  0.00    +0.000 A 
ATOM      8  C   UNL     1       3.422   6.386  17.813  0.00  0.00    +0.000 A 
ATOM      9  C   UNL     1       4.215   7.071  16.875  0.00  0.00    +0.000 A 
ATOM     10  C   UNL     1       5.146   6.415  16.051  0.00  0.00    +0.000 A 
ATOM     11  C   UNL     1       5.307   5.044  16.129  0.00  0.00    +0.000 A 
ATOM     12  C   UNL     1       4.554   4.329  17.048  0.00  0.00    +0.000 A 
ATOM     13  C   UNL     1       3.638   4.996  17.886  0.00  0.00    +0.000 A 
ATOM     14  C   UNL     1       2.954   4.188  18.910  0.00  0.00    +0.000 A 
ATOM     15  O   UNL     1       3.135   2.972  18.969  0.00  0.00    +0.000 OA
ENDBRANCH   1   7
BRANCH   3  16
ATOM     16  C   UNL     1       0.758   8.841  20.734  0.00  0.00    +0.000 C 
ATOM     17  C   UNL     1       0.370   9.894  21.740  0.00  0.00    +0.000 C 
ATOM     18  C   UNL     1       1.514   8.979  22.033  0.00  0.00    +0.000 C 
ENDBRANCH   3  16
BRANCH   3  19
ATOM     19  C   UNL     1       0.847  10.646  19.026  0.00  0.00    +0.000 C 
BRANCH  19  20
ATOM     20  C   UNL     1      -0.581  10.772  18.544  0.00  0.00    +0.000 A 
ATOM     21  C   UNL     1      -1.450  11.688  19.159  0.00  0.00    +0.000 A 
ATOM     22  C   UNL     1      -2.807  11.715  18.840  0.00  0.00    +0.000 A 
ATOM     23  C   UNL     1      -3.310  10.842  17.880  0.00  0.00    +0.000 A 
ATOM     24  C   UNL     1      -2.442   9.984  17.217  0.00  0.00    +0.000 A 
ATOM     25  F   UNL     1      -2.923   9.158  16.279  0.00  0.00    +0.000 F 
ATOM     26  C   UNL     1      -1.085   9.947  17.530  0.00  0.00    +0.000 A 
ENDBRANCH  19  20
ENDBRANCH   3  19
TORSDOF 4
ENDMDL
MODEL 3
REMARK VINA RESULT:      -7.9      2.970      7.207
REMARK  Name = 
REMARK  5 active torsions:
REMARK  status: ('A' for Active; 'I' for Inactive)
REMARK    1  A    between atoms: C_1  and  N_2
REMARK    2  A    between atoms: C_4  and  C_5
REMARK    3  A    between atoms: N_7  and  C_8
REMARK    4  A    between atoms: N_7  and  C_16
REMARK    5  A    between atoms: C_8  and  C_9
REMARK                            x       y       z     vdW  Elec       q    Type
REMARK                         _______ _______ _______ _____ _____    ______ ____
ROOT
ATOM      1  C   UNL     1       1.506   9.252  18.630  0.00  0.00    +0.000 C 
ATOM      2  O   UNL     1       1.938   9.197  17.473  0.00  0.00    +0.000 OA
ATOM      3  N   UNL     1       1.885   8.228  19.517  0.00  0.00    +0.000 N 
ENDROOT
BRANCH   1   7
ATOM      4  C   UNL     1       0.947  13.659  20.989  0.00  0.00    +0.000 C 
ATOM      5  N   UNL     1       0.384  12.635  20.118  0.00  0.00    +0.000 N 
ATOM      6  C   UNL     1       1.098  11.482  19.819  0.00  0.00    +0.000 A 
ATOM      7  C   UNL     1       0.656  10.489  19.017  0.00  0.00    +0.000 A 
ATOM      8  C   UNL     1      -0.786  10.618  18.576  0.00  0.00    +0.000 A 
ATOM      9  C   UNL     1      -1.507   9.609  17.911  0.00  0.00    +0.000 A 
ATOM     10  C   UNL     1      -2.848   9.770  17.524  0.00  0.00    +0.000 A 
ATOM     11  C   UNL     1      -3.514  10.955  17.778  0.00  0.00    +0.000 A 
ATOM     12  C   UNL     1      -2.846  11.973  18.442  0.00  0.00    +0.000 A 
ATOM     13  C   UNL     1      -1.508  11.796  18.847  0.00  0.00    +0.000 A 
ATOM     14  C   UNL     1      -0.900  12.877  19.641  0.00  0.00    +0.000 A 
ATOM     15  O   UNL     1      -1.525  13.913  19.870  0.00  0.00    +0.000 OA
ENDBRANCH   1   7
BRANCH   3  16
ATOM     16  C   UNL     1       1.283   7.954  20.796  0.00  0.00    +0.000 C 
ATOM     17  C   UNL     1       0.031   8.701  21.180  0.00  0.00    +0.000 C 
ATOM     18  C   UNL     1       1.267   8.859  22.004  0.00  0.00    +0.000 C 
ENDBRANCH   3  16
BRANCH   3  19
ATOM     19  C   UNL     1       2.855   7.226  19.012  0.00  0.00    +0.000 C 
BRANCH  19  20
ATOM     20  C   UNL     1       2.340   5.809  19.123  0.00  0.00    +0.000 A 
ATOM     21  C   UNL     1       1.972   5.104  17.965  0.00  0.00    +0.000 A 
ATOM     22  C   UNL     1       1.352   3.858  18.049  0.00  0.00    +0.000 A 
ATOM     23  C   UNL     1       1.116   3.286  19.295  0.00  0.00    +0.000 A 
ATOM     24  C   UNL     1       1.544   3.945  20.441  0.00  0.00    +0.000 A 
ATOM     25  F   UNL     1       1.335   3.384  21.639  0.00  0.00    +0.000 F 
ATOM     26  C   UNL     1       2.161   5.191  20.368  0.00  0.00    +0.000 A 
ENDBRANCH  19  20
ENDBRANCH   3  19
TORSDOF 4
ENDMDL
MODEL 4
REMARK VINA RESULT:      -7.8      2.581      3.703
REMARK  Name = 
REMARK  5 active torsions:
REMARK  status: ('A' for Active; 'I' for Inactive)
REMARK    1  A    between atoms: C_1  and  N_2
REMARK    2  A    between atoms: C_4  and  C_5
REMARK    3  A    between atoms: N_7  and  C_8
REMARK    4  A    between atoms: N_7  and  C_16
REMARK    5  A    between atoms: C_8  and  C_9
REMARK                            x       y       z     vdW  Elec       q    Type
REMARK                         _______ _______ _______ _____ _____    ______ ____
ROOT
ATOM      1  C   UNL     1       2.548   8.159  17.954  0.00  0.00    +0.000 C 
ATOM      2  O   UNL     1       2.385   8.772  16.892  0.00  0.00    +0.000 OA
ATOM      3  N   UNL     1       1.732   8.516  19.044  0.00  0.00    +0.000 N 
ENDROOT
BRANCH   1   7
ATOM      4  C   UNL     1       7.278   6.454  17.845  0.00  0.00    +0.000 C 
ATOM      5  N   UNL     1       5.854   6.163  17.947  0.00  0.00    +0.000 N 
ATOM      6  C   UNL     1       4.911   7.180  17.868  0.00  0.00    +0.000 A 
ATOM      7  C   UNL     1       3.575   6.999  17.960  0.00  0.00    +0.000 A 
ATOM      8  C   UNL     1       3.125   5.555  17.983  0.00  0.00    +0.000 A 
ATOM      9  C   UNL     1       1.787   5.138  17.873  0.00  0.00    +0.000 A 
ATOM     10  C   UNL     1       1.413   3.783  17.895  0.00  0.00    +0.000 A 
ATOM     11  C   UNL     1       2.370   2.794  18.040  0.00  0.00    +0.000 A 
ATOM     12  C   UNL     1       3.704   3.159  18.139  0.00  0.00    +0.000 A 
ATOM     13  C   UNL     1       4.073   4.519  18.095  0.00  0.00    +0.000 A 
ATOM     14  C   UNL     1       5.514   4.823  18.098  0.00  0.00    +0.000 A 
ATOM     15  O   UNL     1       6.343   3.919  18.206  0.00  0.00    +0.000 OA
ENDBRANCH   1   7
BRANCH   3  16
ATOM     16  C   UNL     1       1.943   8.134  20.416  0.00  0.00    +0.000 C 
ATOM     17  C   UNL     1       1.402   6.808  20.887  0.00  0.00    +0.000 C 
ATOM     18  C   UNL     1       0.906   8.072  21.511  0.00  0.00    +0.000 C 
ENDBRANCH   3  16
BRANCH   3  19
ATOM     19  C   UNL     1       0.679   9.528  18.792  0.00  0.00    +0.000 C 
BRANCH  19  20
ATOM     20  C   UNL     1       1.094  10.921  19.210  0.00  0.00    +0.000 A 
ATOM     21  C   UNL     1       0.583  11.480  20.392  0.00  0.00    +0.000 A 
ATOM     22  C   UNL     1       0.827  12.813  20.721  0.00  0.00    +0.000 A 
ATOM     23  C   UNL     1       1.610  13.600  19.881  0.00  0.00    +0.000 A 
ATOM     24  C   UNL     1       2.178  13.032  18.748  0.00  0.00    +0.000 A 
ATOM     25  F   UNL     1       2.949  13.785  17.952  0.00  0.00    +0.000 F 
ATOM     26  C   UNL     1       1.939  11.702  18.410  0.00  0.00    +0.000 A 
ENDBRANCH  19  20
ENDBRANCH   3  19
TORSDOF 4
ENDMDL
MODEL 5
REMARK VINA RESULT:      -7.8      3.205      7.388
REMARK  Name = 
REMARK  5 active torsions:
REMARK  status: ('A' for Active; 'I' for Inactive)
REMARK    1  A    between atoms: C_1  and  N_2
REMARK    2  A    between atoms: C_4  and  C_5
REMARK    3  A    between atoms: N_7  and  C_8
REMARK    4  A    between atoms: N_7  and  C_16
REMARK    5  A    between atoms: C_8  and  C_9
REMARK                            x       y       z     vdW  Elec       q    Type
REMARK                         _______ _______ _______ _____ _____    ______ ____
ROOT
ATOM      1  C   UNL     1       2.271   7.698  18.623  0.00  0.00    +0.000 C 
ATOM      2  O   UNL     1       2.461   8.183  17.501  0.00  0.00    +0.000 OA
ATOM      3  N   UNL     1       2.790   6.415  18.875  0.00  0.00    +0.000 N 
ENDROOT
BRANCH   1   7
ATOM      4  C   UNL     1       1.557   9.231  23.360  0.00  0.00    +0.000 C 
ATOM      5  N   UNL     1       1.223   9.362  21.947  0.00  0.00    +0.000 N 
ATOM      6  C   UNL     1       1.799   8.527  20.998  0.00  0.00    +0.000 A 
ATOM      7  C   UNL     1       1.551   8.584  19.671  0.00  0.00    +0.000 A 
ATOM      8  C   UNL     1       0.440   9.529  19.268  0.00  0.00    +0.000 A 
ATOM      9  C   UNL     1      -0.115   9.598  17.978  0.00  0.00    +0.000 A 
ATOM     10  C   UNL     1      -1.151  10.488  17.648  0.00  0.00    +0.000 A 
ATOM     11  C   UNL     1      -1.661  11.354  18.599  0.00  0.00    +0.000 A 
ATOM     12  C   UNL     1      -1.151  11.313  19.888  0.00  0.00    +0.000 A 
ATOM     13  C   UNL     1      -0.128  10.402  20.217  0.00  0.00    +0.000 A 
ATOM     14  C   UNL     1       0.288  10.340  21.628  0.00  0.00    +0.000 A 
ATOM     15  O   UNL     1      -0.200  11.109  22.457  0.00  0.00    +0.000 OA
ENDBRANCH   1   7
BRANCH   3  16
ATOM     16  C   UNL     1       2.449   5.571  19.990  0.00  0.00    +0.000 C 
ATOM     17  C   UNL     1       2.353   4.083  19.767  0.00  0.00    +0.000 C 
ATOM     18  C   UNL     1       1.146   4.843  20.212  0.00  0.00    +0.000 C 
ENDBRANCH   3  16
BRANCH   3  19
ATOM     19  C   UNL     1       3.610   5.800  17.804  0.00  0.00    +0.000 C 
BRANCH  19  20
ATOM     20  C   UNL     1       5.095   5.947  18.048  0.00  0.00    +0.000 A 
ATOM     21  C   UNL     1       5.712   5.220  19.080  0.00  0.00    +0.000 A 
ATOM     22  C   UNL     1       7.043   5.452  19.425  0.00  0.00    +0.000 A 
ATOM     23  C   UNL     1       7.785   6.397  18.724  0.00  0.00    +0.000 A 
ATOM     24  C   UNL     1       7.202   7.066  17.655  0.00  0.00    +0.000 A 
ATOM     25  F   UNL     1       7.924   7.960  16.967  0.00  0.00    +0.000 F 
ATOM     26  C   UNL     1       5.873   6.844  17.303  0.00  0.00    +0.000 A 
ENDBRANCH  19  20
ENDBRANCH   3  19
TORSDOF 4
ENDMDL
MODEL 6
REMARK VINA RESULT:      -7.7      2.409      3.536
REMARK  Name = 
REMARK  5 active torsions:
REMARK  status: ('A' for Active; 'I' for Inactive)
REMARK    1  A    between atoms: C_1  and  N_2
REMARK    2  A    between atoms: C_4  and  C_5
REMARK    3  A    between atoms: N_7  and  C_8
REMARK    4  A    between atoms: N_7  and  C_16
REMARK    5  A    between atoms: C_8  and  C_9
REMARK                            x       y       z     vdW  Elec       q    Type
REMARK                         _______ _______ _______ _____ _____    ______ ____
ROOT
ATOM      1  C   UNL     1       2.522   8.150  17.944  0.00  0.00    +0.000 C 
ATOM      2  O   UNL     1       2.351   8.728  16.863  0.00  0.00    +0.000 OA
ATOM      3  N   UNL     1       1.706   8.532  19.024  0.00  0.00    +0.000 N 
ENDROOT
BRANCH   1   7
ATOM      4  C   UNL     1       7.271   6.495  17.926  0.00  0.00    +0.000 C 
ATOM      5  N   UNL     1       5.849   6.190  18.014  0.00  0.00    +0.000 N 
ATOM      6  C   UNL     1       4.897   7.195  17.905  0.00  0.00    +0.000 A 
ATOM      7  C   UNL     1       3.562   7.001  17.982  0.00  0.00    +0.000 A 
ATOM      8  C   UNL     1       3.127   5.553  18.024  0.00  0.00    +0.000 A 
ATOM      9  C   UNL     1       1.794   5.120  17.904  0.00  0.00    +0.000 A 
ATOM     10  C   UNL     1       1.435   3.761  17.943  0.00  0.00    +0.000 A 
ATOM     11  C   UNL     1       2.400   2.786  18.117  0.00  0.00    +0.000 A 
ATOM     12  C   UNL     1       3.729   3.167  18.228  0.00  0.00    +0.000 A 
ATOM     13  C   UNL     1       4.084   4.529  18.166  0.00  0.00    +0.000 A 
ATOM     14  C   UNL     1       5.521   4.849  18.182  0.00  0.00    +0.000 A 
ATOM     15  O   UNL     1       6.358   3.956  18.316  0.00  0.00    +0.000 OA
ENDBRANCH   1   7
BRANCH   3  16
ATOM     16  C   UNL     1       1.925   8.195  20.407  0.00  0.00    +0.000 C 
ATOM     17  C   UNL     1       1.397   6.880  20.921  0.00  0.00    +0.000 C 
ATOM     18  C   UNL     1       0.892   8.159  21.507  0.00  0.00    +0.000 C 
ENDBRANCH   3  16
BRANCH   3  19
ATOM     19  C   UNL     1       0.641   9.525  18.744  0.00  0.00    +0.000 C 
BRANCH  19  20
ATOM     20  C   UNL     1       1.039  10.932  19.129  0.00  0.00    +0.000 A 
ATOM     21  C   UNL     1       1.949  11.647  18.333  0.00  0.00    +0.000 A 
ATOM     22  C   UNL     1       2.449  12.881  18.745  0.00  0.00    +0.000 A 
ATOM     23  C   UNL     1       2.025  13.432  19.951  0.00  0.00    +0.000 A 
ATOM     24  C   UNL     1       1.070  12.764  20.708  0.00  0.00    +0.000 A 
ATOM     25  F   UNL     1       0.647  13.304  21.858  0.00  0.00    +0.000 F 
ATOM     26  C   UNL     1       0.566  11.529  20.306  0.00  0.00    +0.000 A 
ENDBRANCH  19  20
ENDBRANCH   3  19
TORSDOF 4
ENDMDL
MODEL 7
REMARK VINA RESULT:      -7.7      4.386      8.324
REMARK  Name = 
REMARK  5 active torsions:
REMARK  status: ('A' for Active; 'I' for Inactive)
REMARK    1  A    between atoms: C_1  and  N_2
REMARK    2  A    between atoms: C_4  and  C_5
REMARK    3  A    between atoms: N_7  and  C_8
REMARK    4  A    between atoms: N_7  and  C_16
REMARK    5  A    between atoms: C_8  and  C_9
REMARK                            x       y       z     vdW  Elec       q    Type
REMARK                         _______ _______ _______ _____ _____    ______ ____
ROOT
ATOM      1  C   UNL     1       4.349   4.117  16.899  0.00  0.00    +0.000 C 
ATOM      2  O   UNL     1       3.693   3.160  16.468  0.00  0.00    +0.000 OA
ATOM      3  N   UNL     1       5.673   4.256  16.446  0.00  0.00    +0.000 N 
ENDROOT
BRANCH   1   7
ATOM      4  C   UNL     1       2.705   8.748  17.969  0.00  0.00    +0.000 C 
ATOM      5  N   UNL     1       2.787   7.341  18.341  0.00  0.00    +0.000 N 
ATOM      6  C   UNL     1       3.499   6.439  17.562  0.00  0.00    +0.000 A 
ATOM      7  C   UNL     1       3.621   5.120  17.829  0.00  0.00    +0.000 A 
ATOM      8  C   UNL     1       3.063   4.684  19.167  0.00  0.00    +0.000 A 
ATOM      9  C   UNL     1       3.258   3.411  19.732  0.00  0.00    +0.000 A 
ATOM     10  C   UNL     1       2.725   3.051  20.982  0.00  0.00    +0.000 A 
ATOM     11  C   UNL     1       1.965   3.951  21.706  0.00  0.00    +0.000 A 
ATOM     12  C   UNL     1       1.757   5.222  21.193  0.00  0.00    +0.000 A 
ATOM     13  C   UNL     1       2.313   5.584  19.949  0.00  0.00    +0.000 A 
ATOM     14  C   UNL     1       2.141   6.982  19.519  0.00  0.00    +0.000 A 
ATOM     15  O   UNL     1       1.477   7.767  20.197  0.00  0.00    +0.000 OA
ENDBRANCH   1   7
BRANCH   3  16
ATOM     16  C   UNL     1       6.676   5.114  17.022  0.00  0.00    +0.000 C 
ATOM     17  C   UNL     1       7.859   4.482  17.710  0.00  0.00    +0.000 C 
ATOM     18  C   UNL     1       6.930   5.355  18.490  0.00  0.00    +0.000 C 
ENDBRANCH   3  16
BRANCH   3  19
ATOM     19  C   UNL     1       6.135   3.298  15.413  0.00  0.00    +0.000 C 
BRANCH  19  20
ATOM     20  C   UNL     1       6.537   3.978  14.124  0.00  0.00    +0.000 A 
ATOM     21  C   UNL     1       5.936   3.599  12.912  0.00  0.00    +0.000 A 
ATOM     22  C   UNL     1       6.395   4.098  11.695  0.00  0.00    +0.000 A 
ATOM     23  C   UNL     1       7.449   5.007  11.673  0.00  0.00    +0.000 A 
ATOM     24  C   UNL     1       8.000   5.441  12.873  0.00  0.00    +0.000 A 
ATOM     25  F   UNL     1       9.001   6.331  12.852  0.00  0.00    +0.000 F 
ATOM     26  C   UNL     1       7.550   4.947  14.094  0.00  0.00    +0.000 A 
ENDBRANCH  19  20
ENDBRANCH   3  19
TORSDOF 4
ENDMDL
MODEL 8
REMARK VINA RESULT:      -7.6      3.334      7.418
REMARK  Name = 
REMARK  5 active torsions:
REMARK  status: ('A' for Active; 'I' for Inactive)
REMARK    1  A    between atoms: C_1  and  N_2
REMARK    2  A    between atoms: C_4  and  C_5
REMARK    3  A    between atoms: N_7  and  C_8
REMARK    4  A    between atoms: N_7  and  C_16
REMARK    5  A    between atoms: C_8  and  C_9
REMARK                            x       y       z     vdW  Elec       q    Type
REMARK                         _______ _______ _______ _____ _____    ______ ____
ROOT
ATOM      1  C   UNL     1       2.160   7.625  18.802  0.00  0.00    +0.000 C 
ATOM      2  O   UNL     1       2.411   8.086  17.682  0.00  0.00    +0.000 OA
ATOM      3  N   UNL     1       2.619   6.328  19.091  0.00  0.00    +0.000 N 
ENDROOT
BRANCH   1   7
ATOM      4  C   UNL     1       1.330   9.253  23.489  0.00  0.00    +0.000 C 
ATOM      5  N   UNL     1       1.055   9.377  22.063  0.00  0.00    +0.000 N 
ATOM      6  C   UNL     1       1.632   8.506  21.148  0.00  0.00    +0.000 A 
ATOM      7  C   UNL     1       1.438   8.554  19.811  0.00  0.00    +0.000 A 
ATOM      8  C   UNL     1       0.382   9.537  19.354  0.00  0.00    +0.000 A 
ATOM      9  C   UNL     1      -0.121   9.610  18.043  0.00  0.00    +0.000 A 
ATOM     10  C   UNL     1      -1.107  10.537  17.662  0.00  0.00    +0.000 A 
ATOM     11  C   UNL     1      -1.616  11.435  18.581  0.00  0.00    +0.000 A 
ATOM     12  C   UNL     1      -1.158  11.392  19.889  0.00  0.00    +0.000 A 
ATOM     13  C   UNL     1      -0.185  10.445  20.269  0.00  0.00    +0.000 A 
ATOM     14  C   UNL     1       0.173  10.388  21.696  0.00  0.00    +0.000 A 
ATOM     15  O   UNL     1      -0.314  11.187  22.496  0.00  0.00    +0.000 OA
ENDBRANCH   1   7
BRANCH   3  16
ATOM     16  C   UNL     1       2.204   5.514  20.205  0.00  0.00    +0.000 C 
ATOM     17  C   UNL     1       2.447   4.028  20.143  0.00  0.00    +0.000 C 
ATOM     18  C   UNL     1       1.049   4.544  20.239  0.00  0.00    +0.000 C 
ENDBRANCH   3  16
BRANCH   3  19
ATOM     19  C   UNL     1       3.453   5.665  18.060  0.00  0.00    +0.000 C 
BRANCH  19  20
ATOM     20  C   UNL     1       4.919   6.019  18.177  0.00  0.00    +0.000 A 
ATOM     21  C   UNL     1       5.533   6.801  17.185  0.00  0.00    +0.000 A 
ATOM     22  C   UNL     1       6.911   7.013  17.188  0.00  0.00    +0.000 A 
ATOM     23  C   UNL     1       7.693   6.466  18.200  0.00  0.00    +0.000 A 
ATOM     24  C   UNL     1       7.081   5.753  19.224  0.00  0.00    +0.000 A 
ATOM     25  F   UNL     1       7.832   5.245  20.210  0.00  0.00    +0.000 F 
ATOM     26  C   UNL     1       5.706   5.534  19.230  0.00  0.00    +0.000 A 
ENDBRANCH  19  20
ENDBRANCH   3  19
TORSDOF 4
ENDMDL
MODEL 9
REMARK VINA RESULT:      -7.6      4.691      9.533
REMARK  Name = 
REMARK  5 active torsions:
REMARK  status: ('A' for Active; 'I' for Inactive)
REMARK    1  A    between atoms: C_1  and  N_2
REMARK    2  A    between atoms: C_4  and  C_5
REMARK    3  A    between atoms: N_7  and  C_8
REMARK    4  A    between atoms: N_7  and  C_16
REMARK    5  A    between atoms: C_8  and  C_9
REMARK                            x       y       z     vdW  Elec       q    Type
REMARK                         _______ _______ _______ _____ _____    ______ ____
ROOT
ATOM      1  C   UNL     1      -2.633  12.682  19.753  0.00  0.00    +0.000 C 
ATOM      2  O   UNL     1      -1.776  13.510  20.085  0.00  0.00    +0.000 OA
ATOM      3  N   UNL     1      -2.223  11.611  18.939  0.00  0.00    +0.000 N 
ENDROOT
BRANCH   1   7
ATOM      4  C   UNL     1      -7.535  13.663  19.201  0.00  0.00    +0.000 C 
ATOM      5  N   UNL     1      -6.433  13.289  20.078  0.00  0.00    +0.000 N 
ATOM      6  C   UNL     1      -5.135  13.201  19.594  0.00  0.00    +0.000 A 
ATOM      7  C   UNL     1      -4.059  12.856  20.335  0.00  0.00    +0.000 A 
ATOM      8  C   UNL     1      -4.319  12.730  21.820  0.00  0.00    +0.000 A 
ATOM      9  C   UNL     1      -3.315  12.578  22.793  0.00  0.00    +0.000 A 
ATOM     10  C   UNL     1      -3.602  12.469  24.165  0.00  0.00    +0.000 A 
ATOM     11  C   UNL     1      -4.911  12.495  24.611  0.00  0.00    +0.000 A 
ATOM     12  C   UNL     1      -5.933  12.654  23.688  0.00  0.00    +0.000 A 
ATOM     13  C   UNL     1      -5.636  12.785  22.317  0.00  0.00    +0.000 A 
ATOM     14  C   UNL     1      -6.764  13.060  21.410  0.00  0.00    +0.000 A 
ATOM     15  O   UNL     1      -7.917  13.099  21.840  0.00  0.00    +0.000 OA
ENDBRANCH   1   7
BRANCH   3  16
ATOM     16  C   UNL     1      -3.093  10.714  18.224  0.00  0.00    +0.000 C 
ATOM     17  C   UNL     1      -2.620  10.142  16.911  0.00  0.00    +0.000 C 
ATOM     18  C   UNL     1      -3.842  11.002  16.945  0.00  0.00    +0.000 C 
ENDBRANCH   3  16
BRANCH   3  19
ATOM     19  C   UNL     1      -0.775  11.514  18.634  0.00  0.00    +0.000 C 
BRANCH  19  20
ATOM     20  C   UNL     1      -0.105  10.359  19.344  0.00  0.00    +0.000 A 
ATOM     21  C   UNL     1      -0.413  10.086  20.686  0.00  0.00    +0.000 A 
ATOM     22  C   UNL     1       0.299   9.129  21.407  0.00  0.00    +0.000 A 
ATOM     23  C   UNL     1       1.316   8.411  20.786  0.00  0.00    +0.000 A 
ATOM     24  C   UNL     1       1.578   8.625  19.438  0.00  0.00    +0.000 A 
ATOM     25  F   UNL     1       2.543   7.918  18.836  0.00  0.00    +0.000 F 
ATOM     26  C   UNL     1       0.873   9.580  18.710  0.00  0.00    +0.000 A 
ENDBRANCH  19  20
ENDBRANCH   3  19
TORSDOF 4
ENDMDL
