MODEL 1
REMARK VINA RESULT:      -8.4      0.000      0.000
REMARK  Name = 
REMARK  8 active torsions:
REMARK  status: ('A' for Active; 'I' for Inactive)
REMARK    1  A    between atoms: C_1  and  C_2
REMARK    2  A    between atoms: C_5  and  C_6
REMARK    3  A    between atoms: C_10  and  N_11
REMARK    4  A    between atoms: C_16  and  C_17
REMARK    5  A    between atoms: C_17  and  C_18
REMARK    6  A    between atoms: C_17  and  C_19
REMARK    7  A    between atoms: C_21  and  C_22
REMARK    8  A    between atoms: N_29  and  C_30
REMARK                            x       y       z     vdW  Elec       q    Type
REMARK                         _______ _______ _______ _____ _____    ______ ____
ROOT
ATOM      1  N   UNL     1       3.656   5.223  19.155  0.00  0.00    +0.000 N 
ATOM      2  C   UNL     1       5.061   5.663  19.314  0.00  0.00    +0.000 C 
ATOM      3  C   UNL     1       5.642   5.341  17.974  0.00  0.00    +0.000 A 
ATOM      4  C   UNL     1       4.899   4.289  17.439  0.00  0.00    +0.000 A 
ATOM      5  C   UNL     1       5.093   3.801  16.162  0.00  0.00    +0.000 A 
ATOM      6  C   UNL     1       6.084   4.403  15.375  0.00  0.00    +0.000 A 
ATOM      7  C   UNL     1       6.814   5.497  15.902  0.00  0.00    +0.000 A 
ATOM      8  C   UNL     1       6.607   5.986  17.211  0.00  0.00    +0.000 A 
ATOM      9  C   UNL     1       3.699   4.105  18.284  0.00  0.00    +0.000 C 
ATOM     10  O   UNL     1       2.843   3.263  18.085  0.00  0.00    +0.000 OA
ENDROOT
BRANCH   1  15
ATOM     11  C   UNL     1       1.654   8.258  19.547  0.00  0.00    +0.000 A 
ATOM     12  C   UNL     1       2.181   9.027  18.505  0.00  0.00    +0.000 A 
ATOM     13  C   UNL     1       2.921   8.425  17.496  0.00  0.00    +0.000 A 
ATOM     14  C   UNL     1       3.194   7.066  17.567  0.00  0.00    +0.000 A 
ATOM     15  C   UNL     1       2.829   6.334  18.715  0.00  0.00    +0.000 A 
ATOM     16  C   UNL     1       1.957   6.905  19.647  0.00  0.00    +0.000 A 
BRANCH  11  21
ATOM     17  C   UNL     1      -1.777  11.297  22.970  0.00  0.00    +0.000 C 
ATOM     18  C   UNL     1      -0.607  10.383  23.083  0.00  0.00    +0.000 C 
ATOM     19  C   UNL     1       0.020   9.791  22.062  0.00  0.00    +0.000 C 
ATOM     20  C   UNL     1      -0.104   9.850  20.643  0.00  0.00    +0.000 C 
ATOM     21  C   UNL     1       0.887   8.940  20.616  0.00  0.00    +0.000 C 
ATOM     22  N   UNL     1       0.979   8.925  21.927  0.00  0.00    +0.000 N 
ATOM     23  C   UNL     1       2.203   8.906  22.698  0.00  0.00    +0.000 C 
ENDBRANCH  11  21
ENDBRANCH   1  15
BRANCH   8  24
ATOM     24  C   UNL     1       7.359   7.208  17.672  0.00  0.00    +0.000 C 
ATOM     25  F   UNL     1       8.252   7.690  16.766  0.00  0.00    +0.000 F 
ATOM     26  F   UNL     1       6.527   8.247  17.953  0.00  0.00    +0.000 F 
ATOM     27  F   UNL     1       8.071   6.982  18.812  0.00  0.00    +0.000 F 
ENDBRANCH   8  24
BRANCH   6  28
ATOM     28  C   UNL     1       6.383   3.902  13.972  0.00  0.00    +0.000 C 
ATOM     29  C   UNL     1       5.076   3.701  13.205  0.00  0.00    +0.000 C 
ATOM     30  C   UNL     1       7.339   4.816  13.202  0.00  0.00    +0.000 C 
ENDBRANCH   6  28
TORSDOF 4
ENDMDL
MODEL 2
REMARK VINA RESULT:      -8.3      5.668     11.051
REMARK  Name = 
REMARK  8 active torsions:
REMARK  status: ('A' for Active; 'I' for Inactive)
REMARK    1  A    between atoms: C_1  and  C_2
REMARK    2  A    between atoms: C_5  and  C_6
REMARK    3  A    between atoms: C_10  and  N_11
REMARK    4  A    between atoms: C_16  and  C_17
REMARK    5  A    between atoms: C_17  and  C_18
REMARK    6  A    between atoms: C_17  and  C_19
REMARK    7  A    between atoms: C_21  and  C_22
REMARK    8  A    between atoms: N_29  and  C_30
REMARK                            x       y       z     vdW  Elec       q    Type
REMARK                         _______ _______ _______ _____ _____    ______ ____
ROOT
ATOM      1  N   UNL     1      -1.262  12.496  20.988  0.00  0.00    +0.000 N 
ATOM      2  C   UNL     1      -1.964  13.221  22.073  0.00  0.00    +0.000 C 
ATOM      3  C   UNL     1      -3.400  13.001  21.716  0.00  0.00    +0.000 A 
ATOM      4  C   UNL     1      -3.462  12.808  20.336  0.00  0.00    +0.000 A 
ATOM      5  C   UNL     1      -4.626  12.473  19.672  0.00  0.00    +0.000 A 
ATOM      6  C   UNL     1      -5.792  12.318  20.434  0.00  0.00    +0.000 A 
ATOM      7  C   UNL     1      -5.724  12.477  21.841  0.00  0.00    +0.000 A 
ATOM      8  C   UNL     1      -4.527  12.821  22.508  0.00  0.00    +0.000 A 
ATOM      9  C   UNL     1      -2.079  12.638  19.839  0.00  0.00    +0.000 C 
ATOM     10  O   UNL     1      -1.789  12.451  18.672  0.00  0.00    +0.000 OA
ENDROOT
BRANCH   1  15
ATOM     11  C   UNL     1       0.498   9.291  20.950  0.00  0.00    +0.000 A 
ATOM     12  C   UNL     1       0.667   9.096  22.325  0.00  0.00    +0.000 A 
ATOM     13  C   UNL     1      -0.088   9.826  23.233  0.00  0.00    +0.000 A 
ATOM     14  C   UNL     1      -0.959  10.801  22.768  0.00  0.00    +0.000 A 
ATOM     15  C   UNL     1      -0.982  11.130  21.398  0.00  0.00    +0.000 A 
ATOM     16  C   UNL     1      -0.341  10.294  20.479  0.00  0.00    +0.000 A 
BRANCH  11  21
ATOM     17  C   UNL     1       3.889   5.697  18.066  0.00  0.00    +0.000 C 
ATOM     18  C   UNL     1       3.181   6.989  17.846  0.00  0.00    +0.000 C 
ATOM     19  C   UNL     1       2.425   7.625  18.745  0.00  0.00    +0.000 C 
ATOM     20  C   UNL     1       2.098   7.402  20.116  0.00  0.00    +0.000 C 
ATOM     21  C   UNL     1       1.337   8.508  20.014  0.00  0.00    +0.000 C 
ATOM     22  N   UNL     1       1.673   8.685  18.755  0.00  0.00    +0.000 N 
ATOM     23  C   UNL     1       2.001   9.948  18.128  0.00  0.00    +0.000 C 
ENDBRANCH  11  21
ENDBRANCH   1  15
BRANCH   8  24
ATOM     24  C   UNL     1      -4.511  12.886  24.014  0.00  0.00    +0.000 C 
ATOM     25  F   UNL     1      -3.962  14.024  24.517  0.00  0.00    +0.000 F 
ATOM     26  F   UNL     1      -5.762  12.819  24.543  0.00  0.00    +0.000 F 
ATOM     27  F   UNL     1      -3.814  11.857  24.571  0.00  0.00    +0.000 F 
ENDBRANCH   8  24
BRANCH   6  28
ATOM     28  C   UNL     1      -7.120  11.986  19.775  0.00  0.00    +0.000 C 
ATOM     29  C   UNL     1      -7.044  12.291  18.279  0.00  0.00    +0.000 C 
ATOM     30  C   UNL     1      -7.564  10.541  20.021  0.00  0.00    +0.000 C 
ENDBRANCH   6  28
TORSDOF 4
ENDMDL
MODEL 3
REMARK VINA RESULT:      -8.2      5.327     10.436
REMARK  Name = 
REMARK  8 active torsions:
REMARK  status: ('A' for Active; 'I' for Inactive)
REMARK    1  A    between atoms: C_1  and  C_2
REMARK    2  A    between atoms: C_5  and  C_6
REMARK    3  A    between atoms: C_10  and  N_11
REMARK    4  A    between atoms: C_16  and  C_17
REMARK    5  A    between atoms: C_17  and  C_18
REMARK    6  A    between atoms: C_17  and  C_19
REMARK    7  A    between atoms: C_21  and  C_22
REMARK    8  A    between atoms: N_29  and  C_30
REMARK                            x       y       z     vdW  Elec       q    Type
REMARK                         _______ _______ _______ _____ _____    ______ ____
ROOT
ATOM      1  N   UNL     1      -0.670  11.985  20.016  0.00  0.00    +0.000 N 
ATOM      2  C   UNL     1      -1.265  12.885  21.030  0.00  0.00    +0.000 C 
ATOM      3  C   UNL     1      -2.729  12.712  20.781  0.00  0.00    +0.000 A 
ATOM      4  C   UNL     1      -2.884  12.349  19.442  0.00  0.00    +0.000 A 
ATOM      5  C   UNL     1      -4.102  12.006  18.889  0.00  0.00    +0.000 A 
ATOM      6  C   UNL     1      -5.227  12.023  19.724  0.00  0.00    +0.000 A 
ATOM      7  C   UNL     1      -5.067  12.355  21.092  0.00  0.00    +0.000 A 
ATOM      8  C   UNL     1      -3.816  12.705  21.646  0.00  0.00    +0.000 A 
ATOM      9  C   UNL     1      -1.544  12.030  18.901  0.00  0.00    +0.000 C 
ATOM     10  O   UNL     1      -1.335  11.678  17.755  0.00  0.00    +0.000 OA
ENDROOT
BRANCH   1  15
ATOM     11  C   UNL     1       1.041   8.782  20.448  0.00  0.00    +0.000 A 
ATOM     12  C   UNL     1       1.100   8.730  21.845  0.00  0.00    +0.000 A 
ATOM     13  C   UNL     1       0.288   9.556  22.610  0.00  0.00    +0.000 A 
ATOM     14  C   UNL     1      -0.530  10.484  21.980  0.00  0.00    +0.000 A 
ATOM     15  C   UNL     1      -0.442  10.667  20.586  0.00  0.00    +0.000 A 
ATOM     16  C   UNL     1       0.256   9.735  19.811  0.00  0.00    +0.000 A 
BRANCH  11  21
ATOM     17  C   UNL     1       4.458   6.042  16.769  0.00  0.00    +0.000 C 
ATOM     18  C   UNL     1       3.821   5.805  18.093  0.00  0.00    +0.000 C 
ATOM     19  C   UNL     1       3.033   6.667  18.742  0.00  0.00    +0.000 C 
ATOM     20  C   UNL     1       2.489   7.950  18.439  0.00  0.00    +0.000 C 
ATOM     21  C   UNL     1       1.938   7.899  19.666  0.00  0.00    +0.000 C 
ATOM     22  N   UNL     1       2.447   6.711  19.902  0.00  0.00    +0.000 N 
ATOM     23  C   UNL     1       1.770   5.601  20.538  0.00  0.00    +0.000 C 
ENDBRANCH  11  21
ENDBRANCH   1  15
BRANCH   8  24
ATOM     24  C   UNL     1      -3.707  12.961  23.127  0.00  0.00    +0.000 C 
ATOM     25  F   UNL     1      -4.902  13.002  23.776  0.00  0.00    +0.000 F 
ATOM     26  F   UNL     1      -2.980  12.001  23.761  0.00  0.00    +0.000 F 
ATOM     27  F   UNL     1      -3.089  14.142  23.407  0.00  0.00    +0.000 F 
ENDBRANCH   8  24
BRANCH   6  28
ATOM     28  C   UNL     1      -6.608  11.694  19.184  0.00  0.00    +0.000 C 
ATOM     29  C   UNL     1      -6.790  12.332  17.806  0.00  0.00    +0.000 C 
ATOM     30  C   UNL     1      -6.887  10.189  19.134  0.00  0.00    +0.000 C 
ENDBRANCH   6  28
TORSDOF 4
ENDMDL
MODEL 4
REMARK VINA RESULT:      -8.1      0.725      1.191
REMARK  Name = 
REMARK  8 active torsions:
REMARK  status: ('A' for Active; 'I' for Inactive)
REMARK    1  A    between atoms: C_1  and  C_2
REMARK    2  A    between atoms: C_5  and  C_6
REMARK    3  A    between atoms: C_10  and  N_11
REMARK    4  A    between atoms: C_16  and  C_17
REMARK    5  A    between atoms: C_17  and  C_18
REMARK    6  A    between atoms: C_17  and  C_19
REMARK    7  A    between atoms: C_21  and  C_22
REMARK    8  A    between atoms: N_29  and  C_30
REMARK                            x       y       z     vdW  Elec       q    Type
REMARK                         _______ _______ _______ _____ _____    ______ ____
ROOT
ATOM      1  N   UNL     1       3.621   5.297  18.941  0.00  0.00    +0.000 N 
ATOM      2  C   UNL     1       5.022   5.716  19.180  0.00  0.00    +0.000 C 
ATOM      3  C   UNL     1       5.674   5.381  17.876  0.00  0.00    +0.000 A 
ATOM      4  C   UNL     1       4.947   4.338  17.302  0.00  0.00    +0.000 A 
ATOM      5  C   UNL     1       5.207   3.843  16.040  0.00  0.00    +0.000 A 
ATOM      6  C   UNL     1       6.251   4.428  15.309  0.00  0.00    +0.000 A 
ATOM      7  C   UNL     1       6.966   5.512  15.875  0.00  0.00    +0.000 A 
ATOM      8  C   UNL     1       6.692   6.009  17.169  0.00  0.00    +0.000 A 
ATOM      9  C   UNL     1       3.697   4.177  18.077  0.00  0.00    +0.000 C 
ATOM     10  O   UNL     1       2.842   3.346  17.830  0.00  0.00    +0.000 OA
ENDROOT
BRANCH   1  15
ATOM     11  C   UNL     1       1.760   8.435  19.191  0.00  0.00    +0.000 A 
ATOM     12  C   UNL     1       2.308   9.124  18.105  0.00  0.00    +0.000 A 
ATOM     13  C   UNL     1       3.007   8.437  17.121  0.00  0.00    +0.000 A 
ATOM     14  C   UNL     1       3.220   7.073  17.262  0.00  0.00    +0.000 A 
ATOM     15  C   UNL     1       2.839   6.420  18.450  0.00  0.00    +0.000 A 
ATOM     16  C   UNL     1       2.004   7.077  19.360  0.00  0.00    +0.000 A 
BRANCH  11  21
ATOM     17  C   UNL     1      -1.390  10.582  23.457  0.00  0.00    +0.000 C 
ATOM     18  C   UNL     1      -0.502  11.069  22.366  0.00  0.00    +0.000 C 
ATOM     19  C   UNL     1       0.129  10.300  21.474  0.00  0.00    +0.000 C 
ATOM     20  C   UNL     1       0.144   8.902  21.191  0.00  0.00    +0.000 C 
ATOM     21  C   UNL     1       1.038   9.206  20.230  0.00  0.00    +0.000 C 
ATOM     22  N   UNL     1       0.985  10.488  20.515  0.00  0.00    +0.000 N 
ATOM     23  C   UNL     1       0.945  11.574  19.559  0.00  0.00    +0.000 C 
ENDBRANCH  11  21
ENDBRANCH   1  15
BRANCH   8  24
ATOM     24  C   UNL     1       7.435   7.221  17.670  0.00  0.00    +0.000 C 
ATOM     25  F   UNL     1       8.144   7.008  18.811  0.00  0.00    +0.000 F 
ATOM     26  F   UNL     1       8.335   7.682  16.761  0.00  0.00    +0.000 F 
ATOM     27  F   UNL     1       6.604   8.267  17.937  0.00  0.00    +0.000 F 
ENDBRANCH   8  24
BRANCH   6  28
ATOM     28  C   UNL     1       6.623   3.916  13.928  0.00  0.00    +0.000 C 
ATOM     29  C   UNL     1       5.355   3.585  13.141  0.00  0.00    +0.000 C 
ATOM     30  C   UNL     1       7.515   4.889  13.151  0.00  0.00    +0.000 C 
ENDBRANCH   6  28
TORSDOF 4
ENDMDL
MODEL 5
REMARK VINA RESULT:      -7.9      5.299     10.545
REMARK  Name = 
REMARK  8 active torsions:
REMARK  status: ('A' for Active; 'I' for Inactive)
REMARK    1  A    between atoms: C_1  and  C_2
REMARK    2  A    between atoms: C_5  and  C_6
REMARK    3  A    between atoms: C_10  and  N_11
REMARK    4  A    between atoms: C_16  and  C_17
REMARK    5  A    between atoms: C_17  and  C_18
REMARK    6  A    between atoms: C_17  and  C_19
REMARK    7  A    between atoms: C_21  and  C_22
REMARK    8  A    between atoms: N_29  and  C_30
REMARK                            x       y       z     vdW  Elec       q    Type
REMARK                         _______ _______ _______ _____ _____    ______ ____
ROOT
ATOM      1  N   UNL     1      -0.880  11.954  19.328  0.00  0.00    +0.000 N 
ATOM      2  C   UNL     1      -1.305  12.910  20.376  0.00  0.00    +0.000 C 
ATOM      3  C   UNL     1      -2.790  12.730  20.379  0.00  0.00    +0.000 A 
ATOM      4  C   UNL     1      -3.160  12.295  19.105  0.00  0.00    +0.000 A 
ATOM      5  C   UNL     1      -4.450  11.929  18.779  0.00  0.00    +0.000 A 
ATOM      6  C   UNL     1      -5.424  11.995  19.784  0.00  0.00    +0.000 A 
ATOM      7  C   UNL     1      -5.044  12.399  21.088  0.00  0.00    +0.000 A 
ATOM      8  C   UNL     1      -3.720  12.774  21.410  0.00  0.00    +0.000 A 
ATOM      9  C   UNL     1      -1.925  11.943  18.371  0.00  0.00    +0.000 C 
ATOM     10  O   UNL     1      -1.905  11.529  17.226  0.00  0.00    +0.000 OA
ENDROOT
BRANCH   1  15
ATOM     11  C   UNL     1       1.084   8.913  19.846  0.00  0.00    +0.000 A 
ATOM     12  C   UNL     1       1.114   8.885  21.245  0.00  0.00    +0.000 A 
ATOM     13  C   UNL     1       0.218   9.650  21.980  0.00  0.00    +0.000 A 
ATOM     14  C   UNL     1      -0.660  10.496  21.317  0.00  0.00    +0.000 A 
ATOM     15  C   UNL     1      -0.556  10.668  19.923  0.00  0.00    +0.000 A 
ATOM     16  C   UNL     1       0.236   9.788  19.178  0.00  0.00    +0.000 A 
BRANCH  11  21
ATOM     17  C   UNL     1       4.861   6.461  16.319  0.00  0.00    +0.000 C 
ATOM     18  C   UNL     1       4.144   6.146  17.586  0.00  0.00    +0.000 C 
ATOM     19  C   UNL     1       3.277   6.949  18.209  0.00  0.00    +0.000 C 
ATOM     20  C   UNL     1       2.701   8.221  17.915  0.00  0.00    +0.000 C 
ATOM     21  C   UNL     1       2.069   8.099  19.098  0.00  0.00    +0.000 C 
ATOM     22  N   UNL     1       2.612   6.923  19.325  0.00  0.00    +0.000 N 
ATOM     23  C   UNL     1       1.940   5.763  19.870  0.00  0.00    +0.000 C 
ENDBRANCH  11  21
ENDBRANCH   1  15
BRANCH   8  24
ATOM     24  C   UNL     1      -3.371  13.108  22.838  0.00  0.00    +0.000 C 
ATOM     25  F   UNL     1      -2.702  14.283  22.988  0.00  0.00    +0.000 F 
ATOM     26  F   UNL     1      -4.476  13.213  23.625  0.00  0.00    +0.000 F 
ATOM     27  F   UNL     1      -2.589  12.156  23.418  0.00  0.00    +0.000 F 
ENDBRANCH   8  24
BRANCH   6  28
ATOM     28  C   UNL     1      -6.873  11.642  19.496  0.00  0.00    +0.000 C 
ATOM     29  C   UNL     1      -7.623  11.424  20.811  0.00  0.00    +0.000 C 
ATOM     30  C   UNL     1      -7.580  12.685  18.625  0.00  0.00    +0.000 C 
ENDBRANCH   6  28
TORSDOF 4
ENDMDL
MODEL 6
REMARK VINA RESULT:      -7.9      5.524     10.849
REMARK  Name = 
REMARK  8 active torsions:
REMARK  status: ('A' for Active; 'I' for Inactive)
REMARK    1  A    between atoms: C_1  and  C_2
REMARK    2  A    between atoms: C_5  and  C_6
REMARK    3  A    between atoms: C_10  and  N_11
REMARK    4  A    between atoms: C_16  and  C_17
REMARK    5  A    between atoms: C_17  and  C_18
REMARK    6  A    between atoms: C_17  and  C_19
REMARK    7  A    between atoms: C_21  and  C_22
REMARK    8  A    between atoms: N_29  and  C_30
REMARK                            x       y       z     vdW  Elec       q    Type
REMARK                         _______ _______ _______ _____ _____    ______ ____
ROOT
ATOM      1  N   UNL     1      -0.995  12.288  20.376  0.00  0.00    +0.000 N 
ATOM      2  C   UNL     1      -1.593  13.139  21.431  0.00  0.00    +0.000 C 
ATOM      3  C   UNL     1      -3.057  12.961  21.184  0.00  0.00    +0.000 A 
ATOM      4  C   UNL     1      -3.217  12.650  19.833  0.00  0.00    +0.000 A 
ATOM      5  C   UNL     1      -4.435  12.317  19.275  0.00  0.00    +0.000 A 
ATOM      6  C   UNL     1      -5.555  12.288  20.117  0.00  0.00    +0.000 A 
ATOM      7  C   UNL     1      -5.389  12.566  21.496  0.00  0.00    +0.000 A 
ATOM      8  C   UNL     1      -4.137  12.907  22.056  0.00  0.00    +0.000 A 
ATOM      9  C   UNL     1      -1.878  12.369  19.270  0.00  0.00    +0.000 C 
ATOM     10  O   UNL     1      -1.673  12.066  18.109  0.00  0.00    +0.000 OA
ENDROOT
BRANCH   1  15
ATOM     11  C   UNL     1       0.705   9.058  20.610  0.00  0.00    +0.000 A 
ATOM     12  C   UNL     1       0.841   8.961  21.999  0.00  0.00    +0.000 A 
ATOM     13  C   UNL     1       0.080   9.769  22.835  0.00  0.00    +0.000 A 
ATOM     14  C   UNL     1      -0.762  10.723  22.280  0.00  0.00    +0.000 A 
ATOM     15  C   UNL     1      -0.750  10.951  20.890  0.00  0.00    +0.000 A 
ATOM     16  C   UNL     1      -0.105  10.039  20.049  0.00  0.00    +0.000 A 
BRANCH  11  21
ATOM     17  C   UNL     1       4.046   5.179  18.059  0.00  0.00    +0.000 C 
ATOM     18  C   UNL     1       3.418   6.493  17.749  0.00  0.00    +0.000 C 
ATOM     19  C   UNL     1       2.651   7.204  18.581  0.00  0.00    +0.000 C 
ATOM     20  C   UNL     1       2.245   7.058  19.940  0.00  0.00    +0.000 C 
ATOM     21  C   UNL     1       1.548   8.194  19.752  0.00  0.00    +0.000 C 
ATOM     22  N   UNL     1       1.956   8.300  18.507  0.00  0.00    +0.000 N 
ATOM     23  C   UNL     1       2.380   9.516  17.847  0.00  0.00    +0.000 C 
ENDBRANCH  11  21
ENDBRANCH   1  15
BRANCH   8  24
ATOM     24  C   UNL     1      -4.020  13.103  23.545  0.00  0.00    +0.000 C 
ATOM     25  F   UNL     1      -3.316  12.128  24.183  0.00  0.00    +0.000 F 
ATOM     26  F   UNL     1      -3.396  14.270  23.861  0.00  0.00    +0.000 F 
ATOM     27  F   UNL     1      -5.234  13.150  24.161  0.00  0.00    +0.000 F 
ENDBRANCH   8  24
BRANCH   6  28
ATOM     28  C   UNL     1      -6.936  11.966  19.573  0.00  0.00    +0.000 C 
ATOM     29  C   UNL     1      -7.857  13.173  19.755  0.00  0.00    +0.000 C 
ATOM     30  C   UNL     1      -6.911  11.507  18.112  0.00  0.00    +0.000 C 
ENDBRANCH   6  28
TORSDOF 4
ENDMDL
MODEL 7
REMARK VINA RESULT:      -7.8      6.748      9.725
REMARK  Name = 
REMARK  8 active torsions:
REMARK  status: ('A' for Active; 'I' for Inactive)
REMARK    1  A    between atoms: C_1  and  C_2
REMARK    2  A    between atoms: C_5  and  C_6
REMARK    3  A    between atoms: C_10  and  N_11
REMARK    4  A    between atoms: C_16  and  C_17
REMARK    5  A    between atoms: C_17  and  C_18
REMARK    6  A    between atoms: C_17  and  C_19
REMARK    7  A    between atoms: C_21  and  C_22
REMARK    8  A    between atoms: N_29  and  C_30
REMARK                            x       y       z     vdW  Elec       q    Type
REMARK                         _______ _______ _______ _____ _____    ______ ____
ROOT
ATOM      1  N   UNL     1      -0.288  11.204  18.327  0.00  0.00    +0.000 N 
ATOM      2  C   UNL     1       0.415  10.387  19.344  0.00  0.00    +0.000 C 
ATOM      3  C   UNL     1       0.020  11.066  20.616  0.00  0.00    +0.000 A 
ATOM      4  C   UNL     1      -0.255  12.399  20.310  0.00  0.00    +0.000 A 
ATOM      5  C   UNL     1      -0.750  13.299  21.232  0.00  0.00    +0.000 A 
ATOM      6  C   UNL     1      -0.990  12.837  22.534  0.00  0.00    +0.000 A 
ATOM      7  C   UNL     1      -0.748  11.474  22.838  0.00  0.00    +0.000 A 
ATOM      8  C   UNL     1      -0.238  10.564  21.886  0.00  0.00    +0.000 A 
ATOM      9  C   UNL     1      -0.300  12.526  18.836  0.00  0.00    +0.000 C 
ATOM     10  O   UNL     1      -0.518  13.567  18.245  0.00  0.00    +0.000 OA
ENDROOT
BRANCH   1  15
ATOM     11  C   UNL     1      -3.939  11.121  18.147  0.00  0.00    +0.000 A 
ATOM     12  C   UNL     1      -4.102  10.624  16.850  0.00  0.00    +0.000 A 
ATOM     13  C   UNL     1      -3.042  10.008  16.198  0.00  0.00    +0.000 A 
ATOM     14  C   UNL     1      -1.800   9.955  16.815  0.00  0.00    +0.000 A 
ATOM     15  C   UNL     1      -1.590  10.628  18.035  0.00  0.00    +0.000 A 
ATOM     16  C   UNL     1      -2.689  11.109  18.754  0.00  0.00    +0.000 A 
BRANCH  11  21
ATOM     17  C   UNL     1      -7.753  14.364  20.915  0.00  0.00    +0.000 C 
ATOM     18  C   UNL     1      -7.694  13.044  20.229  0.00  0.00    +0.000 C 
ATOM     19  C   UNL     1      -6.614  12.518  19.645  0.00  0.00    +0.000 C 
ATOM     20  C   UNL     1      -5.248  12.912  19.528  0.00  0.00    +0.000 C 
ATOM     21  C   UNL     1      -5.088  11.790  18.801  0.00  0.00    +0.000 C 
ATOM     22  N   UNL     1      -6.352  11.456  18.943  0.00  0.00    +0.000 N 
ATOM     23  C   UNL     1      -6.860  10.129  19.214  0.00  0.00    +0.000 C 
ENDBRANCH  11  21
ENDBRANCH   1  15
BRANCH   8  24
ATOM     24  C   UNL     1      -0.089   9.110  22.256  0.00  0.00    +0.000 C 
ATOM     25  F   UNL     1       1.162   8.611  22.061  0.00  0.00    +0.000 F 
ATOM     26  F   UNL     1      -0.373   8.884  23.567  0.00  0.00    +0.000 F 
ATOM     27  F   UNL     1      -0.928   8.304  21.548  0.00  0.00    +0.000 F 
ENDBRANCH   8  24
BRANCH   6  28
ATOM     28  C   UNL     1      -1.501  13.772  23.616  0.00  0.00    +0.000 C 
ATOM     29  C   UNL     1      -0.968  15.184  23.372  0.00  0.00    +0.000 C 
ATOM     30  C   UNL     1      -3.028  13.773  23.732  0.00  0.00    +0.000 C 
ENDBRANCH   6  28
TORSDOF 4
ENDMDL
MODEL 8
REMARK VINA RESULT:      -7.8      5.493      8.807
REMARK  Name = 
REMARK  8 active torsions:
REMARK  status: ('A' for Active; 'I' for Inactive)
REMARK    1  A    between atoms: C_1  and  C_2
REMARK    2  A    between atoms: C_5  and  C_6
REMARK    3  A    between atoms: C_10  and  N_11
REMARK    4  A    between atoms: C_16  and  C_17
REMARK    5  A    between atoms: C_17  and  C_18
REMARK    6  A    between atoms: C_17  and  C_19
REMARK    7  A    between atoms: C_21  and  C_22
REMARK    8  A    between atoms: N_29  and  C_30
REMARK                            x       y       z     vdW  Elec       q    Type
REMARK                         _______ _______ _______ _____ _____    ______ ____
ROOT
ATOM      1  N   UNL     1      -1.346  12.943  22.480  0.00  0.00    +0.000 N 
ATOM      2  C   UNL     1      -0.199  13.619  21.829  0.00  0.00    +0.000 C 
ATOM      3  C   UNL     1       0.355  12.530  20.966  0.00  0.00    +0.000 A 
ATOM      4  C   UNL     1       0.020  11.314  21.562  0.00  0.00    +0.000 A 
ATOM      5  C   UNL     1       0.283  10.090  20.979  0.00  0.00    +0.000 A 
ATOM      6  C   UNL     1       0.913  10.084  19.727  0.00  0.00    +0.000 A 
ATOM      7  C   UNL     1       1.219  11.318  19.102  0.00  0.00    +0.000 A 
ATOM      8  C   UNL     1       0.947  12.564  19.710  0.00  0.00    +0.000 A 
ATOM      9  C   UNL     1      -0.956  11.590  22.640  0.00  0.00    +0.000 C 
ATOM     10  O   UNL     1      -1.446  10.736  23.354  0.00  0.00    +0.000 OA
ENDROOT
BRANCH   1  15
ATOM     11  C   UNL     1      -3.740  12.362  19.778  0.00  0.00    +0.000 A 
ATOM     12  C   UNL     1      -4.931  12.353  20.512  0.00  0.00    +0.000 A 
ATOM     13  C   UNL     1      -4.963  12.872  21.800  0.00  0.00    +0.000 A 
ATOM     14  C   UNL     1      -3.789  13.335  22.378  0.00  0.00    +0.000 A 
ATOM     15  C   UNL     1      -2.560  13.163  21.711  0.00  0.00    +0.000 A 
ATOM     16  C   UNL     1      -2.554  12.785  20.365  0.00  0.00    +0.000 A 
BRANCH  11  21
ATOM     17  C   UNL     1      -2.816  10.034  14.635  0.00  0.00    +0.000 C 
ATOM     18  C   UNL     1      -3.944  10.614  15.415  0.00  0.00    +0.000 C 
ATOM     19  C   UNL     1      -3.861  11.106  16.654  0.00  0.00    +0.000 C 
ATOM     20  C   UNL     1      -2.794  11.323  17.576  0.00  0.00    +0.000 C 
ATOM     21  C   UNL     1      -3.742  11.780  18.416  0.00  0.00    +0.000 C 
ATOM     22  N   UNL     1      -4.694  11.577  17.533  0.00  0.00    +0.000 N 
ATOM     23  C   UNL     1      -5.797  12.469  17.245  0.00  0.00    +0.000 C 
ENDBRANCH  11  21
ENDBRANCH   1  15
BRANCH   8  24
ATOM     24  C   UNL     1       1.220  13.835  18.948  0.00  0.00    +0.000 C 
ATOM     25  F   UNL     1       0.102  14.517  18.579  0.00  0.00    +0.000 F 
ATOM     26  F   UNL     1       1.964  14.716  19.671  0.00  0.00    +0.000 F 
ATOM     27  F   UNL     1       1.918  13.613  17.799  0.00  0.00    +0.000 F 
ENDBRANCH   8  24
BRANCH   6  28
ATOM     28  C   UNL     1       1.269   8.779  19.036  0.00  0.00    +0.000 C 
ATOM     29  C   UNL     1       2.150   9.062  17.819  0.00  0.00    +0.000 C 
ATOM     30  C   UNL     1       1.934   7.768  19.974  0.00  0.00    +0.000 C 
ENDBRANCH   6  28
TORSDOF 4
ENDMDL
MODEL 9
REMARK VINA RESULT:      -7.6      4.533      8.870
REMARK  Name = 
REMARK  8 active torsions:
REMARK  status: ('A' for Active; 'I' for Inactive)
REMARK    1  A    between atoms: C_1  and  C_2
REMARK    2  A    between atoms: C_5  and  C_6
REMARK    3  A    between atoms: C_10  and  N_11
REMARK    4  A    between atoms: C_16  and  C_17
REMARK    5  A    between atoms: C_17  and  C_18
REMARK    6  A    between atoms: C_17  and  C_19
REMARK    7  A    between atoms: C_21  and  C_22
REMARK    8  A    between atoms: N_29  and  C_30
REMARK                            x       y       z     vdW  Elec       q    Type
REMARK                         _______ _______ _______ _____ _____    ______ ____
ROOT
ATOM      1  N   UNL     1       0.168   9.362  20.744  0.00  0.00    +0.000 N 
ATOM      2  C   UNL     1      -1.052   9.415  19.906  0.00  0.00    +0.000 C 
ATOM      3  C   UNL     1      -1.048  10.835  19.438  0.00  0.00    +0.000 A 
ATOM      4  C   UNL     1      -0.368  11.588  20.397  0.00  0.00    +0.000 A 
ATOM      5  C   UNL     1      -0.083  12.929  20.240  0.00  0.00    +0.000 A 
ATOM      6  C   UNL     1      -0.497  13.552  19.054  0.00  0.00    +0.000 A 
ATOM      7  C   UNL     1      -1.154  12.782  18.063  0.00  0.00    +0.000 A 
ATOM      8  C   UNL     1      -1.442  11.410  18.236  0.00  0.00    +0.000 A 
ATOM      9  C   UNL     1       0.288  10.646  21.331  0.00  0.00    +0.000 C 
ATOM     10  O   UNL     1       0.962  10.987  22.285  0.00  0.00    +0.000 OA
ENDROOT
BRANCH   1  15
ATOM     11  C   UNL     1       2.409   6.934  19.176  0.00  0.00    +0.000 A 
ATOM     12  C   UNL     1       2.499   7.487  17.895  0.00  0.00    +0.000 A 
ATOM     13  C   UNL     1       2.116   8.803  17.672  0.00  0.00    +0.000 A 
ATOM     14  C   UNL     1       1.575   9.542  18.715  0.00  0.00    +0.000 A 
ATOM     15  C   UNL     1       1.303   8.922  19.950  0.00  0.00    +0.000 A 
ATOM     16  C   UNL     1       1.829   7.654  20.214  0.00  0.00    +0.000 A 
BRANCH  11  21
ATOM     17  C   UNL     1       4.750   1.830  20.268  0.00  0.00    +0.000 C 
ATOM     18  C   UNL     1       3.523   2.386  19.634  0.00  0.00    +0.000 C 
ATOM     19  C   UNL     1       3.229   3.684  19.515  0.00  0.00    +0.000 C 
ATOM     20  C   UNL     1       3.911   4.898  19.826  0.00  0.00    +0.000 C 
ATOM     21  C   UNL     1       2.808   5.520  19.369  0.00  0.00    +0.000 C 
ATOM     22  N   UNL     1       2.219   4.380  19.085  0.00  0.00    +0.000 N 
ATOM     23  C   UNL     1       1.450   4.089  17.894  0.00  0.00    +0.000 C 
ENDBRANCH  11  21
ENDBRANCH   1  15
BRANCH   8  24
ATOM     24  C   UNL     1      -2.064  10.635  17.103  0.00  0.00    +0.000 C 
ATOM     25  F   UNL     1      -2.287  11.370  15.980  0.00  0.00    +0.000 F 
ATOM     26  F   UNL     1      -1.287   9.590  16.709  0.00  0.00    +0.000 F 
ATOM     27  F   UNL     1      -3.269  10.097  17.441  0.00  0.00    +0.000 F 
ENDBRANCH   8  24
BRANCH   6  28
ATOM     28  C   UNL     1      -0.253  15.033  18.821  0.00  0.00    +0.000 C 
ATOM     29  C   UNL     1      -1.026  15.853  19.854  0.00  0.00    +0.000 C 
ATOM     30  C   UNL     1       1.233  15.402  18.826  0.00  0.00    +0.000 C 
ENDBRANCH   6  28
TORSDOF 4
ENDMDL
