MODEL 1
REMARK VINA RESULT:      -9.2      0.000      0.000
REMARK  Name = 
REMARK  3 active torsions:
REMARK  status: ('A' for Active; 'I' for Inactive)
REMARK    1  A    between atoms: C_2  and  C_13
REMARK    2  A    between atoms: N_3  and  C_4
REMARK    3  A    between atoms: N_15  and  C_16
REMARK                            x       y       z     vdW  Elec       q    Type
REMARK                         _______ _______ _______ _____ _____    ______ ____
ROOT
ATOM      1  C   UNL     1       2.922   5.936  18.611  0.00  0.00    +0.000 A 
ATOM      2  N   UNL     1       3.881   5.876  17.732  0.00  0.00    +0.000 NA
ATOM      3  N   UNL     1       4.394   4.630  17.389  0.00  0.00    +0.000 N 
ATOM      4  C   UNL     1       3.937   3.423  17.941  0.00  0.00    +0.000 A 
ATOM      5  O   UNL     1       4.313   2.291  17.642  0.00  0.00    +0.000 OA
ATOM      6  C   UNL     1       2.949   3.529  19.026  0.00  0.00    +0.000 A 
ATOM      7  C   UNL     1       2.539   2.370  19.708  0.00  0.00    +0.000 A 
ATOM      8  C   UNL     1       1.616   2.456  20.747  0.00  0.00    +0.000 A 
ATOM      9  C   UNL     1       1.099   3.696  21.104  0.00  0.00    +0.000 A 
ATOM     10  C   UNL     1       1.510   4.849  20.429  0.00  0.00    +0.000 A 
ATOM     11  C   UNL     1       2.435   4.768  19.378  0.00  0.00    +0.000 A 
ENDROOT
BRANCH   3  12
ATOM     12  C   UNL     1       5.328   4.665  16.300  0.00  0.00    +0.000 A 
ATOM     13  C   UNL     1       4.964   4.275  15.000  0.00  0.00    +0.000 A 
ATOM     14  C   UNL     1       5.878   4.329  13.943  0.00  0.00    +0.000 A 
ATOM     15  C   UNL     1       7.179   4.758  14.170  0.00  0.00    +0.000 A 
ATOM     16  C   UNL     1       7.565   5.144  15.451  0.00  0.00    +0.000 A 
ATOM     17  C   UNL     1       6.643   5.110  16.504  0.00  0.00    +0.000 A 
ENDBRANCH   3  12
BRANCH   1  19
ATOM     18  O   UNL     1       2.142   8.011  17.806  0.00  0.00    +0.000 OA
ATOM     19  C   UNL     1       2.225   7.287  18.788  0.00  0.00    +0.000 C 
ATOM     20  N   UNL     1       1.828   7.591  20.079  0.00  0.00    +0.000 N 
ATOM     21  H   UNL     1       2.224   7.013  20.815  0.00  0.00    +0.000 HD
BRANCH  20  22
ATOM     22  C   UNL     1       1.157   8.786  20.438  0.00  0.00    +0.000 A 
ATOM     23  C   UNL     1       1.255   9.964  19.662  0.00  0.00    +0.000 A 
ATOM     24  C   UNL     1       0.646  11.159  20.059  0.00  0.00    +0.000 A 
ATOM     25  C   UNL     1      -0.058  11.151  21.238  0.00  0.00    +0.000 A 
ATOM     26  C   UNL     1      -0.195  10.007  21.986  0.00  0.00    +0.000 A 
ATOM     27  C   UNL     1       0.379   8.805  21.605  0.00  0.00    +0.000 A 
ATOM     28  O   UNL     1      -0.921  10.223  23.117  0.00  0.00    +0.000 OA
ATOM     29  C   UNL     1      -1.153  11.648  23.026  0.00  0.00    +0.000 C 
ATOM     30  O   UNL     1      -0.676  12.225  21.795  0.00  0.00    +0.000 OA
ENDBRANCH  20  22
ENDBRANCH   1  19
TORSDOF 3
ENDMDL
MODEL 2
REMARK VINA RESULT:      -9.1      1.856      2.108
REMARK  Name = 
REMARK  3 active torsions:
REMARK  status: ('A' for Active; 'I' for Inactive)
REMARK    1  A    between atoms: C_2  and  C_13
REMARK    2  A    between atoms: N_3  and  C_4
REMARK    3  A    between atoms: N_15  and  C_16
REMARK                            x       y       z     vdW  Elec       q    Type
REMARK                         _______ _______ _______ _____ _____    ______ ____
ROOT
ATOM      1  C   UNL     1       2.984   5.946  18.796  0.00  0.00    +0.000 A 
ATOM      2  N   UNL     1       3.932   5.898  17.905  0.00  0.00    +0.000 NA
ATOM      3  N   UNL     1       4.324   4.656  17.416  0.00  0.00    +0.000 N 
ATOM      4  C   UNL     1       3.755   3.443  17.832  0.00  0.00    +0.000 A 
ATOM      5  O   UNL     1       4.022   2.322  17.401  0.00  0.00    +0.000 OA
ATOM      6  C   UNL     1       2.782   3.516  18.933  0.00  0.00    +0.000 A 
ATOM      7  C   UNL     1       2.264   2.331  19.483  0.00  0.00    +0.000 A 
ATOM      8  C   UNL     1       1.355   2.383  20.536  0.00  0.00    +0.000 A 
ATOM      9  C   UNL     1       0.958   3.617  21.038  0.00  0.00    +0.000 A 
ATOM     10  C   UNL     1       1.476   4.796  20.495  0.00  0.00    +0.000 A 
ATOM     11  C   UNL     1       2.389   4.750  19.430  0.00  0.00    +0.000 A 
ENDROOT
BRANCH   3  12
ATOM     12  C   UNL     1       5.256   4.728  16.327  0.00  0.00    +0.000 A 
ATOM     13  C   UNL     1       6.588   5.130  16.519  0.00  0.00    +0.000 A 
ATOM     14  C   UNL     1       7.492   5.180  15.453  0.00  0.00    +0.000 A 
ATOM     15  C   UNL     1       7.076   4.845  14.171  0.00  0.00    +0.000 A 
ATOM     16  C   UNL     1       5.759   4.449  13.956  0.00  0.00    +0.000 A 
ATOM     17  C   UNL     1       4.860   4.378  15.027  0.00  0.00    +0.000 A 
ENDBRANCH   3  12
BRANCH   1  19
ATOM     18  O   UNL     1       2.232   7.587  20.315  0.00  0.00    +0.000 OA
ATOM     19  C   UNL     1       2.419   7.328  19.135  0.00  0.00    +0.000 C 
ATOM     20  N   UNL     1       2.097   8.125  18.049  0.00  0.00    +0.000 N 
ATOM     21  H   UNL     1       2.048   7.654  17.150  0.00  0.00    +0.000 HD
BRANCH  20  22
ATOM     22  C   UNL     1       1.575   9.438  18.160  0.00  0.00    +0.000 A 
ATOM     23  C   UNL     1       2.398  10.583  18.055  0.00  0.00    +0.000 A 
ATOM     24  C   UNL     1       1.888  11.874  18.234  0.00  0.00    +0.000 A 
ATOM     25  C   UNL     1       0.549  11.993  18.515  0.00  0.00    +0.000 A 
ATOM     26  C   UNL     1      -0.273  10.893  18.583  0.00  0.00    +0.000 A 
ATOM     27  C   UNL     1       0.202   9.606  18.388  0.00  0.00    +0.000 A 
ATOM     28  O   UNL     1      -1.556  11.236  18.881  0.00  0.00    +0.000 OA
ATOM     29  C   UNL     1      -1.423  12.663  19.068  0.00  0.00    +0.000 C 
ATOM     30  O   UNL     1      -0.106  13.158  18.757  0.00  0.00    +0.000 OA
ENDBRANCH  20  22
ENDBRANCH   1  19
TORSDOF 3
ENDMDL
MODEL 3
REMARK VINA RESULT:      -9.1      2.787      8.597
REMARK  Name = 
REMARK  3 active torsions:
REMARK  status: ('A' for Active; 'I' for Inactive)
REMARK    1  A    between atoms: C_2  and  C_13
REMARK    2  A    between atoms: N_3  and  C_4
REMARK    3  A    between atoms: N_15  and  C_16
REMARK                            x       y       z     vdW  Elec       q    Type
REMARK                         _______ _______ _______ _____ _____    ______ ____
ROOT
ATOM      1  C   UNL     1       1.190  10.254  19.159  0.00  0.00    +0.000 A 
ATOM      2  N   UNL     1       1.501  11.434  18.705  0.00  0.00    +0.000 NA
ATOM      3  N   UNL     1       1.344  12.534  19.543  0.00  0.00    +0.000 N 
ATOM      4  C   UNL     1       0.862  12.445  20.858  0.00  0.00    +0.000 A 
ATOM      5  O   UNL     1       0.750  13.370  21.661  0.00  0.00    +0.000 OA
ATOM      6  C   UNL     1       0.394  11.122  21.299  0.00  0.00    +0.000 A 
ATOM      7  C   UNL     1      -0.214  10.985  22.559  0.00  0.00    +0.000 A 
ATOM      8  C   UNL     1      -0.676   9.743  22.985  0.00  0.00    +0.000 A 
ATOM      9  C   UNL     1      -0.530   8.636  22.155  0.00  0.00    +0.000 A 
ATOM     10  C   UNL     1       0.070   8.773  20.901  0.00  0.00    +0.000 A 
ATOM     11  C   UNL     1       0.543  10.022  20.469  0.00  0.00    +0.000 A 
ENDROOT
BRANCH   3  12
ATOM     12  C   UNL     1       1.866  13.756  19.002  0.00  0.00    +0.000 A 
ATOM     13  C   UNL     1       1.106  14.937  18.974  0.00  0.00    +0.000 A 
ATOM     14  C   UNL     1       1.631  16.127  18.460  0.00  0.00    +0.000 A 
ATOM     15  C   UNL     1       2.922  16.154  17.948  0.00  0.00    +0.000 A 
ATOM     16  C   UNL     1       3.692  14.994  17.960  0.00  0.00    +0.000 A 
ATOM     17  C   UNL     1       3.173  13.809  18.495  0.00  0.00    +0.000 A 
ENDBRANCH   3  12
BRANCH   1  19
ATOM     18  O   UNL     1       1.090   8.953  17.195  0.00  0.00    +0.000 OA
ATOM     19  C   UNL     1       1.595   9.052  18.304  0.00  0.00    +0.000 C 
ATOM     20  N   UNL     1       2.443   8.143  18.913  0.00  0.00    +0.000 N 
ATOM     21  H   UNL     1       2.537   8.227  19.921  0.00  0.00    +0.000 HD
BRANCH  20  22
ATOM     22  C   UNL     1       2.938   6.976  18.279  0.00  0.00    +0.000 A 
ATOM     23  C   UNL     1       2.312   5.717  18.429  0.00  0.00    +0.000 A 
ATOM     24  C   UNL     1       2.844   4.557  17.856  0.00  0.00    +0.000 A 
ATOM     25  C   UNL     1       4.005   4.683  17.134  0.00  0.00    +0.000 A 
ATOM     26  C   UNL     1       4.607   5.904  16.946  0.00  0.00    +0.000 A 
ATOM     27  C   UNL     1       4.089   7.071  17.483  0.00  0.00    +0.000 A 
ATOM     28  O   UNL     1       5.748   5.800  16.209  0.00  0.00    +0.000 OA
ATOM     29  C   UNL     1       5.828   4.368  16.028  0.00  0.00    +0.000 C 
ATOM     30  O   UNL     1       4.682   3.663  16.545  0.00  0.00    +0.000 OA
ENDBRANCH  20  22
ENDBRANCH   1  19
TORSDOF 3
ENDMDL
MODEL 4
REMARK VINA RESULT:      -9.0      0.653      1.272
REMARK  Name = 
REMARK  3 active torsions:
REMARK  status: ('A' for Active; 'I' for Inactive)
REMARK    1  A    between atoms: C_2  and  C_13
REMARK    2  A    between atoms: N_3  and  C_4
REMARK    3  A    between atoms: N_15  and  C_16
REMARK                            x       y       z     vdW  Elec       q    Type
REMARK                         _______ _______ _______ _____ _____    ______ ____
ROOT
ATOM      1  C   UNL     1       3.033   5.882  18.768  0.00  0.00    +0.000 A 
ATOM      2  N   UNL     1       3.971   5.825  17.866  0.00  0.00    +0.000 NA
ATOM      3  N   UNL     1       4.404   4.576  17.433  0.00  0.00    +0.000 N 
ATOM      4  C   UNL     1       3.888   3.365  17.918  0.00  0.00    +0.000 A 
ATOM      5  O   UNL     1       4.192   2.234  17.540  0.00  0.00    +0.000 OA
ATOM      6  C   UNL     1       2.926   3.456  19.028  0.00  0.00    +0.000 A 
ATOM      7  C   UNL     1       2.462   2.281  19.644  0.00  0.00    +0.000 A 
ATOM      8  C   UNL     1       1.564   2.352  20.706  0.00  0.00    +0.000 A 
ATOM      9  C   UNL     1       1.127   3.594  21.152  0.00  0.00    +0.000 A 
ATOM     10  C   UNL     1       1.592   4.763  20.543  0.00  0.00    +0.000 A 
ATOM     11  C   UNL     1       2.493   4.698  19.468  0.00  0.00    +0.000 A 
ENDROOT
BRANCH   3  12
ATOM     12  C   UNL     1       5.319   4.628  16.329  0.00  0.00    +0.000 A 
ATOM     13  C   UNL     1       4.929   4.272  15.027  0.00  0.00    +0.000 A 
ATOM     14  C   UNL     1       5.825   4.342  13.956  0.00  0.00    +0.000 A 
ATOM     15  C   UNL     1       7.134   4.754  14.169  0.00  0.00    +0.000 A 
ATOM     16  C   UNL     1       7.545   5.106  15.452  0.00  0.00    +0.000 A 
ATOM     17  C   UNL     1       6.642   5.056  16.520  0.00  0.00    +0.000 A 
ENDBRANCH   3  12
BRANCH   1  19
ATOM     18  O   UNL     1       2.523   8.106  18.172  0.00  0.00    +0.000 OA
ATOM     19  C   UNL     1       2.420   7.257  19.045  0.00  0.00    +0.000 C 
ATOM     20  N   UNL     1       1.875   7.425  20.306  0.00  0.00    +0.000 N 
ATOM     21  H   UNL     1       2.125   6.724  20.997  0.00  0.00    +0.000 HD
BRANCH  20  22
ATOM     22  C   UNL     1       1.251   8.620  20.744  0.00  0.00    +0.000 A 
ATOM     23  C   UNL     1       1.004   8.880  22.112  0.00  0.00    +0.000 A 
ATOM     24  C   UNL     1       0.327  10.030  22.532  0.00  0.00    +0.000 A 
ATOM     25  C   UNL     1      -0.093  10.907  21.563  0.00  0.00    +0.000 A 
ATOM     26  C   UNL     1       0.171  10.690  20.232  0.00  0.00    +0.000 A 
ATOM     27  C   UNL     1       0.859   9.571  19.791  0.00  0.00    +0.000 A 
ATOM     28  O   UNL     1      -0.342  11.676  19.444  0.00  0.00    +0.000 OA
ATOM     29  C   UNL     1      -1.020  12.488  20.429  0.00  0.00    +0.000 C 
ATOM     30  O   UNL     1      -0.797  12.048  21.782  0.00  0.00    +0.000 OA
ENDBRANCH  20  22
ENDBRANCH   1  19
TORSDOF 3
ENDMDL
MODEL 5
REMARK VINA RESULT:      -8.9      2.707      8.455
REMARK  Name = 
REMARK  3 active torsions:
REMARK  status: ('A' for Active; 'I' for Inactive)
REMARK    1  A    between atoms: C_2  and  C_13
REMARK    2  A    between atoms: N_3  and  C_4
REMARK    3  A    between atoms: N_15  and  C_16
REMARK                            x       y       z     vdW  Elec       q    Type
REMARK                         _______ _______ _______ _____ _____    ______ ____
ROOT
ATOM      1  C   UNL     1       1.192  10.303  19.296  0.00  0.00    +0.000 A 
ATOM      2  N   UNL     1       1.503  11.468  18.805  0.00  0.00    +0.000 NA
ATOM      3  N   UNL     1       1.308  12.597  19.592  0.00  0.00    +0.000 N 
ATOM      4  C   UNL     1       0.787  12.554  20.895  0.00  0.00    +0.000 A 
ATOM      5  O   UNL     1       0.639  13.508  21.657  0.00  0.00    +0.000 OA
ATOM      6  C   UNL     1       0.321  11.244  21.374  0.00  0.00    +0.000 A 
ATOM      7  C   UNL     1      -0.323  11.148  22.620  0.00  0.00    +0.000 A 
ATOM      8  C   UNL     1      -0.783   9.918  23.081  0.00  0.00    +0.000 A 
ATOM      9  C   UNL     1      -0.599   8.782  22.301  0.00  0.00    +0.000 A 
ATOM     10  C   UNL     1       0.037   8.877  21.060  0.00  0.00    +0.000 A 
ATOM     11  C   UNL     1       0.509  10.113  20.593  0.00  0.00    +0.000 A 
ENDROOT
BRANCH   3  12
ATOM     12  C   UNL     1       1.831  13.804  19.019  0.00  0.00    +0.000 A 
ATOM     13  C   UNL     1       1.087  14.995  18.995  0.00  0.00    +0.000 A 
ATOM     14  C   UNL     1       1.613  16.170  18.448  0.00  0.00    +0.000 A 
ATOM     15  C   UNL     1       2.890  16.171  17.901  0.00  0.00    +0.000 A 
ATOM     16  C   UNL     1       3.645  15.001  17.909  0.00  0.00    +0.000 A 
ATOM     17  C   UNL     1       3.125  13.831  18.476  0.00  0.00    +0.000 A 
ENDBRANCH   3  12
BRANCH   1  19
ATOM     18  O   UNL     1       1.325   9.021  17.320  0.00  0.00    +0.000 OA
ATOM     19  C   UNL     1       1.638   9.073  18.501  0.00  0.00    +0.000 C 
ATOM     20  N   UNL     1       2.289   8.093  19.231  0.00  0.00    +0.000 N 
ATOM     21  H   UNL     1       2.215   8.166  20.241  0.00  0.00    +0.000 HD
BRANCH  20  22
ATOM     22  C   UNL     1       2.787   6.890  18.670  0.00  0.00    +0.000 A 
ATOM     23  C   UNL     1       3.845   6.882  17.732  0.00  0.00    +0.000 A 
ATOM     24  C   UNL     1       4.285   5.697  17.131  0.00  0.00    +0.000 A 
ATOM     25  C   UNL     1       3.652   4.532  17.487  0.00  0.00    +0.000 A 
ATOM     26  C   UNL     1       2.648   4.517  18.425  0.00  0.00    +0.000 A 
ATOM     27  C   UNL     1       2.208   5.671  19.052  0.00  0.00    +0.000 A 
ATOM     28  O   UNL     1       2.155   3.263  18.621  0.00  0.00    +0.000 OA
ATOM     29  C   UNL     1       2.912   2.514  17.643  0.00  0.00    +0.000 C 
ATOM     30  O   UNL     1       3.919   3.302  16.978  0.00  0.00    +0.000 OA
ENDBRANCH  20  22
ENDBRANCH   1  19
TORSDOF 3
ENDMDL
MODEL 6
REMARK VINA RESULT:      -8.8      1.977      2.365
REMARK  Name = 
REMARK  3 active torsions:
REMARK  status: ('A' for Active; 'I' for Inactive)
REMARK    1  A    between atoms: C_2  and  C_13
REMARK    2  A    between atoms: N_3  and  C_4
REMARK    3  A    between atoms: N_15  and  C_16
REMARK                            x       y       z     vdW  Elec       q    Type
REMARK                         _______ _______ _______ _____ _____    ______ ____
ROOT
ATOM      1  C   UNL     1       2.960   5.905  18.857  0.00  0.00    +0.000 A 
ATOM      2  N   UNL     1       3.916   5.877  17.974  0.00  0.00    +0.000 NA
ATOM      3  N   UNL     1       4.308   4.648  17.453  0.00  0.00    +0.000 N 
ATOM      4  C   UNL     1       3.731   3.426  17.831  0.00  0.00    +0.000 A 
ATOM      5  O   UNL     1       3.997   2.316  17.372  0.00  0.00    +0.000 OA
ATOM      6  C   UNL     1       2.748   3.472  18.925  0.00  0.00    +0.000 A 
ATOM      7  C   UNL     1       2.221   2.274  19.437  0.00  0.00    +0.000 A 
ATOM      8  C   UNL     1       1.302   2.301  20.483  0.00  0.00    +0.000 A 
ATOM      9  C   UNL     1       0.906   3.522  21.016  0.00  0.00    +0.000 A 
ATOM     10  C   UNL     1       1.433   4.714  20.510  0.00  0.00    +0.000 A 
ATOM     11  C   UNL     1       2.355   4.693  19.452  0.00  0.00    +0.000 A 
ENDROOT
BRANCH   3  12
ATOM     12  C   UNL     1       5.250   4.746  16.376  0.00  0.00    +0.000 A 
ATOM     13  C   UNL     1       4.884   4.478  15.046  0.00  0.00    +0.000 A 
ATOM     14  C   UNL     1       5.807   4.592  14.001  0.00  0.00    +0.000 A 
ATOM     15  C   UNL     1       7.118   4.961  14.269  0.00  0.00    +0.000 A 
ATOM     16  C   UNL     1       7.506   5.227  15.580  0.00  0.00    +0.000 A 
ATOM     17  C   UNL     1       6.576   5.133  16.622  0.00  0.00    +0.000 A 
ENDBRANCH   3  12
BRANCH   1  19
ATOM     18  O   UNL     1       2.218   7.512  20.415  0.00  0.00    +0.000 OA
ATOM     19  C   UNL     1       2.398   7.278  19.229  0.00  0.00    +0.000 C 
ATOM     20  N   UNL     1       2.067   8.098  18.162  0.00  0.00    +0.000 N 
ATOM     21  H   UNL     1       2.012   7.646  17.254  0.00  0.00    +0.000 HD
BRANCH  20  22
ATOM     22  C   UNL     1       1.546   9.408  18.304  0.00  0.00    +0.000 A 
ATOM     23  C   UNL     1       0.160   9.653  18.440  0.00  0.00    +0.000 A 
ATOM     24  C   UNL     1      -0.353  10.953  18.511  0.00  0.00    +0.000 A 
ATOM     25  C   UNL     1       0.541  11.992  18.446  0.00  0.00    +0.000 A 
ATOM     26  C   UNL     1       1.895  11.772  18.352  0.00  0.00    +0.000 A 
ATOM     27  C   UNL     1       2.431  10.496  18.302  0.00  0.00    +0.000 A 
ATOM     28  O   UNL     1       2.596  12.938  18.291  0.00  0.00    +0.000 OA
ATOM     29  C   UNL     1       1.521  13.904  18.279  0.00  0.00    +0.000 C 
ATOM     30  O   UNL     1       0.220  13.312  18.458  0.00  0.00    +0.000 OA
ENDBRANCH  20  22
ENDBRANCH   1  19
TORSDOF 3
ENDMDL
MODEL 7
REMARK VINA RESULT:      -8.7      3.229      8.685
REMARK  Name = 
REMARK  3 active torsions:
REMARK  status: ('A' for Active; 'I' for Inactive)
REMARK    1  A    between atoms: C_2  and  C_13
REMARK    2  A    between atoms: N_3  and  C_4
REMARK    3  A    between atoms: N_15  and  C_16
REMARK                            x       y       z     vdW  Elec       q    Type
REMARK                         _______ _______ _______ _____ _____    ______ ____
ROOT
ATOM      1  C   UNL     1       1.087  10.371  18.650  0.00  0.00    +0.000 A 
ATOM      2  N   UNL     1       1.959  11.330  18.774  0.00  0.00    +0.000 NA
ATOM      3  N   UNL     1       1.508  12.645  18.784  0.00  0.00    +0.000 N 
ATOM      4  C   UNL     1       0.156  13.002  18.665  0.00  0.00    +0.000 A 
ATOM      5  O   UNL     1      -0.309  14.140  18.719  0.00  0.00    +0.000 OA
ATOM      6  C   UNL     1      -0.792  11.910  18.394  0.00  0.00    +0.000 A 
ATOM      7  C   UNL     1      -2.142  12.209  18.142  0.00  0.00    +0.000 A 
ATOM      8  C   UNL     1      -3.048  11.188  17.868  0.00  0.00    +0.000 A 
ATOM      9  C   UNL     1      -2.609   9.869  17.849  0.00  0.00    +0.000 A 
ATOM     10  C   UNL     1      -1.266   9.572  18.095  0.00  0.00    +0.000 A 
ATOM     11  C   UNL     1      -0.349  10.596  18.377  0.00  0.00    +0.000 A 
ENDROOT
BRANCH   3  12
ATOM     12  C   UNL     1       2.528  13.608  19.087  0.00  0.00    +0.000 A 
ATOM     13  C   UNL     1       2.918  13.883  20.408  0.00  0.00    +0.000 A 
ATOM     14  C   UNL     1       3.925  14.812  20.690  0.00  0.00    +0.000 A 
ATOM     15  C   UNL     1       4.549  15.496  19.655  0.00  0.00    +0.000 A 
ATOM     16  C   UNL     1       4.175  15.245  18.337  0.00  0.00    +0.000 A 
ATOM     17  C   UNL     1       3.182  14.299  18.055  0.00  0.00    +0.000 A 
ENDBRANCH   3  12
BRANCH   1  19
ATOM     18  O   UNL     1       1.514   8.495  20.014  0.00  0.00    +0.000 OA
ATOM     19  C   UNL     1       1.587   8.943  18.879  0.00  0.00    +0.000 C 
ATOM     20  N   UNL     1       2.155   8.324  17.778  0.00  0.00    +0.000 N 
ATOM     21  H   UNL     1       2.393   8.932  16.999  0.00  0.00    +0.000 HD
BRANCH  20  22
ATOM     22  C   UNL     1       2.663   7.001  17.789  0.00  0.00    +0.000 A 
ATOM     23  C   UNL     1       4.046   6.727  17.689  0.00  0.00    +0.000 A 
ATOM     24  C   UNL     1       4.534   5.418  17.632  0.00  0.00    +0.000 A 
ATOM     25  C   UNL     1       3.618   4.397  17.679  0.00  0.00    +0.000 A 
ATOM     26  C   UNL     1       2.272   4.643  17.815  0.00  0.00    +0.000 A 
ATOM     27  C   UNL     1       1.764   5.930  17.896  0.00  0.00    +0.000 A 
ATOM     28  O   UNL     1       1.544   3.493  17.831  0.00  0.00    +0.000 OA
ATOM     29  C   UNL     1       2.580   2.509  17.612  0.00  0.00    +0.000 C 
ATOM     30  O   UNL     1       3.906   3.072  17.595  0.00  0.00    +0.000 OA
ENDBRANCH  20  22
ENDBRANCH   1  19
TORSDOF 3
ENDMDL
MODEL 8
REMARK VINA RESULT:      -8.7      4.337      7.375
REMARK  Name = 
REMARK  3 active torsions:
REMARK  status: ('A' for Active; 'I' for Inactive)
REMARK    1  A    between atoms: C_2  and  C_13
REMARK    2  A    between atoms: N_3  and  C_4
REMARK    3  A    between atoms: N_15  and  C_16
REMARK                            x       y       z     vdW  Elec       q    Type
REMARK                         _______ _______ _______ _____ _____    ______ ____
ROOT
ATOM      1  C   UNL     1       6.236   6.011  17.624  0.00  0.00    +0.000 A 
ATOM      2  N   UNL     1       5.285   5.735  18.469  0.00  0.00    +0.000 NA
ATOM      3  N   UNL     1       4.405   4.701  18.169  0.00  0.00    +0.000 N 
ATOM      4  C   UNL     1       4.481   3.933  16.997  0.00  0.00    +0.000 A 
ATOM      5  O   UNL     1       3.767   2.976  16.700  0.00  0.00    +0.000 OA
ATOM      6  C   UNL     1       5.479   4.351  16.000  0.00  0.00    +0.000 A 
ATOM      7  C   UNL     1       5.528   3.705  14.753  0.00  0.00    +0.000 A 
ATOM      8  C   UNL     1       6.456   4.099  13.793  0.00  0.00    +0.000 A 
ATOM      9  C   UNL     1       7.338   5.135  14.078  0.00  0.00    +0.000 A 
ATOM     10  C   UNL     1       7.287   5.781  15.316  0.00  0.00    +0.000 A 
ATOM     11  C   UNL     1       6.357   5.384  16.290  0.00  0.00    +0.000 A 
ENDROOT
BRANCH   3  12
ATOM     12  C   UNL     1       3.502   4.377  19.236  0.00  0.00    +0.000 A 
ATOM     13  C   UNL     1       2.430   5.218  19.579  0.00  0.00    +0.000 A 
ATOM     14  C   UNL     1       1.546   4.884  20.610  0.00  0.00    +0.000 A 
ATOM     15  C   UNL     1       1.728   3.710  21.329  0.00  0.00    +0.000 A 
ATOM     16  C   UNL     1       2.787   2.864  21.011  0.00  0.00    +0.000 A 
ATOM     17  C   UNL     1       3.658   3.188  19.965  0.00  0.00    +0.000 A 
ENDBRANCH   3  12
BRANCH   1  19
ATOM     18  O   UNL     1       8.221   6.538  18.783  0.00  0.00    +0.000 OA
ATOM     19  C   UNL     1       7.318   6.987  18.090  0.00  0.00    +0.000 C 
ATOM     20  N   UNL     1       7.119   8.312  17.744  0.00  0.00    +0.000 N 
ATOM     21  H   UNL     1       6.187   8.553  17.420  0.00  0.00    +0.000 HD
BRANCH  20  22
ATOM     22  C   UNL     1       8.016   9.359  18.074  0.00  0.00    +0.000 A 
ATOM     23  C   UNL     1       9.006   9.211  19.073  0.00  0.00    +0.000 A 
ATOM     24  C   UNL     1       9.843  10.270  19.442  0.00  0.00    +0.000 A 
ATOM     25  C   UNL     1       9.671  11.468  18.794  0.00  0.00    +0.000 A 
ATOM     26  C   UNL     1       8.740  11.619  17.794  0.00  0.00    +0.000 A 
ATOM     27  C   UNL     1       7.914  10.581  17.395  0.00  0.00    +0.000 A 
ATOM     28  O   UNL     1       8.731  12.886  17.295  0.00  0.00    +0.000 OA
ATOM     29  C   UNL     1       9.706  13.525  18.150  0.00  0.00    +0.000 C 
ATOM     30  O   UNL     1      10.363  12.609  19.048  0.00  0.00    +0.000 OA
ENDBRANCH  20  22
ENDBRANCH   1  19
TORSDOF 3
ENDMDL
MODEL 9
REMARK VINA RESULT:      -8.7      2.013      2.479
REMARK  Name = 
REMARK  3 active torsions:
REMARK  status: ('A' for Active; 'I' for Inactive)
REMARK    1  A    between atoms: C_2  and  C_13
REMARK    2  A    between atoms: N_3  and  C_4
REMARK    3  A    between atoms: N_15  and  C_16
REMARK                            x       y       z     vdW  Elec       q    Type
REMARK                         _______ _______ _______ _____ _____    ______ ____
ROOT
ATOM      1  C   UNL     1       2.549   5.562  19.773  0.00  0.00    +0.000 A 
ATOM      2  N   UNL     1       3.737   6.047  19.554  0.00  0.00    +0.000 NA
ATOM      3  N   UNL     1       4.606   5.338  18.732  0.00  0.00    +0.000 N 
ATOM      4  C   UNL     1       4.276   4.118  18.122  0.00  0.00    +0.000 A 
ATOM      5  O   UNL     1       4.979   3.472  17.346  0.00  0.00    +0.000 OA
ATOM      6  C   UNL     1       2.980   3.528  18.491  0.00  0.00    +0.000 A 
ATOM      7  C   UNL     1       2.637   2.251  18.014  0.00  0.00    +0.000 A 
ATOM      8  C   UNL     1       1.421   1.672  18.368  0.00  0.00    +0.000 A 
ATOM      9  C   UNL     1       0.545   2.367  19.194  0.00  0.00    +0.000 A 
ATOM     10  C   UNL     1       0.888   3.635  19.672  0.00  0.00    +0.000 A 
ATOM     11  C   UNL     1       2.109   4.226  19.314  0.00  0.00    +0.000 A 
ENDROOT
BRANCH   3  12
ATOM     12  C   UNL     1       5.822   6.038  18.429  0.00  0.00    +0.000 A 
ATOM     13  C   UNL     1       5.886   7.003  17.410  0.00  0.00    +0.000 A 
ATOM     14  C   UNL     1       7.072   7.690  17.134  0.00  0.00    +0.000 A 
ATOM     15  C   UNL     1       8.222   7.414  17.863  0.00  0.00    +0.000 A 
ATOM     16  C   UNL     1       8.184   6.457  18.874  0.00  0.00    +0.000 A 
ATOM     17  C   UNL     1       6.990   5.785  19.164  0.00  0.00    +0.000 A 
ENDBRANCH   3  12
BRANCH   1  19
ATOM     18  O   UNL     1       0.536   5.956  20.937  0.00  0.00    +0.000 OA
ATOM     19  C   UNL     1       1.546   6.474  20.482  0.00  0.00    +0.000 C 
ATOM     20  N   UNL     1       1.849   7.825  20.464  0.00  0.00    +0.000 N 
ATOM     21  H   UNL     1       2.567   8.111  19.805  0.00  0.00    +0.000 HD
BRANCH  20  22
ATOM     22  C   UNL     1       1.050   8.823  21.077  0.00  0.00    +0.000 A 
ATOM     23  C   UNL     1       0.878   8.889  22.479  0.00  0.00    +0.000 A 
ATOM     24  C   UNL     1       0.033   9.834  23.072  0.00  0.00    +0.000 A 
ATOM     25  C   UNL     1      -0.628  10.704  22.240  0.00  0.00    +0.000 A 
ATOM     26  C   UNL     1      -0.443  10.678  20.878  0.00  0.00    +0.000 A 
ATOM     27  C   UNL     1       0.404   9.768  20.267  0.00  0.00    +0.000 A 
ATOM     28  O   UNL     1      -1.199  11.617  20.245  0.00  0.00    +0.000 OA
ATOM     29  C   UNL     1      -1.932  12.176  21.359  0.00  0.00    +0.000 C 
ATOM     30  O   UNL     1      -1.514  11.655  22.635  0.00  0.00    +0.000 OA
ENDBRANCH  20  22
ENDBRANCH   1  19
TORSDOF 3
ENDMDL
