MODEL 1
REMARK VINA RESULT:      -8.8      0.000      0.000
REMARK  Name = 
REMARK  3 active torsions:
REMARK  status: ('A' for Active; 'I' for Inactive)
REMARK    1  A    between atoms: C_2  and  C_17
REMARK    2  A    between atoms: C_6  and  C_7
REMARK    3  A    between atoms: C_21  and  N_22
REMARK                            x       y       z     vdW  Elec       q    Type
REMARK                         _______ _______ _______ _____ _____    ______ ____
ROOT
ATOM      1  O   UNL     1       1.731   9.187  19.316  0.00  0.00    +0.000 OA
ATOM      2  C   UNL     1       1.351   8.765  20.402  0.00  0.00    +0.000 C 
ATOM      3  N   UNL     1       1.528   7.497  20.911  0.00  0.00    +0.000 N 
ATOM      4  C   UNL     1       2.180   6.542  20.181  0.00  0.00    +0.000 A 
ATOM      5  N   UNL     1       2.902   6.689  19.106  0.00  0.00    +0.000 NA
ATOM      6  C   UNL     1       3.321   5.457  18.645  0.00  0.00    +0.000 A 
ATOM      7  C   UNL     1       2.877   4.382  19.395  0.00  0.00    +0.000 A 
ATOM      8  S   UNL     1       1.990   4.948  20.756  0.00  0.00    +0.000 S 
ATOM      9  H   UNL     1       1.029   7.184  21.729  0.00  0.00    +0.000 HD
ENDROOT
BRANCH   6  10
ATOM     10  C   UNL     1       4.145   5.363  17.448  0.00  0.00    +0.000 A 
ATOM     11  C   UNL     1       4.482   6.535  16.747  0.00  0.00    +0.000 A 
ATOM     12  C   UNL     1       5.294   6.483  15.610  0.00  0.00    +0.000 A 
ATOM     13  C   UNL     1       5.775   5.257  15.173  0.00  0.00    +0.000 A 
ATOM     14  F   UNL     1       6.558   5.201  14.089  0.00  0.00    +0.000 F 
ATOM     15  C   UNL     1       5.454   4.093  15.864  0.00  0.00    +0.000 A 
ATOM     16  F   UNL     1       5.932   2.910  15.449  0.00  0.00    +0.000 F 
ATOM     17  C   UNL     1       4.645   4.135  16.994  0.00  0.00    +0.000 A 
ENDBRANCH   6  10
BRANCH   2  18
ATOM     18  C   UNL     1       0.532   9.669  21.246  0.00  0.00    +0.000 A 
ATOM     19  C   UNL     1      -0.072   9.128  22.382  0.00  0.00    +0.000 A 
ATOM     20  C   UNL     1      -0.849   9.937  23.199  0.00  0.00    +0.000 A 
ATOM     21  C   UNL     1      -1.022  11.288  22.880  0.00  0.00    +0.000 A 
ATOM     22  C   UNL     1      -0.430  11.857  21.744  0.00  0.00    +0.000 A 
ATOM     23  C   UNL     1       0.343  11.024  20.920  0.00  0.00    +0.000 A 
BRANCH  22  24
ATOM     24  N   UNL     1      -0.591  13.236  21.438  0.00  0.00    +0.000 N 
ATOM     25  C   UNL     1      -1.824  13.795  20.935  0.00  0.00    +0.000 C 
ATOM     26  C   UNL     1      -1.415  15.127  20.343  0.00  0.00    +0.000 C 
ATOM     27  C   UNL     1      -0.251  15.558  21.211  0.00  0.00    +0.000 C 
ATOM     28  C   UNL     1       0.362  14.249  21.645  0.00  0.00    +0.000 C 
ATOM     29  O   UNL     1       1.480  14.175  22.130  0.00  0.00    +0.000 OA
ENDBRANCH  22  24
ENDBRANCH   2  18
TORSDOF 3
ENDMDL
MODEL 2
REMARK VINA RESULT:      -8.7      7.398      8.040
REMARK  Name = 
REMARK  3 active torsions:
REMARK  status: ('A' for Active; 'I' for Inactive)
REMARK    1  A    between atoms: C_2  and  C_17
REMARK    2  A    between atoms: C_6  and  C_7
REMARK    3  A    between atoms: C_21  and  N_22
REMARK                            x       y       z     vdW  Elec       q    Type
REMARK                         _______ _______ _______ _____ _____    ______ ____
ROOT
ATOM      1  O   UNL     1       8.130   9.441  16.995  0.00  0.00    +0.000 OA
ATOM      2  C   UNL     1       8.553   9.282  18.134  0.00  0.00    +0.000 C 
ATOM      3  N   UNL     1       8.549   8.116  18.869  0.00  0.00    +0.000 N 
ATOM      4  C   UNL     1       8.022   6.968  18.346  0.00  0.00    +0.000 A 
ATOM      5  N   UNL     1       7.695   6.710  17.110  0.00  0.00    +0.000 NA
ATOM      6  C   UNL     1       7.128   5.455  17.022  0.00  0.00    +0.000 A 
ATOM      7  C   UNL     1       7.024   4.787  18.230  0.00  0.00    +0.000 A 
ATOM      8  S   UNL     1       7.736   5.729  19.481  0.00  0.00    +0.000 S 
ATOM      9  H   UNL     1       8.750   8.116  19.856  0.00  0.00    +0.000 HD
ENDROOT
BRANCH   6  10
ATOM     10  C   UNL     1       6.679   4.940  15.736  0.00  0.00    +0.000 A 
ATOM     11  C   UNL     1       5.438   4.281  15.651  0.00  0.00    +0.000 A 
ATOM     12  C   UNL     1       4.965   3.799  14.427  0.00  0.00    +0.000 A 
ATOM     13  C   UNL     1       5.730   3.980  13.283  0.00  0.00    +0.000 A 
ATOM     14  F   UNL     1       5.279   3.527  12.106  0.00  0.00    +0.000 F 
ATOM     15  C   UNL     1       6.953   4.638  13.356  0.00  0.00    +0.000 A 
ATOM     16  F   UNL     1       7.685   4.825  12.246  0.00  0.00    +0.000 F 
ATOM     17  C   UNL     1       7.433   5.118  14.569  0.00  0.00    +0.000 A 
ENDBRANCH   6  10
BRANCH   2  18
ATOM     18  C   UNL     1       9.051  10.477  18.858  0.00  0.00    +0.000 A 
ATOM     19  C   UNL     1       9.233  10.371  20.238  0.00  0.00    +0.000 A 
ATOM     20  C   UNL     1       9.695  11.465  20.957  0.00  0.00    +0.000 A 
ATOM     21  C   UNL     1       9.976  12.664  20.295  0.00  0.00    +0.000 A 
ATOM     22  C   UNL     1       9.799  12.799  18.911  0.00  0.00    +0.000 A 
ATOM     23  C   UNL     1       9.320  11.689  18.199  0.00  0.00    +0.000 A 
BRANCH  22  24
ATOM     24  N   UNL     1      10.109  14.015  18.241  0.00  0.00    +0.000 N 
ATOM     25  C   UNL     1       9.455  15.269  18.538  0.00  0.00    +0.000 C 
ATOM     26  C   UNL     1       9.749  16.135  17.331  0.00  0.00    +0.000 C 
ATOM     27  C   UNL     1      11.107  15.652  16.869  0.00  0.00    +0.000 C 
ATOM     28  C   UNL     1      11.116  14.199  17.278  0.00  0.00    +0.000 C 
ATOM     29  O   UNL     1      11.925  13.397  16.839  0.00  0.00    +0.000 OA
ENDBRANCH  22  24
ENDBRANCH   2  18
TORSDOF 3
ENDMDL
MODEL 3
REMARK VINA RESULT:      -8.7      1.123      1.273
REMARK  Name = 
REMARK  3 active torsions:
REMARK  status: ('A' for Active; 'I' for Inactive)
REMARK    1  A    between atoms: C_2  and  C_17
REMARK    2  A    between atoms: C_6  and  C_7
REMARK    3  A    between atoms: C_21  and  N_22
REMARK                            x       y       z     vdW  Elec       q    Type
REMARK                         _______ _______ _______ _____ _____    ______ ____
ROOT
ATOM      1  O   UNL     1       2.180   8.630  19.341  0.00  0.00    +0.000 OA
ATOM      2  C   UNL     1       1.630   8.289  20.382  0.00  0.00    +0.000 C 
ATOM      3  N   UNL     1       1.651   7.040  20.964  0.00  0.00    +0.000 N 
ATOM      4  C   UNL     1       2.328   6.010  20.372  0.00  0.00    +0.000 A 
ATOM      5  N   UNL     1       3.196   6.056  19.400  0.00  0.00    +0.000 NA
ATOM      6  C   UNL     1       3.587   4.779  19.054  0.00  0.00    +0.000 A 
ATOM      7  C   UNL     1       2.975   3.774  19.782  0.00  0.00    +0.000 A 
ATOM      8  S   UNL     1       1.954   4.464  20.984  0.00  0.00    +0.000 S 
ATOM      9  H   UNL     1       1.027   6.801  21.719  0.00  0.00    +0.000 HD
ENDROOT
BRANCH   6  10
ATOM     10  C   UNL     1       4.556   4.572  17.986  0.00  0.00    +0.000 A 
ATOM     11  C   UNL     1       4.103   4.415  16.663  0.00  0.00    +0.000 A 
ATOM     12  C   UNL     1       5.007   4.241  15.611  0.00  0.00    +0.000 A 
ATOM     13  C   UNL     1       6.368   4.230  15.880  0.00  0.00    +0.000 A 
ATOM     14  F   UNL     1       7.240   4.071  14.875  0.00  0.00    +0.000 F 
ATOM     15  C   UNL     1       6.826   4.392  17.183  0.00  0.00    +0.000 A 
ATOM     16  F   UNL     1       8.143   4.395  17.439  0.00  0.00    +0.000 F 
ATOM     17  C   UNL     1       5.934   4.563  18.236  0.00  0.00    +0.000 A 
ENDBRANCH   6  10
BRANCH   2  18
ATOM     18  C   UNL     1       0.769   9.284  21.066  0.00  0.00    +0.000 A 
ATOM     19  C   UNL     1       0.101   8.880  22.222  0.00  0.00    +0.000 A 
ATOM     20  C   UNL     1      -0.718   9.778  22.894  0.00  0.00    +0.000 A 
ATOM     21  C   UNL     1      -0.866  11.081  22.409  0.00  0.00    +0.000 A 
ATOM     22  C   UNL     1      -0.209  11.513  21.249  0.00  0.00    +0.000 A 
ATOM     23  C   UNL     1       0.605  10.591  20.573  0.00  0.00    +0.000 A 
BRANCH  22  24
ATOM     24  N   UNL     1      -0.346  12.847  20.774  0.00  0.00    +0.000 N 
ATOM     25  C   UNL     1      -1.082  13.187  19.578  0.00  0.00    +0.000 C 
ATOM     26  C   UNL     1      -0.594  14.576  19.224  0.00  0.00    +0.000 C 
ATOM     27  C   UNL     1      -0.276  15.194  20.569  0.00  0.00    +0.000 C 
ATOM     28  C   UNL     1       0.126  14.007  21.411  0.00  0.00    +0.000 C 
ATOM     29  O   UNL     1       0.714  14.124  22.475  0.00  0.00    +0.000 OA
ENDBRANCH  22  24
ENDBRANCH   2  18
TORSDOF 3
ENDMDL
MODEL 4
REMARK VINA RESULT:      -8.6      4.801      9.959
REMARK  Name = 
REMARK  3 active torsions:
REMARK  status: ('A' for Active; 'I' for Inactive)
REMARK    1  A    between atoms: C_2  and  C_17
REMARK    2  A    between atoms: C_6  and  C_7
REMARK    3  A    between atoms: C_21  and  N_22
REMARK                            x       y       z     vdW  Elec       q    Type
REMARK                         _______ _______ _______ _____ _____    ______ ____
ROOT
ATOM      1  O   UNL     1       1.213   6.721  20.961  0.00  0.00    +0.000 OA
ATOM      2  C   UNL     1       2.026   6.806  20.048  0.00  0.00    +0.000 C 
ATOM      3  N   UNL     1       2.238   7.887  19.220  0.00  0.00    +0.000 N 
ATOM      4  C   UNL     1       1.493   9.025  19.360  0.00  0.00    +0.000 A 
ATOM      5  N   UNL     1       0.711   9.372  20.345  0.00  0.00    +0.000 NA
ATOM      6  C   UNL     1       0.089  10.570  20.056  0.00  0.00    +0.000 A 
ATOM      7  C   UNL     1       0.413  11.101  18.819  0.00  0.00    +0.000 A 
ATOM      8  S   UNL     1       1.593  10.112  18.051  0.00  0.00    +0.000 S 
ATOM      9  H   UNL     1       2.797   7.809  18.385  0.00  0.00    +0.000 HD
ENDROOT
BRANCH   6  10
ATOM     10  C   UNL     1      -0.838  11.164  21.008  0.00  0.00    +0.000 A 
ATOM     11  C   UNL     1      -0.765  10.796  22.365  0.00  0.00    +0.000 A 
ATOM     12  C   UNL     1      -1.623  11.367  23.310  0.00  0.00    +0.000 A 
ATOM     13  C   UNL     1      -2.552  12.313  22.901  0.00  0.00    +0.000 A 
ATOM     14  F   UNL     1      -3.372  12.869  23.803  0.00  0.00    +0.000 F 
ATOM     15  C   UNL     1      -2.627  12.689  21.564  0.00  0.00    +0.000 A 
ATOM     16  F   UNL     1      -3.516  13.614  21.173  0.00  0.00    +0.000 F 
ATOM     17  C   UNL     1      -1.779  12.124  20.617  0.00  0.00    +0.000 A 
ENDBRANCH   6  10
BRANCH   2  18
ATOM     18  C   UNL     1       2.821   5.599  19.718  0.00  0.00    +0.000 A 
ATOM     19  C   UNL     1       2.619   4.456  20.493  0.00  0.00    +0.000 A 
ATOM     20  C   UNL     1       3.343   3.303  20.221  0.00  0.00    +0.000 A 
ATOM     21  C   UNL     1       4.269   3.294  19.174  0.00  0.00    +0.000 A 
ATOM     22  C   UNL     1       4.495   4.428  18.382  0.00  0.00    +0.000 A 
ATOM     23  C   UNL     1       3.764   5.590  18.675  0.00  0.00    +0.000 A 
BRANCH  22  24
ATOM     24  N   UNL     1       5.422   4.405  17.303  0.00  0.00    +0.000 N 
ATOM     25  C   UNL     1       5.019   4.367  15.916  0.00  0.00    +0.000 C 
ATOM     26  C   UNL     1       6.259   3.904  15.181  0.00  0.00    +0.000 C 
ATOM     27  C   UNL     1       7.394   4.464  16.013  0.00  0.00    +0.000 C 
ATOM     28  C   UNL     1       6.821   4.492  17.409  0.00  0.00    +0.000 C 
ATOM     29  O   UNL     1       7.517   4.621  18.403  0.00  0.00    +0.000 OA
ENDBRANCH  22  24
ENDBRANCH   2  18
TORSDOF 3
ENDMDL
MODEL 5
REMARK VINA RESULT:      -8.6      2.873      3.600
REMARK  Name = 
REMARK  3 active torsions:
REMARK  status: ('A' for Active; 'I' for Inactive)
REMARK    1  A    between atoms: C_2  and  C_17
REMARK    2  A    between atoms: C_6  and  C_7
REMARK    3  A    between atoms: C_21  and  N_22
REMARK                            x       y       z     vdW  Elec       q    Type
REMARK                         _______ _______ _______ _____ _____    ______ ____
ROOT
ATOM      1  O   UNL     1       2.080   9.591  17.503  0.00  0.00    +0.000 OA
ATOM      2  C   UNL     1       1.465   9.559  18.563  0.00  0.00    +0.000 C 
ATOM      3  N   UNL     1       1.508   8.570  19.521  0.00  0.00    +0.000 N 
ATOM      4  C   UNL     1       2.291   7.463  19.341  0.00  0.00    +0.000 A 
ATOM      5  N   UNL     1       3.233   7.265  18.462  0.00  0.00    +0.000 NA
ATOM      6  C   UNL     1       3.725   5.980  18.576  0.00  0.00    +0.000 A 
ATOM      7  C   UNL     1       3.113   5.216  19.555  0.00  0.00    +0.000 A 
ATOM      8  S   UNL     1       1.957   6.170  20.400  0.00  0.00    +0.000 S 
ATOM      9  H   UNL     1       0.839   8.536  20.274  0.00  0.00    +0.000 HD
ENDROOT
BRANCH   6  10
ATOM     10  C   UNL     1       4.790   5.521  17.696  0.00  0.00    +0.000 A 
ATOM     11  C   UNL     1       4.601   5.564  16.302  0.00  0.00    +0.000 A 
ATOM     12  C   UNL     1       5.613   5.156  15.428  0.00  0.00    +0.000 A 
ATOM     13  C   UNL     1       6.820   4.708  15.946  0.00  0.00    +0.000 A 
ATOM     14  F   UNL     1       7.795   4.323  15.114  0.00  0.00    +0.000 F 
ATOM     15  C   UNL     1       7.019   4.670  17.322  0.00  0.00    +0.000 A 
ATOM     16  F   UNL     1       8.192   4.251  17.821  0.00  0.00    +0.000 F 
ATOM     17  C   UNL     1       6.018   5.072  18.199  0.00  0.00    +0.000 A 
ENDBRANCH   6  10
BRANCH   2  18
ATOM     18  C   UNL     1       0.494  10.647  18.830  0.00  0.00    +0.000 A 
ATOM     19  C   UNL     1       0.938  11.749  19.564  0.00  0.00    +0.000 A 
ATOM     20  C   UNL     1       0.063  12.790  19.840  0.00  0.00    +0.000 A 
ATOM     21  C   UNL     1      -1.256  12.731  19.381  0.00  0.00    +0.000 A 
ATOM     22  C   UNL     1      -1.731  11.636  18.645  0.00  0.00    +0.000 A 
ATOM     23  C   UNL     1      -0.838  10.584  18.384  0.00  0.00    +0.000 A 
BRANCH  22  24
ATOM     24  N   UNL     1      -3.068  11.592  18.162  0.00  0.00    +0.000 N 
ATOM     25  C   UNL     1      -4.214  11.907  18.982  0.00  0.00    +0.000 C 
ATOM     26  C   UNL     1      -5.384  11.306  18.231  0.00  0.00    +0.000 C 
ATOM     27  C   UNL     1      -4.969  11.419  16.780  0.00  0.00    +0.000 C 
ATOM     28  C   UNL     1      -3.464  11.325  16.840  0.00  0.00    +0.000 C 
ATOM     29  O   UNL     1      -2.779  11.101  15.854  0.00  0.00    +0.000 OA
ENDBRANCH  22  24
ENDBRANCH   2  18
TORSDOF 3
ENDMDL
MODEL 6
REMARK VINA RESULT:      -8.6      0.908      1.174
REMARK  Name = 
REMARK  3 active torsions:
REMARK  status: ('A' for Active; 'I' for Inactive)
REMARK    1  A    between atoms: C_2  and  C_17
REMARK    2  A    between atoms: C_6  and  C_7
REMARK    3  A    between atoms: C_21  and  N_22
REMARK                            x       y       z     vdW  Elec       q    Type
REMARK                         _______ _______ _______ _____ _____    ______ ____
ROOT
ATOM      1  O   UNL     1       1.723   9.133  19.313  0.00  0.00    +0.000 OA
ATOM      2  C   UNL     1       1.350   8.708  20.400  0.00  0.00    +0.000 C 
ATOM      3  N   UNL     1       1.542   7.442  20.909  0.00  0.00    +0.000 N 
ATOM      4  C   UNL     1       2.202   6.493  20.179  0.00  0.00    +0.000 A 
ATOM      5  N   UNL     1       2.920   6.647  19.101  0.00  0.00    +0.000 NA
ATOM      6  C   UNL     1       3.350   5.419  18.640  0.00  0.00    +0.000 A 
ATOM      7  C   UNL     1       2.920   4.340  19.393  0.00  0.00    +0.000 A 
ATOM      8  S   UNL     1       2.031   4.899  20.756  0.00  0.00    +0.000 S 
ATOM      9  H   UNL     1       1.050   7.124  21.729  0.00  0.00    +0.000 HD
ENDROOT
BRANCH   6  10
ATOM     10  C   UNL     1       4.171   5.332  17.440  0.00  0.00    +0.000 A 
ATOM     11  C   UNL     1       4.492   6.508  16.736  0.00  0.00    +0.000 A 
ATOM     12  C   UNL     1       5.300   6.463  15.596  0.00  0.00    +0.000 A 
ATOM     13  C   UNL     1       5.795   5.242  15.160  0.00  0.00    +0.000 A 
ATOM     14  F   UNL     1       6.575   5.193  14.073  0.00  0.00    +0.000 F 
ATOM     15  C   UNL     1       5.490   4.075  15.854  0.00  0.00    +0.000 A 
ATOM     16  F   UNL     1       5.981   2.898  15.440  0.00  0.00    +0.000 F 
ATOM     17  C   UNL     1       4.685   4.110  16.988  0.00  0.00    +0.000 A 
ENDBRANCH   6  10
BRANCH   2  18
ATOM     18  C   UNL     1       0.524   9.604  21.245  0.00  0.00    +0.000 A 
ATOM     19  C   UNL     1      -0.046   9.065  22.400  0.00  0.00    +0.000 A 
ATOM     20  C   UNL     1      -0.828   9.867  23.220  0.00  0.00    +0.000 A 
ATOM     21  C   UNL     1      -1.039  11.208  22.885  0.00  0.00    +0.000 A 
ATOM     22  C   UNL     1      -0.482  11.774  21.730  0.00  0.00    +0.000 A 
ATOM     23  C   UNL     1       0.297  10.949  20.904  0.00  0.00    +0.000 A 
BRANCH  22  24
ATOM     24  N   UNL     1      -0.681  13.146  21.408  0.00  0.00    +0.000 N 
ATOM     25  C   UNL     1       0.342  14.152  21.571  0.00  0.00    +0.000 C 
ATOM     26  C   UNL     1      -0.418  15.461  21.551  0.00  0.00    +0.000 C 
ATOM     27  C   UNL     1      -1.588  15.178  20.632  0.00  0.00    +0.000 C 
ATOM     28  C   UNL     1      -1.834  13.702  20.828  0.00  0.00    +0.000 C 
ATOM     29  O   UNL     1      -2.865  13.154  20.469  0.00  0.00    +0.000 OA
ENDBRANCH  22  24
ENDBRANCH   2  18
TORSDOF 3
ENDMDL
MODEL 7
REMARK VINA RESULT:      -8.4      4.910      9.917
REMARK  Name = 
REMARK  3 active torsions:
REMARK  status: ('A' for Active; 'I' for Inactive)
REMARK    1  A    between atoms: C_2  and  C_17
REMARK    2  A    between atoms: C_6  and  C_7
REMARK    3  A    between atoms: C_21  and  N_22
REMARK                            x       y       z     vdW  Elec       q    Type
REMARK                         _______ _______ _______ _____ _____    ______ ____
ROOT
ATOM      1  O   UNL     1       0.923   7.617  21.590  0.00  0.00    +0.000 OA
ATOM      2  C   UNL     1       1.551   7.563  20.539  0.00  0.00    +0.000 C 
ATOM      3  N   UNL     1       1.711   8.570  19.612  0.00  0.00    +0.000 N 
ATOM      4  C   UNL     1       1.127   9.791  19.806  0.00  0.00    +0.000 A 
ATOM      5  N   UNL     1       0.587  10.274  20.891  0.00  0.00    +0.000 NA
ATOM      6  C   UNL     1       0.047  11.518  20.637  0.00  0.00    +0.000 A 
ATOM      7  C   UNL     1       0.182  11.946  19.328  0.00  0.00    +0.000 A 
ATOM      8  S   UNL     1       1.085  10.792  18.427  0.00  0.00    +0.000 S 
ATOM      9  H   UNL     1       2.089   8.387  18.696  0.00  0.00    +0.000 HD
ENDROOT
BRANCH   6  10
ATOM     10  C   UNL     1      -0.615  12.261  21.700  0.00  0.00    +0.000 A 
ATOM     11  C   UNL     1      -0.188  13.568  22.000  0.00  0.00    +0.000 A 
ATOM     12  C   UNL     1      -0.819  14.318  22.996  0.00  0.00    +0.000 A 
ATOM     13  C   UNL     1      -1.885  13.765  23.692  0.00  0.00    +0.000 A 
ATOM     14  F   UNL     1      -2.499  14.482  24.642  0.00  0.00    +0.000 F 
ATOM     15  C   UNL     1      -2.320  12.478  23.397  0.00  0.00    +0.000 A 
ATOM     16  F   UNL     1      -3.360  11.950  24.060  0.00  0.00    +0.000 F 
ATOM     17  C   UNL     1      -1.696  11.723  22.409  0.00  0.00    +0.000 A 
ENDBRANCH   6  10
BRANCH   2  18
ATOM     18  C   UNL     1       2.141   6.258  20.154  0.00  0.00    +0.000 A 
ATOM     19  C   UNL     1       1.514   5.100  20.618  0.00  0.00    +0.000 A 
ATOM     20  C   UNL     1       2.033   3.856  20.284  0.00  0.00    +0.000 A 
ATOM     21  C   UNL     1       3.178   3.771  19.486  0.00  0.00    +0.000 A 
ATOM     22  C   UNL     1       3.829   4.917  19.010  0.00  0.00    +0.000 A 
ATOM     23  C   UNL     1       3.301   6.169  19.365  0.00  0.00    +0.000 A 
BRANCH  22  24
ATOM     24  N   UNL     1       4.981   4.823  18.179  0.00  0.00    +0.000 N 
ATOM     25  C   UNL     1       4.908   4.662  16.746  0.00  0.00    +0.000 C 
ATOM     26  C   UNL     1       6.285   4.165  16.358  0.00  0.00    +0.000 C 
ATOM     27  C   UNL     1       7.197   4.815  17.377  0.00  0.00    +0.000 C 
ATOM     28  C   UNL     1       6.317   4.947  18.596  0.00  0.00    +0.000 C 
ATOM     29  O   UNL     1       6.765   5.174  19.709  0.00  0.00    +0.000 OA
ENDBRANCH  22  24
ENDBRANCH   2  18
TORSDOF 3
ENDMDL
MODEL 8
REMARK VINA RESULT:      -8.4      0.517      1.243
REMARK  Name = 
REMARK  3 active torsions:
REMARK  status: ('A' for Active; 'I' for Inactive)
REMARK    1  A    between atoms: C_2  and  C_17
REMARK    2  A    between atoms: C_6  and  C_7
REMARK    3  A    between atoms: C_21  and  N_22
REMARK                            x       y       z     vdW  Elec       q    Type
REMARK                         _______ _______ _______ _____ _____    ______ ____
ROOT
ATOM      1  O   UNL     1       1.756   9.016  19.340  0.00  0.00    +0.000 OA
ATOM      2  C   UNL     1       1.375   8.639  20.442  0.00  0.00    +0.000 C 
ATOM      3  N   UNL     1       1.540   7.389  20.997  0.00  0.00    +0.000 N 
ATOM      4  C   UNL     1       2.178   6.400  20.302  0.00  0.00    +0.000 A 
ATOM      5  N   UNL     1       2.898   6.499  19.219  0.00  0.00    +0.000 NA
ATOM      6  C   UNL     1       3.301   5.245  18.802  0.00  0.00    +0.000 A 
ATOM      7  C   UNL     1       2.848   4.205  19.595  0.00  0.00    +0.000 A 
ATOM      8  S   UNL     1       1.974   4.832  20.937  0.00  0.00    +0.000 S 
ATOM      9  H   UNL     1       1.042   7.113  21.828  0.00  0.00    +0.000 HD
ENDROOT
BRANCH   6  10
ATOM     10  C   UNL     1       4.119   5.097  17.607  0.00  0.00    +0.000 A 
ATOM     11  C   UNL     1       4.584   3.820  17.242  0.00  0.00    +0.000 A 
ATOM     12  C   UNL     1       5.349   3.639  16.086  0.00  0.00    +0.000 A 
ATOM     13  C   UNL     1       5.646   4.735  15.288  0.00  0.00    +0.000 A 
ATOM     14  F   UNL     1       6.372   4.566  14.176  0.00  0.00    +0.000 F 
ATOM     15  C   UNL     1       5.184   6.000  15.636  0.00  0.00    +0.000 A 
ATOM     16  F   UNL     1       5.459   7.056  14.855  0.00  0.00    +0.000 F 
ATOM     17  C   UNL     1       4.424   6.190  16.785  0.00  0.00    +0.000 A 
ENDBRANCH   6  10
BRANCH   2  18
ATOM     18  C   UNL     1       0.570   9.584  21.254  0.00  0.00    +0.000 A 
ATOM     19  C   UNL     1      -0.050   9.088  22.403  0.00  0.00    +0.000 A 
ATOM     20  C   UNL     1      -0.815   9.936  23.192  0.00  0.00    +0.000 A 
ATOM     21  C   UNL     1      -0.960  11.279  22.832  0.00  0.00    +0.000 A 
ATOM     22  C   UNL     1      -0.352  11.803  21.683  0.00  0.00    +0.000 A 
ATOM     23  C   UNL     1       0.409  10.931  20.887  0.00  0.00    +0.000 A 
BRANCH  22  24
ATOM     24  N   UNL     1      -0.485  13.176  21.335  0.00  0.00    +0.000 N 
ATOM     25  C   UNL     1      -1.689  13.732  20.764  0.00  0.00    +0.000 C 
ATOM     26  C   UNL     1      -1.240  15.045  20.157  0.00  0.00    +0.000 C 
ATOM     27  C   UNL     1      -0.111  15.487  21.064  0.00  0.00    +0.000 C 
ATOM     28  C   UNL     1       0.469  14.184  21.558  0.00  0.00    +0.000 C 
ATOM     29  O   UNL     1       1.564  14.112  22.094  0.00  0.00    +0.000 OA
ENDBRANCH  22  24
ENDBRANCH   2  18
TORSDOF 3
ENDMDL
MODEL 9
REMARK VINA RESULT:      -8.4      1.949      2.683
REMARK  Name = 
REMARK  3 active torsions:
REMARK  status: ('A' for Active; 'I' for Inactive)
REMARK    1  A    between atoms: C_2  and  C_17
REMARK    2  A    between atoms: C_6  and  C_7
REMARK    3  A    between atoms: C_21  and  N_22
REMARK                            x       y       z     vdW  Elec       q    Type
REMARK                         _______ _______ _______ _____ _____    ______ ____
ROOT
ATOM      1  O   UNL     1       2.918   7.997  17.418  0.00  0.00    +0.000 OA
ATOM      2  C   UNL     1       2.651   7.522  18.516  0.00  0.00    +0.000 C 
ATOM      3  N   UNL     1       2.956   6.259  18.973  0.00  0.00    +0.000 N 
ATOM      4  C   UNL     1       3.619   5.372  18.171  0.00  0.00    +0.000 A 
ATOM      5  N   UNL     1       4.247   5.597  17.051  0.00  0.00    +0.000 NA
ATOM      6  C   UNL     1       4.717   4.411  16.525  0.00  0.00    +0.000 A 
ATOM      7  C   UNL     1       4.409   3.289  17.274  0.00  0.00    +0.000 A 
ATOM      8  S   UNL     1       3.587   3.756  18.712  0.00  0.00    +0.000 S 
ATOM      9  H   UNL     1       2.544   5.890  19.816  0.00  0.00    +0.000 HD
ENDROOT
BRANCH   6  10
ATOM     10  C   UNL     1       5.455   4.406  15.269  0.00  0.00    +0.000 A 
ATOM     11  C   UNL     1       6.674   5.102  15.182  0.00  0.00    +0.000 A 
ATOM     12  C   UNL     1       7.421   5.096  13.999  0.00  0.00    +0.000 A 
ATOM     13  C   UNL     1       6.951   4.388  12.902  0.00  0.00    +0.000 A 
ATOM     14  F   UNL     1       7.664   4.372  11.769  0.00  0.00    +0.000 F 
ATOM     15  C   UNL     1       5.750   3.690  12.982  0.00  0.00    +0.000 A 
ATOM     16  F   UNL     1       5.305   2.994  11.925  0.00  0.00    +0.000 F 
ATOM     17  C   UNL     1       5.000   3.693  14.153  0.00  0.00    +0.000 A 
ENDBRANCH   6  10
BRANCH   2  18
ATOM     18  C   UNL     1       1.834   8.343  19.443  0.00  0.00    +0.000 A 
ATOM     19  C   UNL     1       1.458   7.771  20.659  0.00  0.00    +0.000 A 
ATOM     20  C   UNL     1       0.692   8.502  21.556  0.00  0.00    +0.000 A 
ATOM     21  C   UNL     1       0.302   9.806  21.237  0.00  0.00    +0.000 A 
ATOM     22  C   UNL     1       0.662  10.405  20.021  0.00  0.00    +0.000 A 
ATOM     23  C   UNL     1       1.427   9.649  19.118  0.00  0.00    +0.000 A 
BRANCH  22  24
ATOM     24  N   UNL     1       0.282  11.740  19.713  0.00  0.00    +0.000 N 
ATOM     25  C   UNL     1      -0.754  12.066  18.760  0.00  0.00    +0.000 C 
ATOM     26  C   UNL     1      -0.506  13.522  18.425  0.00  0.00    +0.000 C 
ATOM     27  C   UNL     1       0.068  14.088  19.707  0.00  0.00    +0.000 C 
ATOM     28  C   UNL     1       0.779  12.906  20.321  0.00  0.00    +0.000 C 
ATOM     29  O   UNL     1       1.594  13.024  21.222  0.00  0.00    +0.000 OA
ENDBRANCH  22  24
ENDBRANCH   2  18
TORSDOF 3
ENDMDL
