MODEL 1
REMARK VINA RESULT:      -9.2      0.000      0.000
REMARK  Name = 
REMARK  5 active torsions:
REMARK  status: ('A' for Active; 'I' for Inactive)
REMARK    1  A    between atoms: C_2  and  C_14
REMARK    2  A    between atoms: N_3  and  C_4
REMARK    3  A    between atoms: C_18  and  C_19
REMARK    4  A    between atoms: C_23  and  O_24
REMARK    5  A    between atoms: O_24  and  C_25
REMARK                            x       y       z     vdW  Elec       q    Type
REMARK                         _______ _______ _______ _____ _____    ______ ____
ROOT
ATOM      1  C   UNL     1       6.270   5.459  17.407  0.00  0.00    +0.000 A 
ATOM      2  C   UNL     1       6.920   5.357  18.624  0.00  0.00    +0.000 A 
ATOM      3  N   UNL     1       8.044   4.630  18.393  0.00  0.00    +0.000 N 
ATOM      4  N   UNL     1       8.200   4.267  17.114  0.00  0.00    +0.000 NA
ATOM      5  C   UNL     1       7.130   4.782  16.474  0.00  0.00    +0.000 A 
ATOM      6  H   UNL     1       8.758   4.349  19.058  0.00  0.00    +0.000 HD
ENDROOT
BRANCH   5   7
ATOM      7  C   UNL     1       7.019   4.683  15.018  0.00  0.00    +0.000 A 
ATOM      8  C   UNL     1       7.983   5.249  14.173  0.00  0.00    +0.000 A 
ATOM      9  C   UNL     1       7.844   5.165  12.783  0.00  0.00    +0.000 A 
ATOM     10  C   UNL     1       6.740   4.517  12.220  0.00  0.00    +0.000 A 
ATOM     11  C   UNL     1       5.766   3.974  13.053  0.00  0.00    +0.000 A 
ATOM     12  C   UNL     1       5.910   4.062  14.437  0.00  0.00    +0.000 A 
BRANCH  11  13
ATOM     13  O   UNL     1       4.650   3.294  12.652  0.00  0.00    +0.000 OA
BRANCH  13  14
ATOM     14  C   UNL     1       4.635   2.891  11.300  0.00  0.00    +0.000 C 
ATOM     15  F   UNL     1       5.211   1.665  11.203  0.00  0.00    +0.000 F 
ATOM     16  F   UNL     1       3.333   2.737  10.946  0.00  0.00    +0.000 F 
ENDBRANCH  13  14
ENDBRANCH  11  13
ENDBRANCH   5   7
BRANCH   1  18
ATOM     17  O   UNL     1       4.855   7.101  16.469  0.00  0.00    +0.000 OA
ATOM     18  C   UNL     1       4.989   6.109  17.176  0.00  0.00    +0.000 C 
ATOM     19  N   UNL     1       3.939   5.525  17.847  0.00  0.00    +0.000 N 
ATOM     20  H   UNL     1       4.162   4.851  18.571  0.00  0.00    +0.000 HD
BRANCH  19  21
ATOM     21  C   UNL     1       2.585   6.091  17.850  0.00  0.00    +0.000 C 
ATOM     22  C   UNL     1       2.299   6.908  19.117  0.00  0.00    +0.000 C 
ATOM     23  O   UNL     1       2.329   6.141  20.330  0.00  0.00    +0.000 OA
ATOM     24  C   UNL     1       1.893   4.847  20.252  0.00  0.00    +0.000 A 
ATOM     25  C   UNL     1       1.918   4.126  21.445  0.00  0.00    +0.000 A 
ATOM     26  C   UNL     1       1.583   2.772  21.454  0.00  0.00    +0.000 A 
ATOM     27  C   UNL     1       1.191   2.145  20.274  0.00  0.00    +0.000 A 
ATOM     28  C   UNL     1       1.142   2.869  19.082  0.00  0.00    +0.000 A 
ATOM     29  C   UNL     1       1.517   4.218  19.060  0.00  0.00    +0.000 A 
ATOM     30  C   UNL     1       1.549   4.973  17.762  0.00  0.00    +0.000 C 
ENDBRANCH  19  21
ENDBRANCH   1  18
TORSDOF 5
ENDMDL
MODEL 2
REMARK VINA RESULT:      -8.1      1.836      2.250
REMARK  Name = 
REMARK  5 active torsions:
REMARK  status: ('A' for Active; 'I' for Inactive)
REMARK    1  A    between atoms: C_2  and  C_14
REMARK    2  A    between atoms: N_3  and  C_4
REMARK    3  A    between atoms: C_18  and  C_19
REMARK    4  A    between atoms: C_23  and  O_24
REMARK    5  A    between atoms: O_24  and  C_25
REMARK                            x       y       z     vdW  Elec       q    Type
REMARK                         _______ _______ _______ _____ _____    ______ ____
ROOT
ATOM      1  C   UNL     1       6.403   5.658  18.054  0.00  0.00    +0.000 A 
ATOM      2  C   UNL     1       7.174   5.647  19.203  0.00  0.00    +0.000 A 
ATOM      3  N   UNL     1       8.214   4.809  18.953  0.00  0.00    +0.000 N 
ATOM      4  N   UNL     1       8.203   4.286  17.720  0.00  0.00    +0.000 NA
ATOM      5  C   UNL     1       7.107   4.809  17.131  0.00  0.00    +0.000 A 
ATOM      6  H   UNL     1       8.975   4.551  19.572  0.00  0.00    +0.000 HD
ENDROOT
BRANCH   5   7
ATOM      7  C   UNL     1       6.830   4.548  15.718  0.00  0.00    +0.000 A 
ATOM      8  C   UNL     1       5.765   3.729  15.323  0.00  0.00    +0.000 A 
ATOM      9  C   UNL     1       5.534   3.472  13.967  0.00  0.00    +0.000 A 
ATOM     10  C   UNL     1       6.365   4.028  12.989  0.00  0.00    +0.000 A 
ATOM     11  C   UNL     1       7.440   4.823  13.375  0.00  0.00    +0.000 A 
ATOM     12  C   UNL     1       7.665   5.075  14.728  0.00  0.00    +0.000 A 
BRANCH  11  13
ATOM     13  O   UNL     1       8.319   5.452  12.539  0.00  0.00    +0.000 OA
BRANCH  13  14
ATOM     14  C   UNL     1       7.742   6.329  11.596  0.00  0.00    +0.000 C 
ATOM     15  F   UNL     1       8.644   7.295  11.290  0.00  0.00    +0.000 F 
ATOM     16  F   UNL     1       7.540   5.612  10.460  0.00  0.00    +0.000 F 
ENDBRANCH  13  14
ENDBRANCH  11  13
ENDBRANCH   5   7
BRANCH   1  18
ATOM     17  O   UNL     1       5.096   7.568  17.588  0.00  0.00    +0.000 OA
ATOM     18  C   UNL     1       5.152   6.379  17.873  0.00  0.00    +0.000 C 
ATOM     19  N   UNL     1       4.030   5.608  18.079  0.00  0.00    +0.000 N 
ATOM     20  H   UNL     1       4.158   4.703  18.517  0.00  0.00    +0.000 HD
BRANCH  19  21
ATOM     21  C   UNL     1       2.672   6.163  18.067  0.00  0.00    +0.000 C 
ATOM     22  C   UNL     1       2.314   6.855  19.389  0.00  0.00    +0.000 C 
ATOM     23  O   UNL     1       2.292   5.976  20.524  0.00  0.00    +0.000 OA
ATOM     24  C   UNL     1       1.874   4.693  20.302  0.00  0.00    +0.000 A 
ATOM     25  C   UNL     1       1.847   3.862  21.422  0.00  0.00    +0.000 A 
ATOM     26  C   UNL     1       1.527   2.511  21.286  0.00  0.00    +0.000 A 
ATOM     27  C   UNL     1       1.201   1.996  20.034  0.00  0.00    +0.000 A 
ATOM     28  C   UNL     1       1.204   2.830  18.915  0.00  0.00    +0.000 A 
ATOM     29  C   UNL     1       1.565   4.177  19.039  0.00  0.00    +0.000 A 
ATOM     30  C   UNL     1       1.654   5.052  17.822  0.00  0.00    +0.000 C 
ENDBRANCH  19  21
ENDBRANCH   1  18
TORSDOF 5
ENDMDL
MODEL 3
REMARK VINA RESULT:      -7.7      4.348      7.919
REMARK  Name = 
REMARK  5 active torsions:
REMARK  status: ('A' for Active; 'I' for Inactive)
REMARK    1  A    between atoms: C_2  and  C_14
REMARK    2  A    between atoms: N_3  and  C_4
REMARK    3  A    between atoms: C_18  and  C_19
REMARK    4  A    between atoms: C_23  and  O_24
REMARK    5  A    between atoms: O_24  and  C_25
REMARK                            x       y       z     vdW  Elec       q    Type
REMARK                         _______ _______ _______ _____ _____    ______ ____
ROOT
ATOM      1  C   UNL     1       2.443   3.395  18.829  0.00  0.00    +0.000 A 
ATOM      2  C   UNL     1       2.263   2.191  19.487  0.00  0.00    +0.000 A 
ATOM      3  N   UNL     1       1.924   2.506  20.765  0.00  0.00    +0.000 N 
ATOM      4  N   UNL     1       1.843   3.822  20.994  0.00  0.00    +0.000 NA
ATOM      5  C   UNL     1       2.137   4.400  19.811  0.00  0.00    +0.000 A 
ATOM      6  H   UNL     1       1.726   1.876  21.535  0.00  0.00    +0.000 HD
ENDROOT
BRANCH   5   7
ATOM      7  C   UNL     1       2.033   5.850  19.648  0.00  0.00    +0.000 A 
ATOM      8  C   UNL     1       2.321   6.470  18.426  0.00  0.00    +0.000 A 
ATOM      9  C   UNL     1       2.241   7.861  18.299  0.00  0.00    +0.000 A 
ATOM     10  C   UNL     1       1.873   8.651  19.392  0.00  0.00    +0.000 A 
ATOM     11  C   UNL     1       1.608   8.046  20.617  0.00  0.00    +0.000 A 
ATOM     12  C   UNL     1       1.691   6.659  20.737  0.00  0.00    +0.000 A 
BRANCH  11  13
ATOM     13  O   UNL     1       1.217   8.680  21.763  0.00  0.00    +0.000 OA
BRANCH  13  14
ATOM     14  C   UNL     1      -0.135   9.084  21.804  0.00  0.00    +0.000 C 
ATOM     15  F   UNL     1      -0.923   7.988  21.659  0.00  0.00    +0.000 F 
ATOM     16  F   UNL     1      -0.367   9.567  23.052  0.00  0.00    +0.000 F 
ENDBRANCH  13  14
ENDBRANCH  11  13
ENDBRANCH   5   7
BRANCH   1  18
ATOM     17  O   UNL     1       2.190   3.195  16.490  0.00  0.00    +0.000 OA
ATOM     18  C   UNL     1       2.866   3.556  17.446  0.00  0.00    +0.000 C 
ATOM     19  N   UNL     1       4.110   4.127  17.306  0.00  0.00    +0.000 N 
ATOM     20  H   UNL     1       4.689   4.198  18.135  0.00  0.00    +0.000 HD
BRANCH  19  21
ATOM     21  C   UNL     1       4.777   4.270  16.007  0.00  0.00    +0.000 C 
ATOM     22  C   UNL     1       6.131   3.548  15.966  0.00  0.00    +0.000 C 
ATOM     23  O   UNL     1       7.102   4.070  16.885  0.00  0.00    +0.000 OA
ATOM     24  C   UNL     1       7.065   5.417  17.122  0.00  0.00    +0.000 A 
ATOM     25  C   UNL     1       8.027   5.903  18.007  0.00  0.00    +0.000 A 
ATOM     26  C   UNL     1       8.015   7.245  18.389  0.00  0.00    +0.000 A 
ATOM     27  C   UNL     1       7.059   8.109  17.861  0.00  0.00    +0.000 A 
ATOM     28  C   UNL     1       6.110   7.632  16.957  0.00  0.00    +0.000 A 
ATOM     29  C   UNL     1       6.092   6.277  16.603  0.00  0.00    +0.000 A 
ATOM     30  C   UNL     1       5.016   5.745  15.699  0.00  0.00    +0.000 C 
ENDBRANCH  19  21
ENDBRANCH   1  18
TORSDOF 5
ENDMDL
MODEL 4
REMARK VINA RESULT:      -7.6      4.100      6.079
REMARK  Name = 
REMARK  5 active torsions:
REMARK  status: ('A' for Active; 'I' for Inactive)
REMARK    1  A    between atoms: C_2  and  C_14
REMARK    2  A    between atoms: N_3  and  C_4
REMARK    3  A    between atoms: C_18  and  C_19
REMARK    4  A    between atoms: C_23  and  O_24
REMARK    5  A    between atoms: O_24  and  C_25
REMARK                            x       y       z     vdW  Elec       q    Type
REMARK                         _______ _______ _______ _____ _____    ______ ____
ROOT
ATOM      1  C   UNL     1       5.755   5.180  17.063  0.00  0.00    +0.000 A 
ATOM      2  C   UNL     1       6.585   5.129  15.957  0.00  0.00    +0.000 A 
ATOM      3  N   UNL     1       6.159   6.110  15.119  0.00  0.00    +0.000 N 
ATOM      4  N   UNL     1       5.129   6.819  15.596  0.00  0.00    +0.000 NA
ATOM      5  C   UNL     1       4.869   6.283  16.807  0.00  0.00    +0.000 A 
ATOM      6  H   UNL     1       6.527   6.360  14.207  0.00  0.00    +0.000 HD
ENDROOT
BRANCH   5   7
ATOM      7  C   UNL     1       3.865   6.885  17.684  0.00  0.00    +0.000 A 
ATOM      8  C   UNL     1       3.487   6.275  18.887  0.00  0.00    +0.000 A 
ATOM      9  C   UNL     1       2.506   6.855  19.699  0.00  0.00    +0.000 A 
ATOM     10  C   UNL     1       1.889   8.051  19.318  0.00  0.00    +0.000 A 
ATOM     11  C   UNL     1       2.241   8.651  18.112  0.00  0.00    +0.000 A 
ATOM     12  C   UNL     1       3.219   8.067  17.308  0.00  0.00    +0.000 A 
BRANCH  11  13
ATOM     13  O   UNL     1       1.745   9.826  17.621  0.00  0.00    +0.000 OA
BRANCH  13  14
ATOM     14  C   UNL     1       0.712  10.416  18.380  0.00  0.00    +0.000 C 
ATOM     15  F   UNL     1       0.856  11.764  18.341  0.00  0.00    +0.000 F 
ATOM     16  F   UNL     1      -0.456  10.132  17.747  0.00  0.00    +0.000 F 
ENDBRANCH  13  14
ENDBRANCH  11  13
ENDBRANCH   5   7
BRANCH   1  18
ATOM     17  O   UNL     1       6.555   4.436  19.156  0.00  0.00    +0.000 OA
ATOM     18  C   UNL     1       5.800   4.279  18.205  0.00  0.00    +0.000 C 
ATOM     19  N   UNL     1       4.934   3.213  18.109  0.00  0.00    +0.000 N 
ATOM     20  H   UNL     1       4.505   3.038  17.207  0.00  0.00    +0.000 HD
BRANCH  19  21
ATOM     21  C   UNL     1       4.904   2.123  19.091  0.00  0.00    +0.000 C 
ATOM     22  C   UNL     1       4.081   0.923  18.602  0.00  0.00    +0.000 C 
ATOM     23  O   UNL     1       2.690   1.210  18.398  0.00  0.00    +0.000 OA
ATOM     24  C   UNL     1       2.117   2.118  19.245  0.00  0.00    +0.000 A 
ATOM     25  C   UNL     1       0.761   2.370  19.037  0.00  0.00    +0.000 A 
ATOM     26  C   UNL     1       0.106   3.348  19.785  0.00  0.00    +0.000 A 
ATOM     27  C   UNL     1       0.799   4.054  20.765  0.00  0.00    +0.000 A 
ATOM     28  C   UNL     1       2.149   3.788  20.993  0.00  0.00    +0.000 A 
ATOM     29  C   UNL     1       2.822   2.837  20.216  0.00  0.00    +0.000 A 
ATOM     30  C   UNL     1       4.296   2.614  20.402  0.00  0.00    +0.000 C 
ENDBRANCH  19  21
ENDBRANCH   1  18
TORSDOF 5
ENDMDL
MODEL 5
REMARK VINA RESULT:      -7.5      9.436     11.853
REMARK  Name = 
REMARK  5 active torsions:
REMARK  status: ('A' for Active; 'I' for Inactive)
REMARK    1  A    between atoms: C_2  and  C_14
REMARK    2  A    between atoms: N_3  and  C_4
REMARK    3  A    between atoms: C_18  and  C_19
REMARK    4  A    between atoms: C_23  and  O_24
REMARK    5  A    between atoms: O_24  and  C_25
REMARK                            x       y       z     vdW  Elec       q    Type
REMARK                         _______ _______ _______ _____ _____    ______ ____
ROOT
ATOM      1  C   UNL     1      -4.054  11.509  17.532  0.00  0.00    +0.000 A 
ATOM      2  C   UNL     1      -4.574  11.254  16.275  0.00  0.00    +0.000 A 
ATOM      3  N   UNL     1      -3.507  11.102  15.448  0.00  0.00    +0.000 N 
ATOM      4  N   UNL     1      -2.324  11.212  16.065  0.00  0.00    +0.000 NA
ATOM      5  C   UNL     1      -2.628  11.443  17.360  0.00  0.00    +0.000 A 
ATOM      6  H   UNL     1      -3.507  10.913  14.450  0.00  0.00    +0.000 HD
ENDROOT
BRANCH   5   7
ATOM      7  C   UNL     1      -1.571  11.505  18.369  0.00  0.00    +0.000 A 
ATOM      8  C   UNL     1      -0.779  12.649  18.527  0.00  0.00    +0.000 A 
ATOM      9  C   UNL     1       0.245  12.678  19.481  0.00  0.00    +0.000 A 
ATOM     10  C   UNL     1       0.490  11.562  20.288  0.00  0.00    +0.000 A 
ATOM     11  C   UNL     1      -0.276  10.413  20.121  0.00  0.00    +0.000 A 
ATOM     12  C   UNL     1      -1.293  10.391  19.168  0.00  0.00    +0.000 A 
BRANCH  11  13
ATOM     13  O   UNL     1      -0.169   9.260  20.847  0.00  0.00    +0.000 OA
BRANCH  13  14
ATOM     14  C   UNL     1       0.401   9.399  22.130  0.00  0.00    +0.000 C 
ATOM     15  F   UNL     1      -0.538   9.091  23.061  0.00  0.00    +0.000 F 
ATOM     16  F   UNL     1       1.374   8.457  22.235  0.00  0.00    +0.000 F 
ENDBRANCH  13  14
ENDBRANCH  11  13
ENDBRANCH   5   7
BRANCH   1  18
ATOM     17  O   UNL     1      -5.710  11.057  19.152  0.00  0.00    +0.000 OA
ATOM     18  C   UNL     1      -4.826  11.792  18.732  0.00  0.00    +0.000 C 
ATOM     19  N   UNL     1      -4.492  12.979  19.343  0.00  0.00    +0.000 N 
ATOM     20  H   UNL     1      -3.909  13.626  18.823  0.00  0.00    +0.000 HD
BRANCH  19  21
ATOM     21  C   UNL     1      -5.226  13.514  20.496  0.00  0.00    +0.000 C 
ATOM     22  C   UNL     1      -4.957  15.010  20.714  0.00  0.00    +0.000 C 
ATOM     23  O   UNL     1      -3.592  15.320  21.029  0.00  0.00    +0.000 OA
ATOM     24  C   UNL     1      -2.906  14.399  21.772  0.00  0.00    +0.000 A 
ATOM     25  C   UNL     1      -1.586  14.729  22.079  0.00  0.00    +0.000 A 
ATOM     26  C   UNL     1      -0.772  13.816  22.750  0.00  0.00    +0.000 A 
ATOM     27  C   UNL     1      -1.287  12.583  23.143  0.00  0.00    +0.000 A 
ATOM     28  C   UNL     1      -2.614  12.259  22.859  0.00  0.00    +0.000 A 
ATOM     29  C   UNL     1      -3.423  13.155  22.149  0.00  0.00    +0.000 A 
ATOM     30  C   UNL     1      -4.823  12.769  21.766  0.00  0.00    +0.000 C 
ENDBRANCH  19  21
ENDBRANCH   1  18
TORSDOF 5
ENDMDL
MODEL 6
REMARK VINA RESULT:      -7.5      4.969      8.474
REMARK  Name = 
REMARK  5 active torsions:
REMARK  status: ('A' for Active; 'I' for Inactive)
REMARK    1  A    between atoms: C_2  and  C_14
REMARK    2  A    between atoms: N_3  and  C_4
REMARK    3  A    between atoms: C_18  and  C_19
REMARK    4  A    between atoms: C_23  and  O_24
REMARK    5  A    between atoms: O_24  and  C_25
REMARK                            x       y       z     vdW  Elec       q    Type
REMARK                         _______ _______ _______ _____ _____    ______ ____
ROOT
ATOM      1  C   UNL     1       1.714   8.502  20.005  0.00  0.00    +0.000 A 
ATOM      2  C   UNL     1       1.973   7.839  21.192  0.00  0.00    +0.000 A 
ATOM      3  N   UNL     1       1.617   8.692  22.187  0.00  0.00    +0.000 N 
ATOM      4  N   UNL     1       1.119   9.855  21.750  0.00  0.00    +0.000 NA
ATOM      5  C   UNL     1       1.145   9.761  20.405  0.00  0.00    +0.000 A 
ATOM      6  H   UNL     1       1.677   8.546  23.190  0.00  0.00    +0.000 HD
ENDROOT
BRANCH   5   7
ATOM      7  C   UNL     1       0.562  10.817  19.577  0.00  0.00    +0.000 A 
ATOM      8  C   UNL     1       1.237  12.023  19.350  0.00  0.00    +0.000 A 
ATOM      9  C   UNL     1       0.650  13.030  18.577  0.00  0.00    +0.000 A 
ATOM     10  C   UNL     1      -0.620  12.846  18.021  0.00  0.00    +0.000 A 
ATOM     11  C   UNL     1      -1.308  11.660  18.261  0.00  0.00    +0.000 A 
ATOM     12  C   UNL     1      -0.717  10.661  19.034  0.00  0.00    +0.000 A 
BRANCH  11  13
ATOM     13  O   UNL     1      -2.539  11.327  17.769  0.00  0.00    +0.000 OA
BRANCH  13  14
ATOM     14  C   UNL     1      -2.801   9.944  17.667  0.00  0.00    +0.000 C 
ATOM     15  F   UNL     1      -4.124   9.734  17.882  0.00  0.00    +0.000 F 
ATOM     16  F   UNL     1      -2.555   9.588  16.380  0.00  0.00    +0.000 F 
ENDBRANCH  13  14
ENDBRANCH  11  13
ENDBRANCH   5   7
BRANCH   1  18
ATOM     17  O   UNL     1       1.482   8.464  17.656  0.00  0.00    +0.000 OA
ATOM     18  C   UNL     1       1.988   7.997  18.668  0.00  0.00    +0.000 C 
ATOM     19  N   UNL     1       2.850   6.924  18.643  0.00  0.00    +0.000 N 
ATOM     20  H   UNL     1       3.053   6.466  19.525  0.00  0.00    +0.000 HD
BRANCH  19  21
ATOM     21  C   UNL     1       3.167   6.187  17.415  0.00  0.00    +0.000 C 
ATOM     22  C   UNL     1       3.483   4.710  17.687  0.00  0.00    +0.000 C 
ATOM     23  O   UNL     1       4.649   4.500  18.497  0.00  0.00    +0.000 OA
ATOM     24  C   UNL     1       5.676   5.390  18.343  0.00  0.00    +0.000 A 
ATOM     25  C   UNL     1       6.803   5.157  19.130  0.00  0.00    +0.000 A 
ATOM     26  C   UNL     1       7.867   6.059  19.117  0.00  0.00    +0.000 A 
ATOM     27  C   UNL     1       7.817   7.181  18.292  0.00  0.00    +0.000 A 
ATOM     28  C   UNL     1       6.701   7.404  17.486  0.00  0.00    +0.000 A 
ATOM     29  C   UNL     1       5.613   6.524  17.526  0.00  0.00    +0.000 A 
ATOM     30  C   UNL     1       4.376   6.813  16.725  0.00  0.00    +0.000 C 
ENDBRANCH  19  21
ENDBRANCH   1  18
TORSDOF 5
ENDMDL
MODEL 7
REMARK VINA RESULT:      -7.4      9.560     12.452
REMARK  Name = 
REMARK  5 active torsions:
REMARK  status: ('A' for Active; 'I' for Inactive)
REMARK    1  A    between atoms: C_2  and  C_14
REMARK    2  A    between atoms: N_3  and  C_4
REMARK    3  A    between atoms: C_18  and  C_19
REMARK    4  A    between atoms: C_23  and  O_24
REMARK    5  A    between atoms: O_24  and  C_25
REMARK                            x       y       z     vdW  Elec       q    Type
REMARK                         _______ _______ _______ _____ _____    ______ ____
ROOT
ATOM      1  C   UNL     1      -6.030  12.632  21.787  0.00  0.00    +0.000 A 
ATOM      2  C   UNL     1      -6.921  12.268  22.781  0.00  0.00    +0.000 A 
ATOM      3  N   UNL     1      -7.863  11.494  22.181  0.00  0.00    +0.000 N 
ATOM      4  N   UNL     1      -7.649  11.299  20.874  0.00  0.00    +0.000 NA
ATOM      5  C   UNL     1      -6.512  11.972  20.603  0.00  0.00    +0.000 A 
ATOM      6  H   UNL     1      -8.677  11.057  22.601  0.00  0.00    +0.000 HD
ENDROOT
BRANCH   5   7
ATOM      7  C   UNL     1      -5.900  11.890  19.277  0.00  0.00    +0.000 A 
ATOM      8  C   UNL     1      -6.356  12.678  18.213  0.00  0.00    +0.000 A 
ATOM      9  C   UNL     1      -5.774  12.565  16.945  0.00  0.00    +0.000 A 
ATOM     10  C   UNL     1      -4.730  11.661  16.725  0.00  0.00    +0.000 A 
ATOM     11  C   UNL     1      -4.287  10.857  17.770  0.00  0.00    +0.000 A 
ATOM     12  C   UNL     1      -4.872  10.974  19.031  0.00  0.00    +0.000 A 
BRANCH  11  13
ATOM     13  O   UNL     1      -3.266   9.950  17.714  0.00  0.00    +0.000 OA
BRANCH  13  14
ATOM     14  C   UNL     1      -2.313  10.168  16.696  0.00  0.00    +0.000 C 
ATOM     15  F   UNL     1      -1.102   9.738  17.132  0.00  0.00    +0.000 F 
ATOM     16  F   UNL     1      -2.657   9.369  15.653  0.00  0.00    +0.000 F 
ENDBRANCH  13  14
ENDBRANCH  11  13
ENDBRANCH   5   7
BRANCH   1  18
ATOM     17  O   UNL     1      -4.970  14.726  22.039  0.00  0.00    +0.000 OA
ATOM     18  C   UNL     1      -4.880  13.508  21.951  0.00  0.00    +0.000 C 
ATOM     19  N   UNL     1      -3.673  12.846  21.971  0.00  0.00    +0.000 N 
ATOM     20  H   UNL     1      -3.667  11.875  21.680  0.00  0.00    +0.000 HD
BRANCH  19  21
ATOM     21  C   UNL     1      -2.384  13.545  22.006  0.00  0.00    +0.000 C 
ATOM     22  C   UNL     1      -1.724  13.619  20.623  0.00  0.00    +0.000 C 
ATOM     23  O   UNL     1      -1.381  12.341  20.068  0.00  0.00    +0.000 OA
ATOM     24  C   UNL     1      -0.989  11.371  20.949  0.00  0.00    +0.000 A 
ATOM     25  C   UNL     1      -0.646  10.143  20.385  0.00  0.00    +0.000 A 
ATOM     26  C   UNL     1      -0.324   9.060  21.203  0.00  0.00    +0.000 A 
ATOM     27  C   UNL     1      -0.313   9.214  22.588  0.00  0.00    +0.000 A 
ATOM     28  C   UNL     1      -0.631  10.448  23.155  0.00  0.00    +0.000 A 
ATOM     29  C   UNL     1      -0.996  11.526  22.339  0.00  0.00    +0.000 A 
ATOM     30  C   UNL     1      -1.424  12.829  22.953  0.00  0.00    +0.000 C 
ENDBRANCH  19  21
ENDBRANCH   1  18
TORSDOF 5
ENDMDL
MODEL 8
REMARK VINA RESULT:      -7.4      4.851      6.862
REMARK  Name = 
REMARK  5 active torsions:
REMARK  status: ('A' for Active; 'I' for Inactive)
REMARK    1  A    between atoms: C_2  and  C_14
REMARK    2  A    between atoms: N_3  and  C_4
REMARK    3  A    between atoms: C_18  and  C_19
REMARK    4  A    between atoms: C_23  and  O_24
REMARK    5  A    between atoms: O_24  and  C_25
REMARK                            x       y       z     vdW  Elec       q    Type
REMARK                         _______ _______ _______ _____ _____    ______ ____
ROOT
ATOM      1  C   UNL     1       2.136   7.591  19.347  0.00  0.00    +0.000 A 
ATOM      2  C   UNL     1       1.599   7.508  20.619  0.00  0.00    +0.000 A 
ATOM      3  N   UNL     1       1.985   6.303  21.115  0.00  0.00    +0.000 N 
ATOM      4  N   UNL     1       2.755   5.596  20.279  0.00  0.00    +0.000 NA
ATOM      5  C   UNL     1       2.885   6.374  19.184  0.00  0.00    +0.000 A 
ATOM      6  H   UNL     1       1.768   5.898  22.020  0.00  0.00    +0.000 HD
ENDROOT
BRANCH   5   7
ATOM      7  C   UNL     1       3.768   5.971  18.090  0.00  0.00    +0.000 A 
ATOM      8  C   UNL     1       3.526   4.807  17.349  0.00  0.00    +0.000 A 
ATOM      9  C   UNL     1       4.398   4.425  16.323  0.00  0.00    +0.000 A 
ATOM     10  C   UNL     1       5.522   5.201  16.025  0.00  0.00    +0.000 A 
ATOM     11  C   UNL     1       5.783   6.346  16.772  0.00  0.00    +0.000 A 
ATOM     12  C   UNL     1       4.911   6.720  17.793  0.00  0.00    +0.000 A 
BRANCH  11  13
ATOM     13  O   UNL     1       6.823   7.213  16.583  0.00  0.00    +0.000 OA
BRANCH  13  14
ATOM     14  C   UNL     1       7.429   7.701  17.760  0.00  0.00    +0.000 C 
ATOM     15  F   UNL     1       8.172   6.710  18.314  0.00  0.00    +0.000 F 
ATOM     16  F   UNL     1       8.299   8.674  17.383  0.00  0.00    +0.000 F 
ENDBRANCH  13  14
ENDBRANCH  11  13
ENDBRANCH   5   7
BRANCH   1  18
ATOM     17  O   UNL     1       2.349   8.663  17.254  0.00  0.00    +0.000 OA
ATOM     18  C   UNL     1       1.942   8.687  18.409  0.00  0.00    +0.000 C 
ATOM     19  N   UNL     1       1.283   9.769  18.945  0.00  0.00    +0.000 N 
ATOM     20  H   UNL     1       1.172   9.798  19.952  0.00  0.00    +0.000 HD
BRANCH  19  21
ATOM     21  C   UNL     1       1.090  11.025  18.211  0.00  0.00    +0.000 C 
ATOM     22  C   UNL     1       1.999  12.148  18.729  0.00  0.00    +0.000 C 
ATOM     23  O   UNL     1       1.745  12.528  20.090  0.00  0.00    +0.000 OA
ATOM     24  C   UNL     1       0.447  12.465  20.516  0.00  0.00    +0.000 A 
ATOM     25  C   UNL     1       0.223  12.853  21.836  0.00  0.00    +0.000 A 
ATOM     26  C   UNL     1      -1.050  12.735  22.396  0.00  0.00    +0.000 A 
ATOM     27  C   UNL     1      -2.107  12.259  21.624  0.00  0.00    +0.000 A 
ATOM     28  C   UNL     1      -1.892  11.892  20.296  0.00  0.00    +0.000 A 
ATOM     29  C   UNL     1      -0.607  11.969  19.742  0.00  0.00    +0.000 A 
ATOM     30  C   UNL     1      -0.358  11.490  18.340  0.00  0.00    +0.000 C 
ENDBRANCH  19  21
ENDBRANCH   1  18
TORSDOF 5
ENDMDL
MODEL 9
REMARK VINA RESULT:      -7.3      4.592      7.979
REMARK  Name = 
REMARK  5 active torsions:
REMARK  status: ('A' for Active; 'I' for Inactive)
REMARK    1  A    between atoms: C_2  and  C_14
REMARK    2  A    between atoms: N_3  and  C_4
REMARK    3  A    between atoms: C_18  and  C_19
REMARK    4  A    between atoms: C_23  and  O_24
REMARK    5  A    between atoms: O_24  and  C_25
REMARK                            x       y       z     vdW  Elec       q    Type
REMARK                         _______ _______ _______ _____ _____    ______ ____
ROOT
ATOM      1  C   UNL     1       2.471   3.806  19.145  0.00  0.00    +0.000 A 
ATOM      2  C   UNL     1       2.314   2.700  19.960  0.00  0.00    +0.000 A 
ATOM      3  N   UNL     1       1.946   3.177  21.178  0.00  0.00    +0.000 N 
ATOM      4  N   UNL     1       1.824   4.509  21.222  0.00  0.00    +0.000 NA
ATOM      5  C   UNL     1       2.121   4.927  19.974  0.00  0.00    +0.000 A 
ATOM      6  H   UNL     1       1.753   2.653  22.026  0.00  0.00    +0.000 HD
ENDROOT
BRANCH   5   7
ATOM      7  C   UNL     1       1.979   6.337  19.612  0.00  0.00    +0.000 A 
ATOM      8  C   UNL     1       2.390   6.814  18.361  0.00  0.00    +0.000 A 
ATOM      9  C   UNL     1       2.269   8.171  18.044  0.00  0.00    +0.000 A 
ATOM     10  C   UNL     1       1.737   9.070  18.974  0.00  0.00    +0.000 A 
ATOM     11  C   UNL     1       1.349   8.609  20.228  0.00  0.00    +0.000 A 
ATOM     12  C   UNL     1       1.473   7.255  20.538  0.00  0.00    +0.000 A 
BRANCH  11  13
ATOM     13  O   UNL     1       0.793   9.359  21.226  0.00  0.00    +0.000 OA
BRANCH  13  14
ATOM     14  C   UNL     1       0.326  10.634  20.843  0.00  0.00    +0.000 C 
ATOM     15  F   UNL     1      -0.710  10.981  21.648  0.00  0.00    +0.000 F 
ATOM     16  F   UNL     1       1.327  11.517  21.096  0.00  0.00    +0.000 F 
ENDBRANCH  13  14
ENDBRANCH  11  13
ENDBRANCH   5   7
BRANCH   1  18
ATOM     17  O   UNL     1       2.323   3.177  16.873  0.00  0.00    +0.000 OA
ATOM     18  C   UNL     1       2.911   3.787  17.758  0.00  0.00    +0.000 C 
ATOM     19  N   UNL     1       4.068   4.496  17.530  0.00  0.00    +0.000 N 
ATOM     20  H   UNL     1       4.605   4.789  18.339  0.00  0.00    +0.000 HD
BRANCH  19  21
ATOM     21  C   UNL     1       4.751   4.509  16.231  0.00  0.00    +0.000 C 
ATOM     22  C   UNL     1       6.037   3.671  16.241  0.00  0.00    +0.000 C 
ATOM     23  O   UNL     1       7.046   4.156  17.139  0.00  0.00    +0.000 OA
ATOM     24  C   UNL     1       7.126   5.512  17.303  0.00  0.00    +0.000 A 
ATOM     25  C   UNL     1       8.123   5.960  18.168  0.00  0.00    +0.000 A 
ATOM     26  C   UNL     1       8.227   7.317  18.476  0.00  0.00    +0.000 A 
ATOM     27  C   UNL     1       7.352   8.231  17.894  0.00  0.00    +0.000 A 
ATOM     28  C   UNL     1       6.369   7.789  17.009  0.00  0.00    +0.000 A 
ATOM     29  C   UNL     1       6.234   6.424  16.729  0.00  0.00    +0.000 A 
ATOM     30  C   UNL     1       5.119   5.939  15.846  0.00  0.00    +0.000 C 
ENDBRANCH  19  21
ENDBRANCH   1  18
TORSDOF 5
ENDMDL
