MODEL 1
REMARK VINA RESULT:      -8.3      0.000      0.000
REMARK  Name = 
REMARK  4 active torsions:
REMARK  status: ('A' for Active; 'I' for Inactive)
REMARK    1  A    between atoms: C_2  and  C_3
REMARK    2  A    between atoms: C_3  and  C_4
REMARK    3  A    between atoms: C_4  and  N_5
REMARK    4  A    between atoms: C_19  and  C_20
REMARK                            x       y       z     vdW  Elec       q    Type
REMARK                         _______ _______ _______ _____ _____    ______ ____
ROOT
ATOM      1  O   UNL     1       2.680   1.732  17.449  0.00  0.00    +0.000 OA
ATOM      2  C   UNL     1       2.654   2.924  17.757  0.00  0.00    +0.000 C 
ATOM      3  N   UNL     1       2.239   3.281  19.015  0.00  0.00    +0.000 N 
ATOM      4  C   UNL     1       2.141   4.568  19.456  0.00  0.00    +0.000 A 
ATOM      5  N   UNL     1       2.060   5.656  18.737  0.00  0.00    +0.000 NA
ATOM      6  C   UNL     1       2.042   6.759  19.559  0.00  0.00    +0.000 A 
ATOM      7  C   UNL     1       2.185   6.484  20.904  0.00  0.00    +0.000 A 
ATOM      8  S   UNL     1       2.155   4.779  21.146  0.00  0.00    +0.000 S 
ATOM      9  H   UNL     1       2.073   2.533  19.672  0.00  0.00    +0.000 HD
ENDROOT
BRANCH   6  10
ATOM     10  C   UNL     1       1.884   8.079  18.951  0.00  0.00    +0.000 A 
ATOM     11  C   UNL     1       2.461   8.533  17.786  0.00  0.00    +0.000 A 
ATOM     12  N   UNL     1       2.050   9.827  17.596  0.00  0.00    +0.000 N 
ATOM     13  C   UNL     1       1.259  10.239  18.645  0.00  0.00    +0.000 A 
ATOM     14  C   UNL     1       0.662  11.483  18.891  0.00  0.00    +0.000 A 
ATOM     15  C   UNL     1      -0.081  11.627  20.067  0.00  0.00    +0.000 A 
ATOM     16  C   UNL     1      -0.235  10.565  20.952  0.00  0.00    +0.000 A 
ATOM     17  C   UNL     1       0.354   9.324  20.683  0.00  0.00    +0.000 A 
ATOM     18  C   UNL     1       1.125   9.152  19.511  0.00  0.00    +0.000 A 
ATOM     19  H   UNL     1       2.305  10.411  16.811  0.00  0.00    +0.000 HD
ENDBRANCH   6  10
BRANCH   2  20
ATOM     20  C   UNL     1       3.143   4.015  16.818  0.00  0.00    +0.000 C 
BRANCH  20  21
ATOM     21  C   UNL     1       4.552   3.773  16.298  0.00  0.00    +0.000 C 
BRANCH  21  22
ATOM     22  N   UNL     1       5.494   4.730  16.866  0.00  0.00    +0.000 N 
ATOM     23  C   UNL     1       6.094   4.599  18.090  0.00  0.00    +0.000 C 
ATOM     24  O   UNL     1       5.967   3.724  18.925  0.00  0.00    +0.000 OA
ATOM     25  C   UNL     1       6.942   5.781  18.266  0.00  0.00    +0.000 A 
ATOM     26  C   UNL     1       7.818   6.118  19.280  0.00  0.00    +0.000 A 
ATOM     27  C   UNL     1       8.484   7.346  19.170  0.00  0.00    +0.000 A 
ATOM     28  C   UNL     1       8.255   8.197  18.070  0.00  0.00    +0.000 A 
ATOM     29  C   UNL     1       7.370   7.828  17.051  0.00  0.00    +0.000 A 
ATOM     30  C   UNL     1       6.735   6.606  17.176  0.00  0.00    +0.000 A 
ATOM     31  C   UNL     1       5.793   5.933  16.286  0.00  0.00    +0.000 C 
ATOM     32  O   UNL     1       5.384   6.406  15.240  0.00  0.00    +0.000 OA
ENDBRANCH  21  22
ENDBRANCH  20  21
ENDBRANCH   2  20
TORSDOF 4
ENDMDL
MODEL 2
REMARK VINA RESULT:      -8.1      5.755      8.920
REMARK  Name = 
REMARK  4 active torsions:
REMARK  status: ('A' for Active; 'I' for Inactive)
REMARK    1  A    between atoms: C_2  and  C_3
REMARK    2  A    between atoms: C_3  and  C_4
REMARK    3  A    between atoms: C_4  and  N_5
REMARK    4  A    between atoms: C_19  and  C_20
REMARK                            x       y       z     vdW  Elec       q    Type
REMARK                         _______ _______ _______ _____ _____    ______ ____
ROOT
ATOM      1  O   UNL     1      -1.006  13.424  23.792  0.00  0.00    +0.000 OA
ATOM      2  C   UNL     1      -1.750  13.320  22.816  0.00  0.00    +0.000 C 
ATOM      3  N   UNL     1      -3.108  13.312  23.007  0.00  0.00    +0.000 N 
ATOM      4  C   UNL     1      -4.025  13.172  22.007  0.00  0.00    +0.000 A 
ATOM      5  N   UNL     1      -3.835  12.680  20.811  0.00  0.00    +0.000 NA
ATOM      6  C   UNL     1      -4.996  12.774  20.078  0.00  0.00    +0.000 A 
ATOM      7  C   UNL     1      -6.039  13.412  20.719  0.00  0.00    +0.000 A 
ATOM      8  S   UNL     1      -5.596  13.733  22.352  0.00  0.00    +0.000 S 
ATOM      9  H   UNL     1      -3.440  13.501  23.942  0.00  0.00    +0.000 HD
ENDROOT
BRANCH   6  10
ATOM     10  C   UNL     1      -5.015  12.212  18.729  0.00  0.00    +0.000 A 
ATOM     11  C   UNL     1      -6.063  12.227  17.835  0.00  0.00    +0.000 A 
ATOM     12  N   UNL     1      -5.649  11.582  16.698  0.00  0.00    +0.000 N 
ATOM     13  C   UNL     1      -4.369  11.102  16.858  0.00  0.00    +0.000 A 
ATOM     14  C   UNL     1      -3.571  10.351  15.983  0.00  0.00    +0.000 A 
ATOM     15  C   UNL     1      -2.298   9.975  16.424  0.00  0.00    +0.000 A 
ATOM     16  C   UNL     1      -1.835  10.351  17.681  0.00  0.00    +0.000 A 
ATOM     17  C   UNL     1      -2.638  11.114  18.536  0.00  0.00    +0.000 A 
ATOM     18  C   UNL     1      -3.935  11.495  18.126  0.00  0.00    +0.000 A 
ATOM     19  H   UNL     1      -6.206  11.453  15.865  0.00  0.00    +0.000 HD
ENDBRANCH   6  10
BRANCH   2  20
ATOM     20  C   UNL     1      -1.218  13.279  21.392  0.00  0.00    +0.000 C 
BRANCH  20  21
ATOM     21  C   UNL     1       0.299  13.186  21.320  0.00  0.00    +0.000 C 
BRANCH  21  22
ATOM     22  N   UNL     1       0.721  11.957  20.659  0.00  0.00    +0.000 N 
ATOM     23  C   UNL     1       1.010  11.851  19.325  0.00  0.00    +0.000 C 
ATOM     24  O   UNL     1       0.964  12.696  18.453  0.00  0.00    +0.000 OA
ATOM     25  C   UNL     1       1.371  10.450  19.088  0.00  0.00    +0.000 A 
ATOM     26  C   UNL     1       1.818   9.816  17.945  0.00  0.00    +0.000 A 
ATOM     27  C   UNL     1       2.068   8.441  18.031  0.00  0.00    +0.000 A 
ATOM     28  C   UNL     1       1.861   7.742  19.238  0.00  0.00    +0.000 A 
ATOM     29  C   UNL     1       1.417   8.409  20.384  0.00  0.00    +0.000 A 
ATOM     30  C   UNL     1       1.190   9.768  20.277  0.00  0.00    +0.000 A 
ATOM     31  C   UNL     1       0.759  10.738  21.280  0.00  0.00    +0.000 C 
ATOM     32  O   UNL     1       0.492  10.454  22.436  0.00  0.00    +0.000 OA
ENDBRANCH  21  22
ENDBRANCH  20  21
ENDBRANCH   2  20
TORSDOF 4
ENDMDL
MODEL 3
REMARK VINA RESULT:      -8.0      0.101      1.599
REMARK  Name = 
REMARK  4 active torsions:
REMARK  status: ('A' for Active; 'I' for Inactive)
REMARK    1  A    between atoms: C_2  and  C_3
REMARK    2  A    between atoms: C_3  and  C_4
REMARK    3  A    between atoms: C_4  and  N_5
REMARK    4  A    between atoms: C_19  and  C_20
REMARK                            x       y       z     vdW  Elec       q    Type
REMARK                         _______ _______ _______ _____ _____    ______ ____
ROOT
ATOM      1  O   UNL     1       2.770   1.757  17.448  0.00  0.00    +0.000 OA
ATOM      2  C   UNL     1       2.724   2.948  17.756  0.00  0.00    +0.000 C 
ATOM      3  N   UNL     1       2.301   3.298  19.013  0.00  0.00    +0.000 N 
ATOM      4  C   UNL     1       2.180   4.583  19.454  0.00  0.00    +0.000 A 
ATOM      5  N   UNL     1       2.083   5.669  18.735  0.00  0.00    +0.000 NA
ATOM      6  C   UNL     1       2.045   6.772  19.557  0.00  0.00    +0.000 A 
ATOM      7  C   UNL     1       2.190   6.500  20.903  0.00  0.00    +0.000 A 
ATOM      8  S   UNL     1       2.188   4.794  21.144  0.00  0.00    +0.000 S 
ATOM      9  H   UNL     1       2.146   2.547  19.670  0.00  0.00    +0.000 HD
ENDROOT
BRANCH   6  10
ATOM     10  C   UNL     1       1.866   8.089  18.949  0.00  0.00    +0.000 A 
ATOM     11  C   UNL     1       2.409   8.541  17.767  0.00  0.00    +0.000 A 
ATOM     12  N   UNL     1       1.988   9.833  17.583  0.00  0.00    +0.000 N 
ATOM     13  C   UNL     1       1.225  10.246  18.651  0.00  0.00    +0.000 A 
ATOM     14  C   UNL     1       0.630  11.489  18.909  0.00  0.00    +0.000 A 
ATOM     15  C   UNL     1      -0.081  11.635  20.104  0.00  0.00    +0.000 A 
ATOM     16  C   UNL     1      -0.207  10.575  20.997  0.00  0.00    +0.000 A 
ATOM     17  C   UNL     1       0.379   9.336  20.717  0.00  0.00    +0.000 A 
ATOM     18  C   UNL     1       1.117   9.162  19.525  0.00  0.00    +0.000 A 
ATOM     19  H   UNL     1       2.220  10.415  16.790  0.00  0.00    +0.000 HD
ENDBRANCH   6  10
BRANCH   2  20
ATOM     20  C   UNL     1       3.195   4.047  16.818  0.00  0.00    +0.000 C 
BRANCH  20  21
ATOM     21  C   UNL     1       4.619   3.843  16.322  0.00  0.00    +0.000 C 
BRANCH  21  22
ATOM     22  N   UNL     1       5.520   4.845  16.878  0.00  0.00    +0.000 N 
ATOM     23  C   UNL     1       5.861   6.016  16.256  0.00  0.00    +0.000 C 
ATOM     24  O   UNL     1       5.525   6.441  15.168  0.00  0.00    +0.000 OA
ATOM     25  C   UNL     1       6.791   6.708  17.153  0.00  0.00    +0.000 A 
ATOM     26  C   UNL     1       7.381   7.953  17.052  0.00  0.00    +0.000 A 
ATOM     27  C   UNL     1       8.253   8.334  18.080  0.00  0.00    +0.000 A 
ATOM     28  C   UNL     1       8.515   7.471  19.164  0.00  0.00    +0.000 A 
ATOM     29  C   UNL     1       7.897   6.219  19.247  0.00  0.00    +0.000 A 
ATOM     30  C   UNL     1       7.031   5.871  18.227  0.00  0.00    +0.000 A 
ATOM     31  C   UNL     1       6.223   4.669  18.039  0.00  0.00    +0.000 C 
ATOM     32  O   UNL     1       6.221   3.720  18.804  0.00  0.00    +0.000 OA
ENDBRANCH  21  22
ENDBRANCH  20  21
ENDBRANCH   2  20
TORSDOF 4
ENDMDL
MODEL 4
REMARK VINA RESULT:      -8.0      2.733      7.654
REMARK  Name = 
REMARK  4 active torsions:
REMARK  status: ('A' for Active; 'I' for Inactive)
REMARK    1  A    between atoms: C_2  and  C_3
REMARK    2  A    between atoms: C_3  and  C_4
REMARK    3  A    between atoms: C_4  and  N_5
REMARK    4  A    between atoms: C_19  and  C_20
REMARK                            x       y       z     vdW  Elec       q    Type
REMARK                         _______ _______ _______ _____ _____    ______ ____
ROOT
ATOM      1  O   UNL     1       1.025   5.264  20.613  0.00  0.00    +0.000 OA
ATOM      2  C   UNL     1       1.836   5.080  19.705  0.00  0.00    +0.000 C 
ATOM      3  N   UNL     1       2.353   3.823  19.514  0.00  0.00    +0.000 N 
ATOM      4  C   UNL     1       3.279   3.508  18.563  0.00  0.00    +0.000 A 
ATOM      5  N   UNL     1       4.084   4.321  17.932  0.00  0.00    +0.000 NA
ATOM      6  C   UNL     1       4.818   3.621  17.001  0.00  0.00    +0.000 A 
ATOM      7  C   UNL     1       4.496   2.283  16.893  0.00  0.00    +0.000 A 
ATOM      8  S   UNL     1       3.369   1.864  18.127  0.00  0.00    +0.000 S 
ATOM      9  H   UNL     1       1.959   3.077  20.069  0.00  0.00    +0.000 HD
ENDROOT
BRANCH   6  10
ATOM     10  C   UNL     1       5.835   4.338  16.234  0.00  0.00    +0.000 A 
ATOM     11  C   UNL     1       6.682   5.323  16.689  0.00  0.00    +0.000 A 
ATOM     12  N   UNL     1       7.462   5.722  15.635  0.00  0.00    +0.000 N 
ATOM     13  C   UNL     1       7.100   5.050  14.489  0.00  0.00    +0.000 A 
ATOM     14  C   UNL     1       7.590   5.168  13.181  0.00  0.00    +0.000 A 
ATOM     15  C   UNL     1       7.011   4.363  12.195  0.00  0.00    +0.000 A 
ATOM     16  C   UNL     1       5.997   3.464  12.508  0.00  0.00    +0.000 A 
ATOM     17  C   UNL     1       5.530   3.347  13.821  0.00  0.00    +0.000 A 
ATOM     18  C   UNL     1       6.083   4.158  14.838  0.00  0.00    +0.000 A 
ATOM     19  H   UNL     1       8.186   6.425  15.679  0.00  0.00    +0.000 HD
ENDBRANCH   6  10
BRANCH   2  20
ATOM     20  C   UNL     1       2.228   6.180  18.732  0.00  0.00    +0.000 C 
BRANCH  20  21
ATOM     21  C   UNL     1       2.797   7.413  19.418  0.00  0.00    +0.000 C 
BRANCH  21  22
ATOM     22  N   UNL     1       1.798   8.469  19.518  0.00  0.00    +0.000 N 
ATOM     23  C   UNL     1       1.455   9.315  18.496  0.00  0.00    +0.000 C 
ATOM     24  O   UNL     1       1.892   9.379  17.364  0.00  0.00    +0.000 OA
ATOM     25  C   UNL     1       0.436  10.221  19.032  0.00  0.00    +0.000 A 
ATOM     26  C   UNL     1      -0.302  11.213  18.415  0.00  0.00    +0.000 A 
ATOM     27  C   UNL     1      -1.203  11.931  19.210  0.00  0.00    +0.000 A 
ATOM     28  C   UNL     1      -1.338  11.649  20.586  0.00  0.00    +0.000 A 
ATOM     29  C   UNL     1      -0.587  10.633  21.185  0.00  0.00    +0.000 A 
ATOM     30  C   UNL     1       0.286   9.931  20.375  0.00  0.00    +0.000 A 
ATOM     31  C   UNL     1       1.174   8.813  20.686  0.00  0.00    +0.000 C 
ATOM     32  O   UNL     1       1.297   8.326  21.797  0.00  0.00    +0.000 OA
ENDBRANCH  21  22
ENDBRANCH  20  21
ENDBRANCH   2  20
TORSDOF 4
ENDMDL
MODEL 5
REMARK VINA RESULT:      -7.9      2.721      7.468
REMARK  Name = 
REMARK  4 active torsions:
REMARK  status: ('A' for Active; 'I' for Inactive)
REMARK    1  A    between atoms: C_2  and  C_3
REMARK    2  A    between atoms: C_3  and  C_4
REMARK    3  A    between atoms: C_4  and  N_5
REMARK    4  A    between atoms: C_19  and  C_20
REMARK                            x       y       z     vdW  Elec       q    Type
REMARK                         _______ _______ _______ _____ _____    ______ ____
ROOT
ATOM      1  O   UNL     1       1.035   5.158  20.602  0.00  0.00    +0.000 OA
ATOM      2  C   UNL     1       1.848   4.990  19.693  0.00  0.00    +0.000 C 
ATOM      3  N   UNL     1       2.388   3.744  19.499  0.00  0.00    +0.000 N 
ATOM      4  C   UNL     1       3.317   3.448  18.545  0.00  0.00    +0.000 A 
ATOM      5  N   UNL     1       4.107   4.276  17.916  0.00  0.00    +0.000 NA
ATOM      6  C   UNL     1       4.853   3.591  16.983  0.00  0.00    +0.000 A 
ATOM      7  C   UNL     1       4.554   2.248  16.872  0.00  0.00    +0.000 A 
ATOM      8  S   UNL     1       3.437   1.807  18.106  0.00  0.00    +0.000 S 
ATOM      9  H   UNL     1       2.008   2.989  20.052  0.00  0.00    +0.000 HD
ENDROOT
BRANCH   6  10
ATOM     10  C   UNL     1       5.855   4.328  16.215  0.00  0.00    +0.000 A 
ATOM     11  C   UNL     1       6.683   5.329  16.671  0.00  0.00    +0.000 A 
ATOM     12  N   UNL     1       7.455   5.743  15.617  0.00  0.00    +0.000 N 
ATOM     13  C   UNL     1       7.106   5.066  14.471  0.00  0.00    +0.000 A 
ATOM     14  C   UNL     1       7.593   5.194  13.163  0.00  0.00    +0.000 A 
ATOM     15  C   UNL     1       7.030   4.379  12.176  0.00  0.00    +0.000 A 
ATOM     16  C   UNL     1       6.033   3.460  12.488  0.00  0.00    +0.000 A 
ATOM     17  C   UNL     1       5.569   3.333  13.802  0.00  0.00    +0.000 A 
ATOM     18  C   UNL     1       6.106   4.154  14.819  0.00  0.00    +0.000 A 
ATOM     19  H   UNL     1       8.166   6.460  15.661  0.00  0.00    +0.000 HD
ENDBRANCH   6  10
BRANCH   2  20
ATOM     20  C   UNL     1       2.218   6.100  18.721  0.00  0.00    +0.000 C 
BRANCH  20  21
ATOM     21  C   UNL     1       2.846   7.307  19.400  0.00  0.00    +0.000 C 
BRANCH  21  22
ATOM     22  N   UNL     1       1.887   8.397  19.530  0.00  0.00    +0.000 N 
ATOM     23  C   UNL     1       1.192   8.690  20.673  0.00  0.00    +0.000 C 
ATOM     24  O   UNL     1       1.207   8.132  21.753  0.00  0.00    +0.000 OA
ATOM     25  C   UNL     1       0.337   9.838  20.357  0.00  0.00    +0.000 A 
ATOM     26  C   UNL     1      -0.507  10.580  21.160  0.00  0.00    +0.000 A 
ATOM     27  C   UNL     1      -1.215  11.625  20.553  0.00  0.00    +0.000 A 
ATOM     28  C   UNL     1      -1.069  11.894  19.176  0.00  0.00    +0.000 A 
ATOM     29  C   UNL     1      -0.200  11.134  18.387  0.00  0.00    +0.000 A 
ATOM     30  C   UNL     1       0.497  10.116  19.013  0.00  0.00    +0.000 A 
ATOM     31  C   UNL     1       1.484   9.179  18.482  0.00  0.00    +0.000 C 
ATOM     32  O   UNL     1       1.836   9.144  17.316  0.00  0.00    +0.000 OA
ENDBRANCH  21  22
ENDBRANCH  20  21
ENDBRANCH   2  20
TORSDOF 4
ENDMDL
MODEL 6
REMARK VINA RESULT:      -7.8      4.946      7.569
REMARK  Name = 
REMARK  4 active torsions:
REMARK  status: ('A' for Active; 'I' for Inactive)
REMARK    1  A    between atoms: C_2  and  C_3
REMARK    2  A    between atoms: C_3  and  C_4
REMARK    3  A    between atoms: C_4  and  N_5
REMARK    4  A    between atoms: C_19  and  C_20
REMARK                            x       y       z     vdW  Elec       q    Type
REMARK                         _______ _______ _______ _____ _____    ______ ____
ROOT
ATOM      1  O   UNL     1      -0.234  10.647  23.459  0.00  0.00    +0.000 OA
ATOM      2  C   UNL     1      -0.945  11.039  22.533  0.00  0.00    +0.000 C 
ATOM      3  N   UNL     1      -1.947  11.939  22.794  0.00  0.00    +0.000 N 
ATOM      4  C   UNL     1      -2.813  12.420  21.856  0.00  0.00    +0.000 A 
ATOM      5  N   UNL     1      -3.102  11.898  20.693  0.00  0.00    +0.000 NA
ATOM      6  C   UNL     1      -3.972  12.722  20.016  0.00  0.00    +0.000 A 
ATOM      7  C   UNL     1      -4.272  13.906  20.659  0.00  0.00    +0.000 A 
ATOM      8  S   UNL     1      -3.584  13.890  22.238  0.00  0.00    +0.000 S 
ATOM      9  H   UNL     1      -1.987  12.322  23.728  0.00  0.00    +0.000 HD
ENDROOT
BRANCH   6  10
ATOM     10  C   UNL     1      -4.476  12.283  18.716  0.00  0.00    +0.000 A 
ATOM     11  C   UNL     1      -5.733  12.498  18.195  0.00  0.00    +0.000 A 
ATOM     12  N   UNL     1      -5.777  11.908  16.958  0.00  0.00    +0.000 N 
ATOM     13  C   UNL     1      -4.588  11.268  16.689  0.00  0.00    +0.000 A 
ATOM     14  C   UNL     1      -4.205  10.506  15.577  0.00  0.00    +0.000 A 
ATOM     15  C   UNL     1      -2.923   9.946  15.582  0.00  0.00    +0.000 A 
ATOM     16  C   UNL     1      -2.054  10.156  16.648  0.00  0.00    +0.000 A 
ATOM     17  C   UNL     1      -2.446  10.933  17.743  0.00  0.00    +0.000 A 
ATOM     18  C   UNL     1      -3.740  11.498  17.775  0.00  0.00    +0.000 A 
ATOM     19  H   UNL     1      -6.573  11.917  16.335  0.00  0.00    +0.000 HD
ENDBRANCH   6  10
BRANCH   2  20
ATOM     20  C   UNL     1      -0.702  10.623  21.091  0.00  0.00    +0.000 C 
BRANCH  20  21
ATOM     21  C   UNL     1       0.752  10.757  20.665  0.00  0.00    +0.000 C 
BRANCH  21  22
ATOM     22  N   UNL     1       1.264   9.499  20.136  0.00  0.00    +0.000 N 
ATOM     23  C   UNL     1       1.375   8.339  20.856  0.00  0.00    +0.000 C 
ATOM     24  O   UNL     1       1.105   8.123  22.022  0.00  0.00    +0.000 OA
ATOM     25  C   UNL     1       1.946   7.339  19.949  0.00  0.00    +0.000 A 
ATOM     26  C   UNL     1       2.196   5.993  20.135  0.00  0.00    +0.000 A 
ATOM     27  C   UNL     1       2.773   5.295  19.067  0.00  0.00    +0.000 A 
ATOM     28  C   UNL     1       3.087   5.951  17.859  0.00  0.00    +0.000 A 
ATOM     29  C   UNL     1       2.815   7.313  17.693  0.00  0.00    +0.000 A 
ATOM     30  C   UNL     1       2.234   7.977  18.757  0.00  0.00    +0.000 A 
ATOM     31  C   UNL     1       1.807   9.368  18.887  0.00  0.00    +0.000 C 
ATOM     32  O   UNL     1       1.941  10.208  18.014  0.00  0.00    +0.000 OA
ENDBRANCH  21  22
ENDBRANCH  20  21
ENDBRANCH   2  20
TORSDOF 4
ENDMDL
MODEL 7
REMARK VINA RESULT:      -7.7      7.710     11.796
REMARK  Name = 
REMARK  4 active torsions:
REMARK  status: ('A' for Active; 'I' for Inactive)
REMARK    1  A    between atoms: C_2  and  C_3
REMARK    2  A    between atoms: C_3  and  C_4
REMARK    3  A    between atoms: C_4  and  N_5
REMARK    4  A    between atoms: C_19  and  C_20
REMARK                            x       y       z     vdW  Elec       q    Type
REMARK                         _______ _______ _______ _____ _____    ______ ____
ROOT
ATOM      1  O   UNL     1       0.906  13.790  22.142  0.00  0.00    +0.000 OA
ATOM      2  C   UNL     1       0.060  13.249  21.429  0.00  0.00    +0.000 C 
ATOM      3  N   UNL     1       0.470  12.424  20.412  0.00  0.00    +0.000 N 
ATOM      4  C   UNL     1      -0.373  11.797  19.542  0.00  0.00    +0.000 A 
ATOM      5  N   UNL     1      -1.611  12.107  19.266  0.00  0.00    +0.000 NA
ATOM      6  C   UNL     1      -2.138  11.189  18.386  0.00  0.00    +0.000 A 
ATOM      7  C   UNL     1      -1.296  10.143  18.065  0.00  0.00    +0.000 A 
ATOM      8  S   UNL     1       0.259  10.430  18.748  0.00  0.00    +0.000 S 
ATOM      9  H   UNL     1       1.457  12.214  20.363  0.00  0.00    +0.000 HD
ENDROOT
BRANCH   6  10
ATOM     10  C   UNL     1      -3.498  11.397  17.893  0.00  0.00    +0.000 A 
ATOM     11  C   UNL     1      -3.960  11.191  16.612  0.00  0.00    +0.000 A 
ATOM     12  N   UNL     1      -5.291  11.519  16.593  0.00  0.00    +0.000 N 
ATOM     13  C   UNL     1      -5.689  11.985  17.826  0.00  0.00    +0.000 A 
ATOM     14  C   UNL     1      -6.935  12.468  18.248  0.00  0.00    +0.000 A 
ATOM     15  C   UNL     1      -7.049  12.903  19.573  0.00  0.00    +0.000 A 
ATOM     16  C   UNL     1      -5.966  12.839  20.443  0.00  0.00    +0.000 A 
ATOM     17  C   UNL     1      -4.733  12.338  20.010  0.00  0.00    +0.000 A 
ATOM     18  C   UNL     1      -4.581  11.907  18.673  0.00  0.00    +0.000 A 
ATOM     19  H   UNL     1      -5.896  11.453  15.786  0.00  0.00    +0.000 HD
ENDBRANCH   6  10
BRANCH   2  20
ATOM     20  C   UNL     1      -1.431  13.399  21.684  0.00  0.00    +0.000 C 
BRANCH  20  21
ATOM     21  C   UNL     1      -1.754  13.883  23.089  0.00  0.00    +0.000 C 
BRANCH  21  22
ATOM     22  N   UNL     1      -3.194  13.951  23.305  0.00  0.00    +0.000 N 
ATOM     23  C   UNL     1      -3.937  15.100  23.240  0.00  0.00    +0.000 C 
ATOM     24  O   UNL     1      -3.581  16.241  23.020  0.00  0.00    +0.000 OA
ATOM     25  C   UNL     1      -5.321  14.717  23.535  0.00  0.00    +0.000 A 
ATOM     26  C   UNL     1      -6.483  15.465  23.531  0.00  0.00    +0.000 A 
ATOM     27  C   UNL     1      -7.669  14.808  23.879  0.00  0.00    +0.000 A 
ATOM     28  C   UNL     1      -7.664  13.441  24.226  0.00  0.00    +0.000 A 
ATOM     29  C   UNL     1      -6.476  12.703  24.214  0.00  0.00    +0.000 A 
ATOM     30  C   UNL     1      -5.320  13.372  23.853  0.00  0.00    +0.000 A 
ATOM     31  C   UNL     1      -3.949  12.887  23.718  0.00  0.00    +0.000 C 
ATOM     32  O   UNL     1      -3.603  11.741  23.948  0.00  0.00    +0.000 OA
ENDBRANCH  21  22
ENDBRANCH  20  21
ENDBRANCH   2  20
TORSDOF 4
ENDMDL
MODEL 8
REMARK VINA RESULT:      -7.7      3.624      8.199
REMARK  Name = 
REMARK  4 active torsions:
REMARK  status: ('A' for Active; 'I' for Inactive)
REMARK    1  A    between atoms: C_2  and  C_3
REMARK    2  A    between atoms: C_3  and  C_4
REMARK    3  A    between atoms: C_4  and  N_5
REMARK    4  A    between atoms: C_19  and  C_20
REMARK                            x       y       z     vdW  Elec       q    Type
REMARK                         _______ _______ _______ _____ _____    ______ ____
ROOT
ATOM      1  O   UNL     1       0.457   9.025  22.364  0.00  0.00    +0.000 OA
ATOM      2  C   UNL     1       1.003   8.479  21.405  0.00  0.00    +0.000 C 
ATOM      3  N   UNL     1       1.250   7.131  21.454  0.00  0.00    +0.000 N 
ATOM      4  C   UNL     1       1.875   6.426  20.467  0.00  0.00    +0.000 A 
ATOM      5  N   UNL     1       2.642   6.890  19.517  0.00  0.00    +0.000 NA
ATOM      6  C   UNL     1       3.023   5.865  18.682  0.00  0.00    +0.000 A 
ATOM      7  C   UNL     1       2.469   4.636  18.980  0.00  0.00    +0.000 A 
ATOM      8  S   UNL     1       1.593   4.746  20.459  0.00  0.00    +0.000 S 
ATOM      9  H   UNL     1       0.873   6.624  22.242  0.00  0.00    +0.000 HD
ENDROOT
BRANCH   6  10
ATOM     10  C   UNL     1       3.946   6.163  17.589  0.00  0.00    +0.000 A 
ATOM     11  C   UNL     1       4.277   7.405  17.093  0.00  0.00    +0.000 A 
ATOM     12  N   UNL     1       5.167   7.220  16.067  0.00  0.00    +0.000 N 
ATOM     13  C   UNL     1       5.381   5.877  15.853  0.00  0.00    +0.000 A 
ATOM     14  C   UNL     1       6.169   5.230  14.891  0.00  0.00    +0.000 A 
ATOM     15  C   UNL     1       6.181   3.832  14.892  0.00  0.00    +0.000 A 
ATOM     16  C   UNL     1       5.449   3.110  15.829  0.00  0.00    +0.000 A 
ATOM     17  C   UNL     1       4.680   3.771  16.793  0.00  0.00    +0.000 A 
ATOM     18  C   UNL     1       4.633   5.183  16.808  0.00  0.00    +0.000 A 
ATOM     19  H   UNL     1       5.594   7.958  15.525  0.00  0.00    +0.000 HD
ENDBRANCH   6  10
BRANCH   2  20
ATOM     20  C   UNL     1       1.343   9.232  20.129  0.00  0.00    +0.000 C 
BRANCH  20  21
ATOM     21  C   UNL     1       0.796  10.652  20.105  0.00  0.00    +0.000 C 
BRANCH  21  22
ATOM     22  N   UNL     1      -0.382  10.749  19.252  0.00  0.00    +0.000 N 
ATOM     23  C   UNL     1      -1.545  11.382  19.601  0.00  0.00    +0.000 C 
ATOM     24  O   UNL     1      -1.838  11.949  20.635  0.00  0.00    +0.000 OA
ATOM     25  C   UNL     1      -2.460  11.225  18.467  0.00  0.00    +0.000 A 
ATOM     26  C   UNL     1      -3.729  11.728  18.256  0.00  0.00    +0.000 A 
ATOM     27  C   UNL     1      -4.366  11.382  17.058  0.00  0.00    +0.000 A 
ATOM     28  C   UNL     1      -3.730  10.547  16.116  0.00  0.00    +0.000 A 
ATOM     29  C   UNL     1      -2.441  10.058  16.348  0.00  0.00    +0.000 A 
ATOM     30  C   UNL     1      -1.829  10.425  17.532  0.00  0.00    +0.000 A 
ATOM     31  C   UNL     1      -0.499  10.110  18.048  0.00  0.00    +0.000 C 
ATOM     32  O   UNL     1       0.308   9.401  17.471  0.00  0.00    +0.000 OA
ENDBRANCH  21  22
ENDBRANCH  20  21
ENDBRANCH   2  20
TORSDOF 4
ENDMDL
MODEL 9
REMARK VINA RESULT:      -7.6      2.928      7.755
REMARK  Name = 
REMARK  4 active torsions:
REMARK  status: ('A' for Active; 'I' for Inactive)
REMARK    1  A    between atoms: C_2  and  C_3
REMARK    2  A    between atoms: C_3  and  C_4
REMARK    3  A    between atoms: C_4  and  N_5
REMARK    4  A    between atoms: C_19  and  C_20
REMARK                            x       y       z     vdW  Elec       q    Type
REMARK                         _______ _______ _______ _____ _____    ______ ____
ROOT
ATOM      1  O   UNL     1       1.022   8.279  20.885  0.00  0.00    +0.000 OA
ATOM      2  C   UNL     1       1.807   7.708  20.127  0.00  0.00    +0.000 C 
ATOM      3  N   UNL     1       2.175   6.414  20.396  0.00  0.00    +0.000 N 
ATOM      4  C   UNL     1       3.058   5.694  19.647  0.00  0.00    +0.000 A 
ATOM      5  N   UNL     1       3.953   6.148  18.811  0.00  0.00    +0.000 NA
ATOM      6  C   UNL     1       4.601   5.096  18.204  0.00  0.00    +0.000 A 
ATOM      7  C   UNL     1       4.125   3.845  18.545  0.00  0.00    +0.000 A 
ATOM      8  S   UNL     1       2.957   4.000  19.801  0.00  0.00    +0.000 S 
ATOM      9  H   UNL     1       1.696   5.951  21.155  0.00  0.00    +0.000 HD
ENDROOT
BRANCH   6  10
ATOM     10  C   UNL     1       5.694   5.391  17.280  0.00  0.00    +0.000 A 
ATOM     11  C   UNL     1       6.749   6.252  17.486  0.00  0.00    +0.000 A 
ATOM     12  N   UNL     1       7.530   6.230  16.359  0.00  0.00    +0.000 N 
ATOM     13  C   UNL     1       6.971   5.410  15.404  0.00  0.00    +0.000 A 
ATOM     14  C   UNL     1       7.396   5.125  14.099  0.00  0.00    +0.000 A 
ATOM     15  C   UNL     1       6.609   4.260  13.332  0.00  0.00    +0.000 A 
ATOM     16  C   UNL     1       5.454   3.689  13.856  0.00  0.00    +0.000 A 
ATOM     17  C   UNL     1       5.052   3.971  15.167  0.00  0.00    +0.000 A 
ATOM     18  C   UNL     1       5.817   4.854  15.961  0.00  0.00    +0.000 A 
ATOM     19  H   UNL     1       8.383   6.755  16.230  0.00  0.00    +0.000 HD
ENDBRANCH   6  10
BRANCH   2  20
ATOM     20  C   UNL     1       2.324   8.359  18.854  0.00  0.00    +0.000 C 
BRANCH  20  21
ATOM     21  C   UNL     1       1.218   8.935  17.982  0.00  0.00    +0.000 C 
BRANCH  21  22
ATOM     22  N   UNL     1       0.850  10.277  18.416  0.00  0.00    +0.000 N 
ATOM     23  C   UNL     1      -0.387  10.632  18.885  0.00  0.00    +0.000 C 
ATOM     24  O   UNL     1      -1.388   9.955  19.017  0.00  0.00    +0.000 OA
ATOM     25  C   UNL     1      -0.321  12.064  19.188  0.00  0.00    +0.000 A 
ATOM     26  C   UNL     1      -1.257  12.909  19.752  0.00  0.00    +0.000 A 
ATOM     27  C   UNL     1      -0.900  14.255  19.900  0.00  0.00    +0.000 A 
ATOM     28  C   UNL     1       0.365  14.718  19.480  0.00  0.00    +0.000 A 
ATOM     29  C   UNL     1       1.299  13.840  18.921  0.00  0.00    +0.000 A 
ATOM     30  C   UNL     1       0.926  12.514  18.797  0.00  0.00    +0.000 A 
ATOM     31  C   UNL     1       1.670  11.365  18.289  0.00  0.00    +0.000 C 
ATOM     32  O   UNL     1       2.803  11.427  17.843  0.00  0.00    +0.000 OA
ENDBRANCH  21  22
ENDBRANCH  20  21
ENDBRANCH   2  20
TORSDOF 4
ENDMDL
