MODEL 1
REMARK VINA RESULT:      -9.3      0.000      0.000
REMARK  Name = 
REMARK  9 active torsions:
REMARK  status: ('A' for Active; 'I' for Inactive)
REMARK    1  A    between atoms: C_1  and  C_2
REMARK    2  A    between atoms: C_5  and  C_6
REMARK    3  A    between atoms: C_12  and  C_13
REMARK    4  A    between atoms: N_15  and  C_16
REMARK    5  A    between atoms: C_19  and  S_20
REMARK    6  A    between atoms: S_20  and  N_23
REMARK    7  A    between atoms: N_23  and  C_24
REMARK    8  A    between atoms: N_23  and  C_25
REMARK    9  A    between atoms: C_25  and  C_26
REMARK                            x       y       z     vdW  Elec       q    Type
REMARK                         _______ _______ _______ _____ _____    ______ ____
ROOT
ATOM      1  C   UNL     1       1.773   7.675  20.446  0.00  0.00    +0.000 A 
ATOM      2  C   UNL     1       1.880   8.477  19.304  0.00  0.00    +0.000 A 
ATOM      3  C   UNL     1       1.345   9.761  19.270  0.00  0.00    +0.000 A 
ATOM      4  C   UNL     1       0.671  10.262  20.381  0.00  0.00    +0.000 A 
ATOM      5  C   UNL     1       0.515   9.471  21.521  0.00  0.00    +0.000 A 
ATOM      6  C   UNL     1       1.051   8.172  21.543  0.00  0.00    +0.000 A 
ENDROOT
BRANCH   1   9
ATOM      7  C   UNL     1       2.501   5.482  19.516  0.00  0.00    +0.000 C 
ATOM      8  O   UNL     1       2.036   5.632  18.391  0.00  0.00    +0.000 OA
ATOM      9  N   UNL     1       2.396   6.406  20.551  0.00  0.00    +0.000 N 
ATOM     10  H   UNL     1       2.941   6.234  21.386  0.00  0.00    +0.000 HD
BRANCH   7  16
ATOM     11  C   UNL     1       1.698   2.754  21.251  0.00  0.00    +0.000 C 
ATOM     12  C   UNL     1       2.900   3.171  20.503  0.00  0.00    +0.000 A 
ATOM     13  O   UNL     1       3.878   2.235  20.403  0.00  0.00    +0.000 OA
ATOM     14  N   UNL     1       4.921   2.726  19.652  0.00  0.00    +0.000 NA
ATOM     15  C   UNL     1       4.582   3.976  19.294  0.00  0.00    +0.000 A 
ATOM     16  C   UNL     1       3.277   4.293  19.800  0.00  0.00    +0.000 A 
BRANCH  15  17
ATOM     17  C   UNL     1       5.509   4.812  18.521  0.00  0.00    +0.000 A 
ATOM     18  C   UNL     1       5.339   4.978  17.138  0.00  0.00    +0.000 A 
ATOM     19  C   UNL     1       6.227   5.767  16.398  0.00  0.00    +0.000 A 
ATOM     20  C   UNL     1       7.296   6.398  17.029  0.00  0.00    +0.000 A 
ATOM     21  C   UNL     1       7.484   6.237  18.398  0.00  0.00    +0.000 A 
ATOM     22  C   UNL     1       6.602   5.442  19.137  0.00  0.00    +0.000 A 
ENDBRANCH  15  17
ENDBRANCH   7  16
ENDBRANCH   1   9
BRANCH   4  23
ATOM     23  S   UNL     1       0.250  11.988  20.376  0.00  0.00    +0.000 S 
ATOM     24  O   UNL     1       0.685  12.547  21.642  0.00  0.00    +0.000 OA
ATOM     25  O   UNL     1       0.743  12.502  19.115  0.00  0.00    +0.000 OA
BRANCH  23  26
ATOM     26  N   UNL     1      -1.454  11.976  20.346  0.00  0.00    +0.000 NA
ATOM     27  C   UNL     1      -2.118  12.326  21.616  0.00  0.00    +0.000 C 
BRANCH  26  28
ATOM     28  C   UNL     1      -2.094  12.587  19.147  0.00  0.00    +0.000 C 
BRANCH  28  29
ATOM     29  C   UNL     1      -2.606  11.618  18.107  0.00  0.00    +0.000 A 
ATOM     30  C   UNL     1      -1.764  10.617  17.599  0.00  0.00    +0.000 A 
ATOM     31  C   UNL     1      -2.177   9.792  16.557  0.00  0.00    +0.000 A 
ATOM     32  C   UNL     1      -3.459   9.925  16.036  0.00  0.00    +0.000 A 
ATOM     33  C   UNL     1      -4.329  10.877  16.564  0.00  0.00    +0.000 A 
ATOM     34  C   UNL     1      -3.905  11.723  17.593  0.00  0.00    +0.000 A 
ENDBRANCH  28  29
ENDBRANCH  26  28
ENDBRANCH  23  26
ENDBRANCH   4  23
TORSDOF 7
ENDMDL
MODEL 2
REMARK VINA RESULT:      -9.2      0.674      1.187
REMARK  Name = 
REMARK  9 active torsions:
REMARK  status: ('A' for Active; 'I' for Inactive)
REMARK    1  A    between atoms: C_1  and  C_2
REMARK    2  A    between atoms: C_5  and  C_6
REMARK    3  A    between atoms: C_12  and  C_13
REMARK    4  A    between atoms: N_15  and  C_16
REMARK    5  A    between atoms: C_19  and  S_20
REMARK    6  A    between atoms: S_20  and  N_23
REMARK    7  A    between atoms: N_23  and  C_24
REMARK    8  A    between atoms: N_23  and  C_25
REMARK    9  A    between atoms: C_25  and  C_26
REMARK                            x       y       z     vdW  Elec       q    Type
REMARK                         _______ _______ _______ _____ _____    ______ ____
ROOT
ATOM      1  C   UNL     1       1.739   7.819  20.411  0.00  0.00    +0.000 A 
ATOM      2  C   UNL     1       1.852   8.594  19.252  0.00  0.00    +0.000 A 
ATOM      3  C   UNL     1       1.424   9.918  19.223  0.00  0.00    +0.000 A 
ATOM      4  C   UNL     1       0.856  10.489  20.359  0.00  0.00    +0.000 A 
ATOM      5  C   UNL     1       0.696   9.729  21.519  0.00  0.00    +0.000 A 
ATOM      6  C   UNL     1       1.122   8.390  21.536  0.00  0.00    +0.000 A 
ENDROOT
BRANCH   1   9
ATOM      7  C   UNL     1       2.493   5.660  19.424  0.00  0.00    +0.000 C 
ATOM      8  O   UNL     1       2.247   5.933  18.255  0.00  0.00    +0.000 OA
ATOM      9  N   UNL     1       2.259   6.503  20.506  0.00  0.00    +0.000 N 
ATOM     10  H   UNL     1       2.634   6.225  21.404  0.00  0.00    +0.000 HD
BRANCH   7  16
ATOM     11  C   UNL     1       1.377   3.041  21.153  0.00  0.00    +0.000 C 
ATOM     12  C   UNL     1       2.629   3.326  20.428  0.00  0.00    +0.000 A 
ATOM     13  O   UNL     1       3.507   2.292  20.351  0.00  0.00    +0.000 OA
ATOM     14  N   UNL     1       4.609   2.668  19.619  0.00  0.00    +0.000 NA
ATOM     15  C   UNL     1       4.409   3.944  19.249  0.00  0.00    +0.000 A 
ATOM     16  C   UNL     1       3.135   4.399  19.728  0.00  0.00    +0.000 A 
BRANCH  15  17
ATOM     17  C   UNL     1       5.434   4.675  18.491  0.00  0.00    +0.000 A 
ATOM     18  C   UNL     1       6.369   5.486  19.152  0.00  0.00    +0.000 A 
ATOM     19  C   UNL     1       7.339   6.191  18.430  0.00  0.00    +0.000 A 
ATOM     20  C   UNL     1       7.387   6.095  17.041  0.00  0.00    +0.000 A 
ATOM     21  C   UNL     1       6.462   5.301  16.371  0.00  0.00    +0.000 A 
ATOM     22  C   UNL     1       5.486   4.603  17.090  0.00  0.00    +0.000 A 
ENDBRANCH  15  17
ENDBRANCH   7  16
ENDBRANCH   1   9
BRANCH   4  23
ATOM     23  S   UNL     1       0.582  12.244  20.346  0.00  0.00    +0.000 S 
ATOM     24  O   UNL     1       0.317  12.655  21.711  0.00  0.00    +0.000 OA
ATOM     25  O   UNL     1       1.685  12.802  19.591  0.00  0.00    +0.000 OA
BRANCH  23  26
ATOM     26  N   UNL     1      -0.853  12.410  19.441  0.00  0.00    +0.000 NA
ATOM     27  C   UNL     1      -0.701  13.020  18.107  0.00  0.00    +0.000 C 
BRANCH  26  28
ATOM     28  C   UNL     1      -1.783  11.247  19.465  0.00  0.00    +0.000 C 
BRANCH  28  29
ATOM     29  C   UNL     1      -2.519  10.963  18.176  0.00  0.00    +0.000 A 
ATOM     30  C   UNL     1      -1.939  10.140  17.199  0.00  0.00    +0.000 A 
ATOM     31  C   UNL     1      -2.544   9.962  15.958  0.00  0.00    +0.000 A 
ATOM     32  C   UNL     1      -3.765  10.571  15.690  0.00  0.00    +0.000 A 
ATOM     33  C   UNL     1      -4.383  11.349  16.669  0.00  0.00    +0.000 A 
ATOM     34  C   UNL     1      -3.762  11.548  17.905  0.00  0.00    +0.000 A 
ENDBRANCH  28  29
ENDBRANCH  26  28
ENDBRANCH  23  26
ENDBRANCH   4  23
TORSDOF 7
ENDMDL
MODEL 3
REMARK VINA RESULT:      -9.1      2.265      3.119
REMARK  Name = 
REMARK  9 active torsions:
REMARK  status: ('A' for Active; 'I' for Inactive)
REMARK    1  A    between atoms: C_1  and  C_2
REMARK    2  A    between atoms: C_5  and  C_6
REMARK    3  A    between atoms: C_12  and  C_13
REMARK    4  A    between atoms: N_15  and  C_16
REMARK    5  A    between atoms: C_19  and  S_20
REMARK    6  A    between atoms: S_20  and  N_23
REMARK    7  A    between atoms: N_23  and  C_24
REMARK    8  A    between atoms: N_23  and  C_25
REMARK    9  A    between atoms: C_25  and  C_26
REMARK                            x       y       z     vdW  Elec       q    Type
REMARK                         _______ _______ _______ _____ _____    ______ ____
ROOT
ATOM      1  C   UNL     1       2.037   7.749  19.672  0.00  0.00    +0.000 A 
ATOM      2  C   UNL     1       2.220   8.331  18.413  0.00  0.00    +0.000 A 
ATOM      3  C   UNL     1       1.740   9.607  18.130  0.00  0.00    +0.000 A 
ATOM      4  C   UNL     1       1.048  10.321  19.105  0.00  0.00    +0.000 A 
ATOM      5  C   UNL     1       0.817   9.751  20.358  0.00  0.00    +0.000 A 
ATOM      6  C   UNL     1       1.297   8.458  20.632  0.00  0.00    +0.000 A 
ENDROOT
BRANCH   1   9
ATOM      7  C   UNL     1       2.452   5.322  19.297  0.00  0.00    +0.000 C 
ATOM      8  O   UNL     1       1.783   5.209  18.276  0.00  0.00    +0.000 OA
ATOM      9  N   UNL     1       2.602   6.498  20.026  0.00  0.00    +0.000 N 
ATOM     10  H   UNL     1       3.291   6.503  20.767  0.00  0.00    +0.000 HD
BRANCH   7  16
ATOM     11  C   UNL     1       1.550   2.841  21.329  0.00  0.00    +0.000 C 
ATOM     12  C   UNL     1       2.788   3.158  20.593  0.00  0.00    +0.000 A 
ATOM     13  O   UNL     1       3.765   2.217  20.663  0.00  0.00    +0.000 OA
ATOM     14  N   UNL     1       4.845   2.607  19.906  0.00  0.00    +0.000 NA
ATOM     15  C   UNL     1       4.532   3.800  19.373  0.00  0.00    +0.000 A 
ATOM     16  C   UNL     1       3.206   4.180  19.770  0.00  0.00    +0.000 A 
BRANCH  15  17
ATOM     17  C   UNL     1       5.501   4.529  18.544  0.00  0.00    +0.000 A 
ATOM     18  C   UNL     1       6.461   5.364  19.134  0.00  0.00    +0.000 A 
ATOM     19  C   UNL     1       7.378   6.067  18.345  0.00  0.00    +0.000 A 
ATOM     20  C   UNL     1       7.347   5.946  16.958  0.00  0.00    +0.000 A 
ATOM     21  C   UNL     1       6.395   5.129  16.356  0.00  0.00    +0.000 A 
ATOM     22  C   UNL     1       5.472   4.433  17.144  0.00  0.00    +0.000 A 
ENDBRANCH  15  17
ENDBRANCH   7  16
ENDBRANCH   1   9
BRANCH   4  23
ATOM     23  S   UNL     1       0.701  12.032  18.778  0.00  0.00    +0.000 S 
ATOM     24  O   UNL     1       1.778  12.546  17.954  0.00  0.00    +0.000 OA
ATOM     25  O   UNL     1      -0.675  12.068  18.330  0.00  0.00    +0.000 OA
BRANCH  23  26
ATOM     26  N   UNL     1       0.805  12.754  20.319  0.00  0.00    +0.000 NA
ATOM     27  C   UNL     1       2.147  13.222  20.716  0.00  0.00    +0.000 C 
BRANCH  26  28
ATOM     28  C   UNL     1      -0.289  13.699  20.677  0.00  0.00    +0.000 C 
BRANCH  28  29
ATOM     29  C   UNL     1      -1.362  13.151  21.589  0.00  0.00    +0.000 A 
ATOM     30  C   UNL     1      -2.640  13.730  21.604  0.00  0.00    +0.000 A 
ATOM     31  C   UNL     1      -3.604  13.319  22.520  0.00  0.00    +0.000 A 
ATOM     32  C   UNL     1      -3.320  12.286  23.407  0.00  0.00    +0.000 A 
ATOM     33  C   UNL     1      -2.074  11.661  23.370  0.00  0.00    +0.000 A 
ATOM     34  C   UNL     1      -1.097  12.093  22.468  0.00  0.00    +0.000 A 
ENDBRANCH  28  29
ENDBRANCH  26  28
ENDBRANCH  23  26
ENDBRANCH   4  23
TORSDOF 7
ENDMDL
MODEL 4
REMARK VINA RESULT:      -9.1      2.318      3.024
REMARK  Name = 
REMARK  9 active torsions:
REMARK  status: ('A' for Active; 'I' for Inactive)
REMARK    1  A    between atoms: C_1  and  C_2
REMARK    2  A    between atoms: C_5  and  C_6
REMARK    3  A    between atoms: C_12  and  C_13
REMARK    4  A    between atoms: N_15  and  C_16
REMARK    5  A    between atoms: C_19  and  S_20
REMARK    6  A    between atoms: S_20  and  N_23
REMARK    7  A    between atoms: N_23  and  C_24
REMARK    8  A    between atoms: N_23  and  C_25
REMARK    9  A    between atoms: C_25  and  C_26
REMARK                            x       y       z     vdW  Elec       q    Type
REMARK                         _______ _______ _______ _____ _____    ______ ____
ROOT
ATOM      1  C   UNL     1       2.003   8.008  19.562  0.00  0.00    +0.000 A 
ATOM      2  C   UNL     1       2.164   8.659  18.334  0.00  0.00    +0.000 A 
ATOM      3  C   UNL     1       1.651   9.936  18.121  0.00  0.00    +0.000 A 
ATOM      4  C   UNL     1       0.946  10.580  19.134  0.00  0.00    +0.000 A 
ATOM      5  C   UNL     1       0.737   9.939  20.357  0.00  0.00    +0.000 A 
ATOM      6  C   UNL     1       1.251   8.647  20.561  0.00  0.00    +0.000 A 
ENDROOT
BRANCH   1   9
ATOM      7  C   UNL     1       2.471   5.613  19.064  0.00  0.00    +0.000 C 
ATOM      8  O   UNL     1       1.793   5.534  18.046  0.00  0.00    +0.000 OA
ATOM      9  N   UNL     1       2.602   6.755  19.848  0.00  0.00    +0.000 N 
ATOM     10  H   UNL     1       3.300   6.740  20.581  0.00  0.00    +0.000 HD
BRANCH   7  16
ATOM     11  C   UNL     1       1.526   2.749  20.479  0.00  0.00    +0.000 C 
ATOM     12  C   UNL     1       2.825   3.287  20.033  0.00  0.00    +0.000 A 
ATOM     13  O   UNL     1       3.873   2.428  20.121  0.00  0.00    +0.000 OA
ATOM     14  N   UNL     1       5.013   3.028  19.639  0.00  0.00    +0.000 NA
ATOM     15  C   UNL     1       4.663   4.269  19.258  0.00  0.00    +0.000 A 
ATOM     16  C   UNL     1       3.258   4.468  19.471  0.00  0.00    +0.000 A 
BRANCH  15  17
ATOM     17  C   UNL     1       5.668   5.207  18.741  0.00  0.00    +0.000 A 
ATOM     18  C   UNL     1       5.427   5.937  17.568  0.00  0.00    +0.000 A 
ATOM     19  C   UNL     1       6.388   6.824  17.068  0.00  0.00    +0.000 A 
ATOM     20  C   UNL     1       7.600   6.991  17.734  0.00  0.00    +0.000 A 
ATOM     21  C   UNL     1       7.858   6.268  18.894  0.00  0.00    +0.000 A 
ATOM     22  C   UNL     1       6.902   5.375  19.389  0.00  0.00    +0.000 A 
ENDBRANCH  15  17
ENDBRANCH   7  16
ENDBRANCH   1   9
BRANCH   4  23
ATOM     23  S   UNL     1       0.554  12.296  18.899  0.00  0.00    +0.000 S 
ATOM     24  O   UNL     1       1.532  12.845  17.980  0.00  0.00    +0.000 OA
ATOM     25  O   UNL     1      -0.863  12.331  18.603  0.00  0.00    +0.000 OA
BRANCH  23  26
ATOM     26  N   UNL     1       0.819  12.974  20.441  0.00  0.00    +0.000 NA
ATOM     27  C   UNL     1       2.205  13.389  20.727  0.00  0.00    +0.000 C 
BRANCH  26  28
ATOM     28  C   UNL     1      -0.207  13.942  20.917  0.00  0.00    +0.000 C 
BRANCH  28  29
ATOM     29  C   UNL     1      -1.240  13.392  21.873  0.00  0.00    +0.000 A 
ATOM     30  C   UNL     1      -1.021  12.168  22.522  0.00  0.00    +0.000 A 
ATOM     31  C   UNL     1      -2.009  11.586  23.312  0.00  0.00    +0.000 A 
ATOM     32  C   UNL     1      -3.219  12.244  23.502  0.00  0.00    +0.000 A 
ATOM     33  C   UNL     1      -3.435  13.488  22.909  0.00  0.00    +0.000 A 
ATOM     34  C   UNL     1      -2.452  14.059  22.095  0.00  0.00    +0.000 A 
ENDBRANCH  28  29
ENDBRANCH  26  28
ENDBRANCH  23  26
ENDBRANCH   4  23
TORSDOF 7
ENDMDL
MODEL 5
REMARK VINA RESULT:      -9.0      1.266      1.624
REMARK  Name = 
REMARK  9 active torsions:
REMARK  status: ('A' for Active; 'I' for Inactive)
REMARK    1  A    between atoms: C_1  and  C_2
REMARK    2  A    between atoms: C_5  and  C_6
REMARK    3  A    between atoms: C_12  and  C_13
REMARK    4  A    between atoms: N_15  and  C_16
REMARK    5  A    between atoms: C_19  and  S_20
REMARK    6  A    between atoms: S_20  and  N_23
REMARK    7  A    between atoms: N_23  and  C_24
REMARK    8  A    between atoms: N_23  and  C_25
REMARK    9  A    between atoms: C_25  and  C_26
REMARK                            x       y       z     vdW  Elec       q    Type
REMARK                         _______ _______ _______ _____ _____    ______ ____
ROOT
ATOM      1  C   UNL     1       1.855   7.554  19.178  0.00  0.00    +0.000 A 
ATOM      2  C   UNL     1       1.484   7.976  20.459  0.00  0.00    +0.000 A 
ATOM      3  C   UNL     1       1.192   9.311  20.724  0.00  0.00    +0.000 A 
ATOM      4  C   UNL     1       1.284  10.257  19.707  0.00  0.00    +0.000 A 
ATOM      5  C   UNL     1       1.689   9.872  18.427  0.00  0.00    +0.000 A 
ATOM      6  C   UNL     1       1.991   8.523  18.171  0.00  0.00    +0.000 A 
ENDROOT
BRANCH   1   9
ATOM      7  C   UNL     1       3.197   5.456  19.162  0.00  0.00    +0.000 C 
ATOM      8  O   UNL     1       4.187   5.904  19.729  0.00  0.00    +0.000 OA
ATOM      9  N   UNL     1       2.057   6.189  18.850  0.00  0.00    +0.000 N 
ATOM     10  H   UNL     1       1.251   5.678  18.512  0.00  0.00    +0.000 HD
BRANCH   7  16
ATOM     11  C   UNL     1       1.254   3.031  20.364  0.00  0.00    +0.000 C 
ATOM     12  C   UNL     1       2.316   3.075  19.341  0.00  0.00    +0.000 A 
ATOM     13  O   UNL     1       2.516   1.919  18.657  0.00  0.00    +0.000 OA
ATOM     14  N   UNL     1       3.496   2.099  17.709  0.00  0.00    +0.000 NA
ATOM     15  C   UNL     1       3.906   3.374  17.816  0.00  0.00    +0.000 A 
ATOM     16  C   UNL     1       3.154   4.045  18.838  0.00  0.00    +0.000 A 
BRANCH  15  17
ATOM     17  C   UNL     1       4.996   3.885  16.974  0.00  0.00    +0.000 A 
ATOM     18  C   UNL     1       4.824   4.023  15.589  0.00  0.00    +0.000 A 
ATOM     19  C   UNL     1       5.864   4.500  14.784  0.00  0.00    +0.000 A 
ATOM     20  C   UNL     1       7.088   4.845  15.353  0.00  0.00    +0.000 A 
ATOM     21  C   UNL     1       7.277   4.707  16.724  0.00  0.00    +0.000 A 
ATOM     22  C   UNL     1       6.241   4.221  17.528  0.00  0.00    +0.000 A 
ENDBRANCH  15  17
ENDBRANCH   7  16
ENDBRANCH   1   9
BRANCH   4  23
ATOM     23  S   UNL     1       0.644  11.881  20.036  0.00  0.00    +0.000 S 
ATOM     24  O   UNL     1       1.246  12.346  21.271  0.00  0.00    +0.000 OA
ATOM     25  O   UNL     1       0.799  12.615  18.798  0.00  0.00    +0.000 OA
BRANCH  23  26
ATOM     26  N   UNL     1      -1.014  11.599  20.314  0.00  0.00    +0.000 NA
ATOM     27  C   UNL     1      -1.429  11.569  21.729  0.00  0.00    +0.000 C 
BRANCH  26  28
ATOM     28  C   UNL     1      -1.962  12.330  19.427  0.00  0.00    +0.000 C 
BRANCH  28  29
ATOM     29  C   UNL     1      -2.569  11.523  18.302  0.00  0.00    +0.000 A 
ATOM     30  C   UNL     1      -1.785  10.603  17.590  0.00  0.00    +0.000 A 
ATOM     31  C   UNL     1      -2.292   9.938  16.477  0.00  0.00    +0.000 A 
ATOM     32  C   UNL     1      -3.609  10.151  16.084  0.00  0.00    +0.000 A 
ATOM     33  C   UNL     1      -4.420  11.021  16.812  0.00  0.00    +0.000 A 
ATOM     34  C   UNL     1      -3.902  11.707  17.914  0.00  0.00    +0.000 A 
ENDBRANCH  28  29
ENDBRANCH  26  28
ENDBRANCH  23  26
ENDBRANCH   4  23
TORSDOF 7
ENDMDL
MODEL 6
REMARK VINA RESULT:      -9.0      1.306      1.671
REMARK  Name = 
REMARK  9 active torsions:
REMARK  status: ('A' for Active; 'I' for Inactive)
REMARK    1  A    between atoms: C_1  and  C_2
REMARK    2  A    between atoms: C_5  and  C_6
REMARK    3  A    between atoms: C_12  and  C_13
REMARK    4  A    between atoms: N_15  and  C_16
REMARK    5  A    between atoms: C_19  and  S_20
REMARK    6  A    between atoms: S_20  and  N_23
REMARK    7  A    between atoms: N_23  and  C_24
REMARK    8  A    between atoms: N_23  and  C_25
REMARK    9  A    between atoms: C_25  and  C_26
REMARK                            x       y       z     vdW  Elec       q    Type
REMARK                         _______ _______ _______ _____ _____    ______ ____
ROOT
ATOM      1  C   UNL     1       1.972   8.016  18.863  0.00  0.00    +0.000 A 
ATOM      2  C   UNL     1       1.946   9.122  18.005  0.00  0.00    +0.000 A 
ATOM      3  C   UNL     1       1.492  10.364  18.441  0.00  0.00    +0.000 A 
ATOM      4  C   UNL     1       1.037  10.518  19.748  0.00  0.00    +0.000 A 
ATOM      5  C   UNL     1       1.017   9.423  20.615  0.00  0.00    +0.000 A 
ATOM      6  C   UNL     1       1.468   8.171  20.164  0.00  0.00    +0.000 A 
ENDROOT
BRANCH   1   9
ATOM      7  C   UNL     1       2.577   5.640  19.297  0.00  0.00    +0.000 C 
ATOM      8  O   UNL     1       2.185   5.593  20.457  0.00  0.00    +0.000 OA
ATOM      9  N   UNL     1       2.525   6.767  18.483  0.00  0.00    +0.000 N 
ATOM     10  H   UNL     1       2.745   6.645  17.503  0.00  0.00    +0.000 HD
BRANCH   7  16
ATOM     11  C   UNL     1       1.031   2.765  18.630  0.00  0.00    +0.000 C 
ATOM     12  C   UNL     1       2.398   3.267  18.395  0.00  0.00    +0.000 A 
ATOM     13  O   UNL     1       3.207   2.444  17.679  0.00  0.00    +0.000 OA
ATOM     14  N   UNL     1       4.433   3.038  17.492  0.00  0.00    +0.000 NA
ATOM     15  C   UNL     1       4.379   4.233  18.104  0.00  0.00    +0.000 A 
ATOM     16  C   UNL     1       3.078   4.431  18.678  0.00  0.00    +0.000 A 
BRANCH  15  17
ATOM     17  C   UNL     1       5.556   5.111  18.142  0.00  0.00    +0.000 A 
ATOM     18  C   UNL     1       6.480   5.023  19.194  0.00  0.00    +0.000 A 
ATOM     19  C   UNL     1       7.596   5.866  19.236  0.00  0.00    +0.000 A 
ATOM     20  C   UNL     1       7.803   6.806  18.229  0.00  0.00    +0.000 A 
ATOM     21  C   UNL     1       6.892   6.911  17.183  0.00  0.00    +0.000 A 
ATOM     22  C   UNL     1       5.771   6.076  17.145  0.00  0.00    +0.000 A 
ENDBRANCH  15  17
ENDBRANCH   7  16
ENDBRANCH   1   9
BRANCH   4  23
ATOM     23  S   UNL     1       0.730  12.170  20.321  0.00  0.00    +0.000 S 
ATOM     24  O   UNL     1       0.510  12.102  21.753  0.00  0.00    +0.000 OA
ATOM     25  O   UNL     1       1.791  12.978  19.759  0.00  0.00    +0.000 OA
BRANCH  23  26
ATOM     26  N   UNL     1      -0.743  12.580  19.566  0.00  0.00    +0.000 NA
ATOM     27  C   UNL     1      -0.628  13.165  18.217  0.00  0.00    +0.000 C 
BRANCH  26  28
ATOM     28  C   UNL     1      -1.846  11.587  19.697  0.00  0.00    +0.000 C 
BRANCH  28  29
ATOM     29  C   UNL     1      -2.517  11.173  18.408  0.00  0.00    +0.000 A 
ATOM     30  C   UNL     1      -1.894  10.252  17.552  0.00  0.00    +0.000 A 
ATOM     31  C   UNL     1      -2.437   9.948  16.306  0.00  0.00    +0.000 A 
ATOM     32  C   UNL     1      -3.639  10.528  15.915  0.00  0.00    +0.000 A 
ATOM     33  C   UNL     1      -4.300  11.404  16.775  0.00  0.00    +0.000 A 
ATOM     34  C   UNL     1      -3.741  11.729  18.015  0.00  0.00    +0.000 A 
ENDBRANCH  28  29
ENDBRANCH  26  28
ENDBRANCH  23  26
ENDBRANCH   4  23
TORSDOF 7
ENDMDL
MODEL 7
REMARK VINA RESULT:      -8.9      0.975      1.455
REMARK  Name = 
REMARK  9 active torsions:
REMARK  status: ('A' for Active; 'I' for Inactive)
REMARK    1  A    between atoms: C_1  and  C_2
REMARK    2  A    between atoms: C_5  and  C_6
REMARK    3  A    between atoms: C_12  and  C_13
REMARK    4  A    between atoms: N_15  and  C_16
REMARK    5  A    between atoms: C_19  and  S_20
REMARK    6  A    between atoms: S_20  and  N_23
REMARK    7  A    between atoms: N_23  and  C_24
REMARK    8  A    between atoms: N_23  and  C_25
REMARK    9  A    between atoms: C_25  and  C_26
REMARK                            x       y       z     vdW  Elec       q    Type
REMARK                         _______ _______ _______ _____ _____    ______ ____
ROOT
ATOM      1  C   UNL     1       1.774   7.837  20.381  0.00  0.00    +0.000 A 
ATOM      2  C   UNL     1       1.749   8.614  19.218  0.00  0.00    +0.000 A 
ATOM      3  C   UNL     1       1.180   9.884  19.209  0.00  0.00    +0.000 A 
ATOM      4  C   UNL     1       0.607  10.396  20.370  0.00  0.00    +0.000 A 
ATOM      5  C   UNL     1       0.583   9.629  21.536  0.00  0.00    +0.000 A 
ATOM      6  C   UNL     1       1.152   8.343  21.533  0.00  0.00    +0.000 A 
ENDROOT
BRANCH   1   9
ATOM      7  C   UNL     1       2.503   5.660  19.414  0.00  0.00    +0.000 C 
ATOM      8  O   UNL     1       1.967   5.793  18.320  0.00  0.00    +0.000 OA
ATOM      9  N   UNL     1       2.437   6.585  20.452  0.00  0.00    +0.000 N 
ATOM     10  H   UNL     1       3.036   6.432  21.253  0.00  0.00    +0.000 HD
BRANCH   7  16
ATOM     11  C   UNL     1       1.720   2.715  20.760  0.00  0.00    +0.000 C 
ATOM     12  C   UNL     1       2.959   3.281  20.192  0.00  0.00    +0.000 A 
ATOM     13  O   UNL     1       4.004   2.419  20.100  0.00  0.00    +0.000 OA
ATOM     14  N   UNL     1       5.080   3.049  19.519  0.00  0.00    +0.000 NA
ATOM     15  C   UNL     1       4.694   4.310  19.259  0.00  0.00    +0.000 A 
ATOM     16  C   UNL     1       3.326   4.494  19.654  0.00  0.00    +0.000 A 
BRANCH  15  17
ATOM     17  C   UNL     1       5.634   5.279  18.681  0.00  0.00    +0.000 A 
ATOM     18  C   UNL     1       5.297   5.999  17.525  0.00  0.00    +0.000 A 
ATOM     19  C   UNL     1       6.196   6.915  16.966  0.00  0.00    +0.000 A 
ATOM     20  C   UNL     1       7.441   7.122  17.555  0.00  0.00    +0.000 A 
ATOM     21  C   UNL     1       7.794   6.410  18.697  0.00  0.00    +0.000 A 
ATOM     22  C   UNL     1       6.900   5.488  19.250  0.00  0.00    +0.000 A 
ENDBRANCH  15  17
ENDBRANCH   7  16
ENDBRANCH   1   9
BRANCH   4  23
ATOM     23  S   UNL     1       0.145  12.111  20.370  0.00  0.00    +0.000 S 
ATOM     24  O   UNL     1       0.918  12.772  21.404  0.00  0.00    +0.000 OA
ATOM     25  O   UNL     1       0.221  12.532  18.986  0.00  0.00    +0.000 OA
BRANCH  23  26
ATOM     26  N   UNL     1      -1.490  12.077  20.853  0.00  0.00    +0.000 NA
ATOM     27  C   UNL     1      -1.725  12.058  22.309  0.00  0.00    +0.000 C 
BRANCH  26  28
ATOM     28  C   UNL     1      -2.414  12.977  20.108  0.00  0.00    +0.000 C 
BRANCH  28  29
ATOM     29  C   UNL     1      -3.586  12.305  19.432  0.00  0.00    +0.000 A 
ATOM     30  C   UNL     1      -4.881  12.455  19.951  0.00  0.00    +0.000 A 
ATOM     31  C   UNL     1      -5.956  11.750  19.415  0.00  0.00    +0.000 A 
ATOM     32  C   UNL     1      -5.759  10.917  18.319  0.00  0.00    +0.000 A 
ATOM     33  C   UNL     1      -4.489  10.797  17.756  0.00  0.00    +0.000 A 
ATOM     34  C   UNL     1      -3.406  11.485  18.311  0.00  0.00    +0.000 A 
ENDBRANCH  28  29
ENDBRANCH  26  28
ENDBRANCH  23  26
ENDBRANCH   4  23
TORSDOF 7
ENDMDL
MODEL 8
REMARK VINA RESULT:      -8.8      0.570      1.287
REMARK  Name = 
REMARK  9 active torsions:
REMARK  status: ('A' for Active; 'I' for Inactive)
REMARK    1  A    between atoms: C_1  and  C_2
REMARK    2  A    between atoms: C_5  and  C_6
REMARK    3  A    between atoms: C_12  and  C_13
REMARK    4  A    between atoms: N_15  and  C_16
REMARK    5  A    between atoms: C_19  and  S_20
REMARK    6  A    between atoms: S_20  and  N_23
REMARK    7  A    between atoms: N_23  and  C_24
REMARK    8  A    between atoms: N_23  and  C_25
REMARK    9  A    between atoms: C_25  and  C_26
REMARK                            x       y       z     vdW  Elec       q    Type
REMARK                         _______ _______ _______ _____ _____    ______ ____
ROOT
ATOM      1  C   UNL     1       1.712   7.999  20.498  0.00  0.00    +0.000 A 
ATOM      2  C   UNL     1       1.683   8.753  19.320  0.00  0.00    +0.000 A 
ATOM      3  C   UNL     1       1.257  10.078  19.320  0.00  0.00    +0.000 A 
ATOM      4  C   UNL     1       0.831  10.671  20.506  0.00  0.00    +0.000 A 
ATOM      5  C   UNL     1       0.812   9.931  21.691  0.00  0.00    +0.000 A 
ATOM      6  C   UNL     1       1.236   8.591  21.679  0.00  0.00    +0.000 A 
ENDROOT
BRANCH   1   9
ATOM      7  C   UNL     1       2.492   5.882  19.444  0.00  0.00    +0.000 C 
ATOM      8  O   UNL     1       2.261   6.196  18.282  0.00  0.00    +0.000 OA
ATOM      9  N   UNL     1       2.238   6.683  20.552  0.00  0.00    +0.000 N 
ATOM     10  H   UNL     1       2.602   6.375  21.445  0.00  0.00    +0.000 HD
BRANCH   7  16
ATOM     11  C   UNL     1       1.346   3.174  21.010  0.00  0.00    +0.000 C 
ATOM     12  C   UNL     1       2.620   3.504  20.342  0.00  0.00    +0.000 A 
ATOM     13  O   UNL     1       3.510   2.484  20.248  0.00  0.00    +0.000 OA
ATOM     14  N   UNL     1       4.633   2.903  19.572  0.00  0.00    +0.000 NA
ATOM     15  C   UNL     1       4.432   4.193  19.256  0.00  0.00    +0.000 A 
ATOM     16  C   UNL     1       3.137   4.613  19.711  0.00  0.00    +0.000 A 
BRANCH  15  17
ATOM     17  C   UNL     1       5.474   4.969  18.569  0.00  0.00    +0.000 A 
ATOM     18  C   UNL     1       6.578   5.466  19.276  0.00  0.00    +0.000 A 
ATOM     19  C   UNL     1       7.566   6.213  18.625  0.00  0.00    +0.000 A 
ATOM     20  C   UNL     1       7.463   6.473  17.260  0.00  0.00    +0.000 A 
ATOM     21  C   UNL     1       6.370   5.993  16.546  0.00  0.00    +0.000 A 
ATOM     22  C   UNL     1       5.377   5.254  17.198  0.00  0.00    +0.000 A 
ENDBRANCH  15  17
ENDBRANCH   7  16
ENDBRANCH   1   9
BRANCH   4  23
ATOM     23  S   UNL     1       0.560  12.426  20.496  0.00  0.00    +0.000 S 
ATOM     24  O   UNL     1       0.757  12.906  21.850  0.00  0.00    +0.000 OA
ATOM     25  O   UNL     1       1.350  12.932  19.393  0.00  0.00    +0.000 OA
BRANCH  23  26
ATOM     26  N   UNL     1      -1.094  12.564  20.107  0.00  0.00    +0.000 NA
ATOM     27  C   UNL     1      -1.898  13.398  21.020  0.00  0.00    +0.000 C 
BRANCH  26  28
ATOM     28  C   UNL     1      -1.416  12.772  18.667  0.00  0.00    +0.000 C 
BRANCH  28  29
ATOM     29  C   UNL     1      -2.247  11.691  18.014  0.00  0.00    +0.000 A 
ATOM     30  C   UNL     1      -3.629  11.626  18.247  0.00  0.00    +0.000 A 
ATOM     31  C   UNL     1      -4.391  10.572  17.753  0.00  0.00    +0.000 A 
ATOM     32  C   UNL     1      -3.789   9.587  16.977  0.00  0.00    +0.000 A 
ATOM     33  C   UNL     1      -2.427   9.664  16.690  0.00  0.00    +0.000 A 
ATOM     34  C   UNL     1      -1.657  10.709  17.209  0.00  0.00    +0.000 A 
ENDBRANCH  28  29
ENDBRANCH  26  28
ENDBRANCH  23  26
ENDBRANCH   4  23
TORSDOF 7
ENDMDL
MODEL 9
REMARK VINA RESULT:      -8.8      2.685      4.006
REMARK  Name = 
REMARK  9 active torsions:
REMARK  status: ('A' for Active; 'I' for Inactive)
REMARK    1  A    between atoms: C_1  and  C_2
REMARK    2  A    between atoms: C_5  and  C_6
REMARK    3  A    between atoms: C_12  and  C_13
REMARK    4  A    between atoms: N_15  and  C_16
REMARK    5  A    between atoms: C_19  and  S_20
REMARK    6  A    between atoms: S_20  and  N_23
REMARK    7  A    between atoms: N_23  and  C_24
REMARK    8  A    between atoms: N_23  and  C_25
REMARK    9  A    between atoms: C_25  and  C_26
REMARK                            x       y       z     vdW  Elec       q    Type
REMARK                         _______ _______ _______ _____ _____    ______ ____
ROOT
ATOM      1  C   UNL     1       1.929   7.760  20.008  0.00  0.00    +0.000 A 
ATOM      2  C   UNL     1       1.123   8.344  20.991  0.00  0.00    +0.000 A 
ATOM      3  C   UNL     1       0.394   9.502  20.734  0.00  0.00    +0.000 A 
ATOM      4  C   UNL     1       0.474  10.110  19.484  0.00  0.00    +0.000 A 
ATOM      5  C   UNL     1       1.300   9.571  18.495  0.00  0.00    +0.000 A 
ATOM      6  C   UNL     1       2.039   8.406  18.767  0.00  0.00    +0.000 A 
ENDROOT
BRANCH   1   9
ATOM      7  C   UNL     1       2.521   5.433  19.346  0.00  0.00    +0.000 C 
ATOM      8  O   UNL     1       1.833   5.384  18.333  0.00  0.00    +0.000 OA
ATOM      9  N   UNL     1       2.600   6.526  20.203  0.00  0.00    +0.000 N 
ATOM     10  H   UNL     1       3.309   6.502  20.926  0.00  0.00    +0.000 HD
BRANCH   7  16
ATOM     11  C   UNL     1       1.815   2.568  20.893  0.00  0.00    +0.000 C 
ATOM     12  C   UNL     1       3.039   3.127  20.289  0.00  0.00    +0.000 A 
ATOM     13  O   UNL     1       4.109   2.290  20.259  0.00  0.00    +0.000 OA
ATOM     14  N   UNL     1       5.169   2.908  19.637  0.00  0.00    +0.000 NA
ATOM     15  C   UNL     1       4.749   4.136  19.290  0.00  0.00    +0.000 A 
ATOM     16  C   UNL     1       3.375   4.309  19.668  0.00  0.00    +0.000 A 
BRANCH  15  17
ATOM     17  C   UNL     1       5.664   5.088  18.646  0.00  0.00    +0.000 A 
ATOM     18  C   UNL     1       6.868   5.453  19.268  0.00  0.00    +0.000 A 
ATOM     19  C   UNL     1       7.736   6.368  18.661  0.00  0.00    +0.000 A 
ATOM     20  C   UNL     1       7.413   6.928  17.427  0.00  0.00    +0.000 A 
ATOM     21  C   UNL     1       6.220   6.583  16.802  0.00  0.00    +0.000 A 
ATOM     22  C   UNL     1       5.347   5.676  17.412  0.00  0.00    +0.000 A 
ENDBRANCH  15  17
ENDBRANCH   7  16
ENDBRANCH   1   9
BRANCH   4  23
ATOM     23  S   UNL     1      -0.676  11.416  19.131  0.00  0.00    +0.000 S 
ATOM     24  O   UNL     1      -1.349  11.082  17.891  0.00  0.00    +0.000 OA
ATOM     25  O   UNL     1      -1.416  11.621  20.359  0.00  0.00    +0.000 OA
BRANCH  23  26
ATOM     26  N   UNL     1       0.332  12.763  18.856  0.00  0.00    +0.000 NA
ATOM     27  C   UNL     1      -0.357  14.008  18.468  0.00  0.00    +0.000 C 
BRANCH  26  28
ATOM     28  C   UNL     1       1.436  12.968  19.835  0.00  0.00    +0.000 C 
BRANCH  28  29
ATOM     29  C   UNL     1       2.467  14.007  19.459  0.00  0.00    +0.000 A 
ATOM     30  C   UNL     1       2.614  15.168  20.232  0.00  0.00    +0.000 A 
ATOM     31  C   UNL     1       3.473  16.190  19.836  0.00  0.00    +0.000 A 
ATOM     32  C   UNL     1       4.234  16.046  18.681  0.00  0.00    +0.000 A 
ATOM     33  C   UNL     1       4.141  14.876  17.929  0.00  0.00    +0.000 A 
ATOM     34  C   UNL     1       3.259  13.861  18.313  0.00  0.00    +0.000 A 
ENDBRANCH  28  29
ENDBRANCH  26  28
ENDBRANCH  23  26
ENDBRANCH   4  23
TORSDOF 7
ENDMDL
