MODEL 1
REMARK VINA RESULT:      -8.1      0.000      0.000
REMARK  Name = 
REMARK  6 active torsions:
REMARK  status: ('A' for Active; 'I' for Inactive)
REMARK    1  A    between atoms: C_1  and  C_2
REMARK    2  A    between atoms: C_2  and  N_3
REMARK    3  A    between atoms: C_2  and  C_10
REMARK    4  A    between atoms: N_8  and  C_9
REMARK    5  A    between atoms: C_14  and  N_15
REMARK    6  A    between atoms: C_16  and  C_18
REMARK                            x       y       z     vdW  Elec       q    Type
REMARK                         _______ _______ _______ _____ _____    ______ ____
ROOT
ATOM      1  C   UNL     1       4.651   5.619  18.293  0.00  0.00    +0.000 A 
ATOM      2  C   UNL     1       5.817   5.773  19.057  0.00  0.00    +0.000 A 
ATOM      3  C   UNL     1       7.040   5.329  18.569  0.00  0.00    +0.000 A 
ATOM      4  C   UNL     1       7.115   4.715  17.323  0.00  0.00    +0.000 A 
ATOM      5  C   UNL     1       5.973   4.537  16.536  0.00  0.00    +0.000 A 
ATOM      6  C   UNL     1       4.747   5.022  17.018  0.00  0.00    +0.000 A 
ENDROOT
BRANCH   5   7
ATOM      7  N   UNL     1       5.988   3.879  15.280  0.00  0.00    +0.000 N 
ATOM      8  C   UNL     1       6.500   4.390  14.100  0.00  0.00    +0.000 C 
ATOM      9  O   UNL     1       7.060   5.478  13.980  0.00  0.00    +0.000 OA
ATOM     10  H   UNL     1       5.600   2.949  15.267  0.00  0.00    +0.000 HD
BRANCH   8  11
ATOM     11  C   UNL     1       6.353   3.508  12.895  0.00  0.00    +0.000 C 
ATOM     12  C   UNL     1       5.100   3.343  12.424  0.00  0.00    +0.000 C 
ATOM     13  C   UNL     1       4.748   2.485  11.249  0.00  0.00    +0.000 C 
ATOM     14  C   UNL     1       5.885   1.547  10.850  0.00  0.00    +0.000 C 
ATOM     15  C   UNL     1       7.217   2.289  10.839  0.00  0.00    +0.000 C 
ATOM     16  C   UNL     1       7.541   2.878  12.220  0.00  0.00    +0.000 C 
ENDBRANCH   8  11
ENDBRANCH   5   7
BRANCH   1  18
ATOM     17  C   UNL     1       2.742   7.278  18.211  0.00  0.00    +0.000 C 
ATOM     18  C   UNL     1       3.322   6.043  18.902  0.00  0.00    +0.000 C 
BRANCH  18  19
ATOM     19  N   UNL     1       2.390   4.913  18.821  0.00  0.00    +0.000 N 
ATOM     20  C   UNL     1       2.162   4.207  19.956  0.00  0.00    +0.000 A 
ATOM     21  N   UNL     1       2.567   4.449  21.184  0.00  0.00    +0.000 NA
ATOM     22  N   UNL     1       2.131   3.430  22.000  0.00  0.00    +0.000 NA
ATOM     23  C   UNL     1       1.440   2.602  21.253  0.00  0.00    +0.000 A 
ATOM     24  N   UNL     1       1.423   3.051  19.967  0.00  0.00    +0.000 N 
ATOM     25  C   UNL     1       0.704   2.443  18.883  0.00  0.00    +0.000 C 
ATOM     26  H   UNL     1       2.517   4.373  17.972  0.00  0.00    +0.000 HD
ENDBRANCH  18  19
ENDBRANCH   1  18
TORSDOF 4
ENDMDL
MODEL 2
REMARK VINA RESULT:      -8.0      3.043      8.777
REMARK  Name = 
REMARK  6 active torsions:
REMARK  status: ('A' for Active; 'I' for Inactive)
REMARK    1  A    between atoms: C_1  and  C_2
REMARK    2  A    between atoms: C_2  and  N_3
REMARK    3  A    between atoms: C_2  and  C_10
REMARK    4  A    between atoms: N_8  and  C_9
REMARK    5  A    between atoms: C_14  and  N_15
REMARK    6  A    between atoms: C_16  and  C_18
REMARK                            x       y       z     vdW  Elec       q    Type
REMARK                         _______ _______ _______ _____ _____    ______ ____
ROOT
ATOM      1  C   UNL     1       4.479   4.863  17.285  0.00  0.00    +0.000 A 
ATOM      2  C   UNL     1       3.851   3.612  17.198  0.00  0.00    +0.000 A 
ATOM      3  C   UNL     1       2.637   3.390  17.837  0.00  0.00    +0.000 A 
ATOM      4  C   UNL     1       2.043   4.404  18.580  0.00  0.00    +0.000 A 
ATOM      5  C   UNL     1       2.643   5.662  18.695  0.00  0.00    +0.000 A 
ATOM      6  C   UNL     1       3.849   5.892  18.016  0.00  0.00    +0.000 A 
ENDROOT
BRANCH   5   7
ATOM      7  N   UNL     1       2.099   6.714  19.476  0.00  0.00    +0.000 N 
ATOM      8  C   UNL     1       1.805   7.990  19.029  0.00  0.00    +0.000 C 
ATOM      9  O   UNL     1       1.931   8.385  17.871  0.00  0.00    +0.000 OA
ATOM     10  H   UNL     1       1.902   6.490  20.438  0.00  0.00    +0.000 HD
BRANCH   8  11
ATOM     11  C   UNL     1       1.278   8.935  20.069  0.00  0.00    +0.000 C 
ATOM     12  C   UNL     1       1.319   8.503  21.346  0.00  0.00    +0.000 C 
ATOM     13  C   UNL     1       0.820   9.289  22.518  0.00  0.00    +0.000 C 
ATOM     14  C   UNL     1      -0.052  10.470  22.099  0.00  0.00    +0.000 C 
ATOM     15  C   UNL     1       0.582  11.221  20.933  0.00  0.00    +0.000 C 
ATOM     16  C   UNL     1       0.771  10.307  19.714  0.00  0.00    +0.000 C 
ENDBRANCH   8  11
ENDBRANCH   5   7
BRANCH   1  18
ATOM     17  C   UNL     1       6.971   4.479  17.515  0.00  0.00    +0.000 C 
ATOM     18  C   UNL     1       5.847   5.036  16.639  0.00  0.00    +0.000 C 
BRANCH  18  19
ATOM     19  N   UNL     1       5.831   4.375  15.329  0.00  0.00    +0.000 N 
ATOM     20  C   UNL     1       6.755   4.770  14.418  0.00  0.00    +0.000 A 
ATOM     21  N   UNL     1       7.769   5.596  14.562  0.00  0.00    +0.000 NA
ATOM     22  N   UNL     1       8.404   5.730  13.349  0.00  0.00    +0.000 NA
ATOM     23  C   UNL     1       7.778   4.954  12.495  0.00  0.00    +0.000 A 
ATOM     24  N   UNL     1       6.745   4.325  13.120  0.00  0.00    +0.000 N 
ATOM     25  C   UNL     1       5.883   3.345  12.521  0.00  0.00    +0.000 C 
ATOM     26  H   UNL     1       4.888   4.235  14.983  0.00  0.00    +0.000 HD
ENDBRANCH  18  19
ENDBRANCH   1  18
TORSDOF 4
ENDMDL
MODEL 3
REMARK VINA RESULT:      -8.0      3.318      8.918
REMARK  Name = 
REMARK  6 active torsions:
REMARK  status: ('A' for Active; 'I' for Inactive)
REMARK    1  A    between atoms: C_1  and  C_2
REMARK    2  A    between atoms: C_2  and  N_3
REMARK    3  A    between atoms: C_2  and  C_10
REMARK    4  A    between atoms: N_8  and  C_9
REMARK    5  A    between atoms: C_14  and  N_15
REMARK    6  A    between atoms: C_16  and  C_18
REMARK                            x       y       z     vdW  Elec       q    Type
REMARK                         _______ _______ _______ _____ _____    ______ ____
ROOT
ATOM      1  C   UNL     1       4.590   5.046  17.117  0.00  0.00    +0.000 A 
ATOM      2  C   UNL     1       3.904   3.823  17.152  0.00  0.00    +0.000 A 
ATOM      3  C   UNL     1       2.654   3.736  17.753  0.00  0.00    +0.000 A 
ATOM      4  C   UNL     1       2.080   4.859  18.338  0.00  0.00    +0.000 A 
ATOM      5  C   UNL     1       2.738   6.093  18.330  0.00  0.00    +0.000 A 
ATOM      6  C   UNL     1       3.982   6.184  17.687  0.00  0.00    +0.000 A 
ENDROOT
BRANCH   5   7
ATOM      7  N   UNL     1       2.215   7.257  18.949  0.00  0.00    +0.000 N 
ATOM      8  C   UNL     1       1.676   7.330  20.221  0.00  0.00    +0.000 C 
ATOM      9  O   UNL     1       1.613   6.398  21.021  0.00  0.00    +0.000 OA
ATOM     10  H   UNL     1       2.261   8.103  18.403  0.00  0.00    +0.000 HD
BRANCH   8  11
ATOM     11  C   UNL     1       1.148   8.675  20.627  0.00  0.00    +0.000 C 
ATOM     12  C   UNL     1       0.883   9.539  19.625  0.00  0.00    +0.000 C 
ATOM     13  C   UNL     1       0.375  10.933  19.828  0.00  0.00    +0.000 C 
ATOM     14  C   UNL     1       0.515  11.400  21.275  0.00  0.00    +0.000 C 
ATOM     15  C   UNL     1       0.060  10.309  22.240  0.00  0.00    +0.000 C 
ATOM     16  C   UNL     1       0.888   9.027  22.066  0.00  0.00    +0.000 C 
ENDBRANCH   8  11
ENDBRANCH   5   7
BRANCH   1  18
ATOM     17  C   UNL     1       7.026   4.445  17.456  0.00  0.00    +0.000 C 
ATOM     18  C   UNL     1       5.991   5.076  16.522  0.00  0.00    +0.000 C 
BRANCH  18  19
ATOM     19  N   UNL     1       5.964   4.383  15.229  0.00  0.00    +0.000 N 
ATOM     20  C   UNL     1       6.852   4.785  14.285  0.00  0.00    +0.000 A 
ATOM     21  N   UNL     1       7.841   5.647  14.384  0.00  0.00    +0.000 NA
ATOM     22  N   UNL     1       8.441   5.770  13.151  0.00  0.00    +0.000 NA
ATOM     23  C   UNL     1       7.820   4.954  12.333  0.00  0.00    +0.000 A 
ATOM     24  N   UNL     1       6.824   4.308  12.999  0.00  0.00    +0.000 N 
ATOM     25  C   UNL     1       5.979   3.287  12.446  0.00  0.00    +0.000 C 
ATOM     26  H   UNL     1       5.018   4.204  14.911  0.00  0.00    +0.000 HD
ENDBRANCH  18  19
ENDBRANCH   1  18
TORSDOF 4
ENDMDL
MODEL 4
REMARK VINA RESULT:      -7.9      3.029      8.681
REMARK  Name = 
REMARK  6 active torsions:
REMARK  status: ('A' for Active; 'I' for Inactive)
REMARK    1  A    between atoms: C_1  and  C_2
REMARK    2  A    between atoms: C_2  and  N_3
REMARK    3  A    between atoms: C_2  and  C_10
REMARK    4  A    between atoms: N_8  and  C_9
REMARK    5  A    between atoms: C_14  and  N_15
REMARK    6  A    between atoms: C_16  and  C_18
REMARK                            x       y       z     vdW  Elec       q    Type
REMARK                         _______ _______ _______ _____ _____    ______ ____
ROOT
ATOM      1  C   UNL     1       4.453   5.038  17.091  0.00  0.00    +0.000 A 
ATOM      2  C   UNL     1       3.736   3.832  17.073  0.00  0.00    +0.000 A 
ATOM      3  C   UNL     1       2.465   3.762  17.630  0.00  0.00    +0.000 A 
ATOM      4  C   UNL     1       1.900   4.885  18.225  0.00  0.00    +0.000 A 
ATOM      5  C   UNL     1       2.587   6.102  18.269  0.00  0.00    +0.000 A 
ATOM      6  C   UNL     1       3.854   6.177  17.670  0.00  0.00    +0.000 A 
ENDROOT
BRANCH   5   7
ATOM      7  N   UNL     1       2.072   7.263  18.901  0.00  0.00    +0.000 N 
ATOM      8  C   UNL     1       1.929   8.510  18.320  0.00  0.00    +0.000 C 
ATOM      9  O   UNL     1       2.187   8.783  17.149  0.00  0.00    +0.000 OA
ATOM     10  H   UNL     1       1.776   7.147  19.857  0.00  0.00    +0.000 HD
BRANCH   8  11
ATOM     11  C   UNL     1       1.400   9.588  19.220  0.00  0.00    +0.000 C 
ATOM     12  C   UNL     1       1.332  10.828  18.691  0.00  0.00    +0.000 C 
ATOM     13  C   UNL     1       0.855  12.036  19.436  0.00  0.00    +0.000 C 
ATOM     14  C   UNL     1       0.784  11.801  20.943  0.00  0.00    +0.000 C 
ATOM     15  C   UNL     1       0.139  10.453  21.249  0.00  0.00    +0.000 C 
ATOM     16  C   UNL     1       0.930   9.298  20.620  0.00  0.00    +0.000 C 
ENDBRANCH   8  11
ENDBRANCH   5   7
BRANCH   1  18
ATOM     17  C   UNL     1       6.867   4.404  17.513  0.00  0.00    +0.000 C 
ATOM     18  C   UNL     1       5.873   5.047  16.544  0.00  0.00    +0.000 C 
BRANCH  18  19
ATOM     19  N   UNL     1       5.880   4.351  15.252  0.00  0.00    +0.000 N 
ATOM     20  C   UNL     1       6.777   4.765  14.323  0.00  0.00    +0.000 A 
ATOM     21  N   UNL     1       7.751   5.643  14.437  0.00  0.00    +0.000 NA
ATOM     22  N   UNL     1       8.371   5.773  13.215  0.00  0.00    +0.000 NA
ATOM     23  C   UNL     1       7.777   4.946  12.388  0.00  0.00    +0.000 A 
ATOM     24  N   UNL     1       6.779   4.285  13.038  0.00  0.00    +0.000 N 
ATOM     25  C   UNL     1       5.961   3.250  12.472  0.00  0.00    +0.000 C 
ATOM     26  H   UNL     1       4.942   4.157  14.918  0.00  0.00    +0.000 HD
ENDBRANCH  18  19
ENDBRANCH   1  18
TORSDOF 4
ENDMDL
MODEL 5
REMARK VINA RESULT:      -7.8      3.351      8.147
REMARK  Name = 
REMARK  6 active torsions:
REMARK  status: ('A' for Active; 'I' for Inactive)
REMARK    1  A    between atoms: C_1  and  C_2
REMARK    2  A    between atoms: C_2  and  N_3
REMARK    3  A    between atoms: C_2  and  C_10
REMARK    4  A    between atoms: N_8  and  C_9
REMARK    5  A    between atoms: C_14  and  N_15
REMARK    6  A    between atoms: C_16  and  C_18
REMARK                            x       y       z     vdW  Elec       q    Type
REMARK                         _______ _______ _______ _____ _____    ______ ____
ROOT
ATOM      1  C   UNL     1       4.425   4.334  16.801  0.00  0.00    +0.000 A 
ATOM      2  C   UNL     1       3.720   3.126  16.914  0.00  0.00    +0.000 A 
ATOM      3  C   UNL     1       2.480   3.094  17.541  0.00  0.00    +0.000 A 
ATOM      4  C   UNL     1       1.935   4.257  18.073  0.00  0.00    +0.000 A 
ATOM      5  C   UNL     1       2.611   5.478  17.986  0.00  0.00    +0.000 A 
ATOM      6  C   UNL     1       3.846   5.512  17.318  0.00  0.00    +0.000 A 
ENDROOT
BRANCH   5   7
ATOM      7  N   UNL     1       2.119   6.682  18.550  0.00  0.00    +0.000 N 
ATOM      8  C   UNL     1       1.946   6.938  19.898  0.00  0.00    +0.000 C 
ATOM      9  O   UNL     1       2.239   6.169  20.812  0.00  0.00    +0.000 OA
ATOM     10  H   UNL     1       1.892   7.413  17.894  0.00  0.00    +0.000 HD
BRANCH   8  11
ATOM     11  C   UNL     1       1.364   8.280  20.234  0.00  0.00    +0.000 C 
ATOM     12  C   UNL     1       1.327   9.183  19.232  0.00  0.00    +0.000 C 
ATOM     13  C   UNL     1       0.808  10.580  19.376  0.00  0.00    +0.000 C 
ATOM     14  C   UNL     1       0.646  10.995  20.836  0.00  0.00    +0.000 C 
ATOM     15  C   UNL     1      -0.016   9.883  21.643  0.00  0.00    +0.000 C 
ATOM     16  C   UNL     1       0.811   8.590  21.598  0.00  0.00    +0.000 C 
ENDBRANCH   8  11
ENDBRANCH   5   7
BRANCH   1  18
ATOM     17  C   UNL     1       5.767   4.096  14.668  0.00  0.00    +0.000 C 
ATOM     18  C   UNL     1       5.815   4.308  16.182  0.00  0.00    +0.000 C 
BRANCH  18  19
ATOM     19  N   UNL     1       6.497   5.565  16.511  0.00  0.00    +0.000 N 
ATOM     20  C   UNL     1       7.187   5.616  17.678  0.00  0.00    +0.000 A 
ATOM     21  N   UNL     1       7.447   4.653  18.535  0.00  0.00    +0.000 NA
ATOM     22  N   UNL     1       8.139   5.186  19.599  0.00  0.00    +0.000 NA
ATOM     23  C   UNL     1       8.312   6.462  19.350  0.00  0.00    +0.000 A 
ATOM     24  N   UNL     1       7.742   6.777  18.154  0.00  0.00    +0.000 N 
ATOM     25  C   UNL     1       7.794   8.064  17.520  0.00  0.00    +0.000 C 
ATOM     26  H   UNL     1       5.931   6.376  16.286  0.00  0.00    +0.000 HD
ENDBRANCH  18  19
ENDBRANCH   1  18
TORSDOF 4
ENDMDL
MODEL 6
REMARK VINA RESULT:      -7.8      3.461      8.261
REMARK  Name = 
REMARK  6 active torsions:
REMARK  status: ('A' for Active; 'I' for Inactive)
REMARK    1  A    between atoms: C_1  and  C_2
REMARK    2  A    between atoms: C_2  and  N_3
REMARK    3  A    between atoms: C_2  and  C_10
REMARK    4  A    between atoms: N_8  and  C_9
REMARK    5  A    between atoms: C_14  and  N_15
REMARK    6  A    between atoms: C_16  and  C_18
REMARK                            x       y       z     vdW  Elec       q    Type
REMARK                         _______ _______ _______ _____ _____    ______ ____
ROOT
ATOM      1  C   UNL     1       4.351   4.487  16.866  0.00  0.00    +0.000 A 
ATOM      2  C   UNL     1       3.669   3.275  17.049  0.00  0.00    +0.000 A 
ATOM      3  C   UNL     1       2.480   3.240  17.767  0.00  0.00    +0.000 A 
ATOM      4  C   UNL     1       1.965   4.406  18.324  0.00  0.00    +0.000 A 
ATOM      5  C   UNL     1       2.621   5.631  18.169  0.00  0.00    +0.000 A 
ATOM      6  C   UNL     1       3.801   5.667  17.410  0.00  0.00    +0.000 A 
ENDROOT
BRANCH   5   7
ATOM      7  N   UNL     1       2.160   6.839  18.753  0.00  0.00    +0.000 N 
ATOM      8  C   UNL     1       1.794   7.016  20.075  0.00  0.00    +0.000 C 
ATOM      9  O   UNL     1       1.859   6.157  20.953  0.00  0.00    +0.000 OA
ATOM     10  H   UNL     1       2.115   7.634  18.136  0.00  0.00    +0.000 HD
BRANCH   8  11
ATOM     11  C   UNL     1       1.296   8.386  20.432  0.00  0.00    +0.000 C 
ATOM     12  C   UNL     1       1.108   8.630  21.746  0.00  0.00    +0.000 C 
ATOM     13  C   UNL     1       0.595   9.924  22.297  0.00  0.00    +0.000 C 
ATOM     14  C   UNL     1      -0.020  10.814  21.219  0.00  0.00    +0.000 C 
ATOM     15  C   UNL     1       0.866  10.849  19.978  0.00  0.00    +0.000 C 
ATOM     16  C   UNL     1       1.060   9.445  19.389  0.00  0.00    +0.000 C 
ENDBRANCH   8  11
ENDBRANCH   5   7
BRANCH   1  18
ATOM     17  C   UNL     1       5.526   4.358  14.628  0.00  0.00    +0.000 C 
ATOM     18  C   UNL     1       5.691   4.464  16.145  0.00  0.00    +0.000 C 
BRANCH  18  19
ATOM     19  N   UNL     1       6.436   5.677  16.505  0.00  0.00    +0.000 N 
ATOM     20  C   UNL     1       7.126   5.663  17.672  0.00  0.00    +0.000 A 
ATOM     21  N   UNL     1       7.336   4.667  18.506  0.00  0.00    +0.000 NA
ATOM     22  N   UNL     1       8.053   5.138  19.582  0.00  0.00    +0.000 NA
ATOM     23  C   UNL     1       8.291   6.410  19.365  0.00  0.00    +0.000 A 
ATOM     24  N   UNL     1       7.739   6.782  18.177  0.00  0.00    +0.000 N 
ATOM     25  C   UNL     1       7.858   8.081  17.575  0.00  0.00    +0.000 C 
ATOM     26  H   UNL     1       5.913   6.521  16.300  0.00  0.00    +0.000 HD
ENDBRANCH  18  19
ENDBRANCH   1  18
TORSDOF 4
ENDMDL
MODEL 7
REMARK VINA RESULT:      -7.7      3.295      8.723
REMARK  Name = 
REMARK  6 active torsions:
REMARK  status: ('A' for Active; 'I' for Inactive)
REMARK    1  A    between atoms: C_1  and  C_2
REMARK    2  A    between atoms: C_2  and  N_3
REMARK    3  A    between atoms: C_2  and  C_10
REMARK    4  A    between atoms: N_8  and  C_9
REMARK    5  A    between atoms: C_14  and  N_15
REMARK    6  A    between atoms: C_16  and  C_18
REMARK                            x       y       z     vdW  Elec       q    Type
REMARK                         _______ _______ _______ _____ _____    ______ ____
ROOT
ATOM      1  C   UNL     1       4.704   5.182  17.238  0.00  0.00    +0.000 A 
ATOM      2  C   UNL     1       4.110   3.987  17.672  0.00  0.00    +0.000 A 
ATOM      3  C   UNL     1       2.872   4.007  18.301  0.00  0.00    +0.000 A 
ATOM      4  C   UNL     1       2.217   5.215  18.519  0.00  0.00    +0.000 A 
ATOM      5  C   UNL     1       2.781   6.427  18.108  0.00  0.00    +0.000 A 
ATOM      6  C   UNL     1       4.014   6.397  17.438  0.00  0.00    +0.000 A 
ENDROOT
BRANCH   5   7
ATOM      7  N   UNL     1       2.175   7.687  18.345  0.00  0.00    +0.000 N 
ATOM      8  C   UNL     1       1.720   8.155  19.564  0.00  0.00    +0.000 C 
ATOM      9  O   UNL     1       1.818   7.559  20.636  0.00  0.00    +0.000 OA
ATOM     10  H   UNL     1       2.088   8.290  17.541  0.00  0.00    +0.000 HD
BRANCH   8  11
ATOM     11  C   UNL     1       1.074   9.509  19.539  0.00  0.00    +0.000 C 
ATOM     12  C   UNL     1       0.170   9.758  20.510  0.00  0.00    +0.000 C 
ATOM     13  C   UNL     1      -0.596  11.037  20.639  0.00  0.00    +0.000 C 
ATOM     14  C   UNL     1      -0.515  11.895  19.378  0.00  0.00    +0.000 C 
ATOM     15  C   UNL     1       0.916  11.951  18.855  0.00  0.00    +0.000 C 
ATOM     16  C   UNL     1       1.444  10.549  18.517  0.00  0.00    +0.000 C 
ENDBRANCH   8  11
ENDBRANCH   5   7
BRANCH   1  18
ATOM     17  C   UNL     1       7.101   4.434  17.556  0.00  0.00    +0.000 C 
ATOM     18  C   UNL     1       6.097   5.122  16.628  0.00  0.00    +0.000 C 
BRANCH  18  19
ATOM     19  N   UNL     1       6.013   4.423  15.340  0.00  0.00    +0.000 N 
ATOM     20  C   UNL     1       6.869   4.808  14.362  0.00  0.00    +0.000 A 
ATOM     21  N   UNL     1       7.872   5.659  14.419  0.00  0.00    +0.000 NA
ATOM     22  N   UNL     1       8.427   5.769  13.164  0.00  0.00    +0.000 NA
ATOM     23  C   UNL     1       7.766   4.956  12.374  0.00  0.00    +0.000 A 
ATOM     24  N   UNL     1       6.787   4.326  13.080  0.00  0.00    +0.000 N 
ATOM     25  C   UNL     1       5.911   3.312  12.565  0.00  0.00    +0.000 C 
ATOM     26  H   UNL     1       5.054   4.254  15.059  0.00  0.00    +0.000 HD
ENDBRANCH  18  19
ENDBRANCH   1  18
TORSDOF 4
ENDMDL
MODEL 8
REMARK VINA RESULT:      -7.7      5.352     10.112
REMARK  Name = 
REMARK  6 active torsions:
REMARK  status: ('A' for Active; 'I' for Inactive)
REMARK    1  A    between atoms: C_1  and  C_2
REMARK    2  A    between atoms: C_2  and  N_3
REMARK    3  A    between atoms: C_2  and  C_10
REMARK    4  A    between atoms: N_8  and  C_9
REMARK    5  A    between atoms: C_14  and  N_15
REMARK    6  A    between atoms: C_16  and  C_18
REMARK                            x       y       z     vdW  Elec       q    Type
REMARK                         _______ _______ _______ _____ _____    ______ ____
ROOT
ATOM      1  C   UNL     1       2.254   7.404  19.421  0.00  0.00    +0.000 A 
ATOM      2  C   UNL     1       2.513   7.772  18.092  0.00  0.00    +0.000 A 
ATOM      3  C   UNL     1       2.035   8.977  17.592  0.00  0.00    +0.000 A 
ATOM      4  C   UNL     1       1.282   9.821  18.401  0.00  0.00    +0.000 A 
ATOM      5  C   UNL     1       0.997   9.484  19.728  0.00  0.00    +0.000 A 
ATOM      6  C   UNL     1       1.516   8.285  20.240  0.00  0.00    +0.000 A 
ENDROOT
BRANCH   5   7
ATOM      7  N   UNL     1       0.199  10.289  20.580  0.00  0.00    +0.000 N 
ATOM      8  C   UNL     1       0.562  11.509  21.122  0.00  0.00    +0.000 C 
ATOM      9  O   UNL     1       1.620  12.098  20.905  0.00  0.00    +0.000 OA
ATOM     10  H   UNL     1      -0.720   9.930  20.789  0.00  0.00    +0.000 HD
BRANCH   8  11
ATOM     11  C   UNL     1      -0.450  12.141  22.033  0.00  0.00    +0.000 C 
ATOM     12  C   UNL     1      -1.379  11.315  22.558  0.00  0.00    +0.000 C 
ATOM     13  C   UNL     1      -2.482  11.760  23.467  0.00  0.00    +0.000 C 
ATOM     14  C   UNL     1      -2.665  13.276  23.465  0.00  0.00    +0.000 C 
ATOM     15  C   UNL     1      -1.316  13.982  23.556  0.00  0.00    +0.000 C 
ATOM     16  C   UNL     1      -0.407  13.605  22.377  0.00  0.00    +0.000 C 
ENDBRANCH   8  11
ENDBRANCH   5   7
BRANCH   1  18
ATOM     17  C   UNL     1       1.598   5.237  20.553  0.00  0.00    +0.000 C 
ATOM     18  C   UNL     1       2.726   6.039  19.901  0.00  0.00    +0.000 C 
BRANCH  18  19
ATOM     19  N   UNL     1       3.291   5.312  18.759  0.00  0.00    +0.000 N 
ATOM     20  C   UNL     1       4.634   5.123  18.738  0.00  0.00    +0.000 A 
ATOM     21  N   UNL     1       5.528   5.397  19.664  0.00  0.00    +0.000 NA
ATOM     22  N   UNL     1       6.775   5.077  19.178  0.00  0.00    +0.000 NA
ATOM     23  C   UNL     1       6.609   4.585  17.973  0.00  0.00    +0.000 A 
ATOM     24  N   UNL     1       5.284   4.585  17.658  0.00  0.00    +0.000 N 
ATOM     25  C   UNL     1       4.717   4.053  16.450  0.00  0.00    +0.000 C 
ATOM     26  H   UNL     1       2.860   5.585  17.882  0.00  0.00    +0.000 HD
ENDBRANCH  18  19
ENDBRANCH   1  18
TORSDOF 4
ENDMDL
MODEL 9
REMARK VINA RESULT:      -7.6      3.114      7.952
REMARK  Name = 
REMARK  6 active torsions:
REMARK  status: ('A' for Active; 'I' for Inactive)
REMARK    1  A    between atoms: C_1  and  C_2
REMARK    2  A    between atoms: C_2  and  N_3
REMARK    3  A    between atoms: C_2  and  C_10
REMARK    4  A    between atoms: N_8  and  C_9
REMARK    5  A    between atoms: C_14  and  N_15
REMARK    6  A    between atoms: C_16  and  C_18
REMARK                            x       y       z     vdW  Elec       q    Type
REMARK                         _______ _______ _______ _____ _____    ______ ____
ROOT
ATOM      1  C   UNL     1       4.310   4.439  16.912  0.00  0.00    +0.000 A 
ATOM      2  C   UNL     1       3.642   3.216  17.082  0.00  0.00    +0.000 A 
ATOM      3  C   UNL     1       2.442   3.163  17.780  0.00  0.00    +0.000 A 
ATOM      4  C   UNL     1       1.901   4.320  18.329  0.00  0.00    +0.000 A 
ATOM      5  C   UNL     1       2.541   5.555  18.188  0.00  0.00    +0.000 A 
ATOM      6  C   UNL     1       3.733   5.609  17.448  0.00  0.00    +0.000 A 
ENDROOT
BRANCH   5   7
ATOM      7  N   UNL     1       2.053   6.755  18.765  0.00  0.00    +0.000 N 
ATOM      8  C   UNL     1       2.143   8.020  18.211  0.00  0.00    +0.000 C 
ATOM      9  O   UNL     1       2.624   8.282  17.110  0.00  0.00    +0.000 OA
ATOM     10  H   UNL     1       1.587   6.657  19.653  0.00  0.00    +0.000 HD
BRANCH   8  11
ATOM     11  C   UNL     1       1.586   9.135  19.047  0.00  0.00    +0.000 C 
ATOM     12  C   UNL     1       1.432  10.325  18.430  0.00  0.00    +0.000 C 
ATOM     13  C   UNL     1       0.915  11.560  19.100  0.00  0.00    +0.000 C 
ATOM     14  C   UNL     1       0.907  11.439  20.622  0.00  0.00    +0.000 C 
ATOM     15  C   UNL     1       0.348  10.087  21.052  0.00  0.00    +0.000 C 
ATOM     16  C   UNL     1       1.180   8.929  20.481  0.00  0.00    +0.000 C 
ENDBRANCH   8  11
ENDBRANCH   5   7
BRANCH   1  18
ATOM     17  C   UNL     1       5.526   4.279  14.698  0.00  0.00    +0.000 C 
ATOM     18  C   UNL     1       5.662   4.437  16.213  0.00  0.00    +0.000 C 
BRANCH  18  19
ATOM     19  N   UNL     1       6.361   5.683  16.547  0.00  0.00    +0.000 N 
ATOM     20  C   UNL     1       7.105   5.699  17.681  0.00  0.00    +0.000 A 
ATOM     21  N   UNL     1       7.402   4.710  18.498  0.00  0.00    +0.000 NA
ATOM     22  N   UNL     1       8.143   5.211  19.543  0.00  0.00    +0.000 NA
ATOM     23  C   UNL     1       8.309   6.494  19.324  0.00  0.00    +0.000 A 
ATOM     24  N   UNL     1       7.685   6.844  18.165  0.00  0.00    +0.000 N 
ATOM     25  C   UNL     1       7.712   8.150  17.567  0.00  0.00    +0.000 C 
ATOM     26  H   UNL     1       5.789   6.501  16.372  0.00  0.00    +0.000 HD
ENDBRANCH  18  19
ENDBRANCH   1  18
TORSDOF 4
ENDMDL
