MODEL 1
REMARK VINA RESULT:      -8.2      0.000      0.000
REMARK  Name = 
REMARK  5 active torsions:
REMARK  status: ('A' for Active; 'I' for Inactive)
REMARK    1  A    between atoms: C_1  and  C_2
REMARK    2  A    between atoms: N_10  and  C_11
REMARK    3  A    between atoms: N_15  and  S_16
REMARK    4  A    between atoms: S_16  and  C_19
REMARK    5  A    between atoms: C_22  and  N_23
REMARK                            x       y       z     vdW  Elec       q    Type
REMARK                         _______ _______ _______ _____ _____    ______ ____
ROOT
ATOM      1  C   UNL     1       0.960   8.794  19.458  0.00  0.00    +0.000 C 
ATOM      2  C   UNL     1       2.105   7.958  18.966  0.00  0.00    +0.000 A 
ATOM      3  C   UNL     1       2.850   8.351  17.838  0.00  0.00    +0.000 A 
ATOM      4  C   UNL     1       3.882   7.550  17.341  0.00  0.00    +0.000 A 
ATOM      5  C   UNL     1       4.171   6.369  17.996  0.00  0.00    +0.000 A 
ATOM      6  C   UNL     1       3.432   5.961  19.110  0.00  0.00    +0.000 A 
ATOM      7  C   UNL     1       2.412   6.755  19.616  0.00  0.00    +0.000 A 
ATOM      8  C   UNL     1       3.950   4.644  19.630  0.00  0.00    +0.000 C 
ATOM      9  C   UNL     1       2.924   3.661  20.215  0.00  0.00    +0.000 C 
ATOM     10  N   UNL     1       2.121   2.987  19.188  0.00  0.00    +0.000 NA
ATOM     11  C   UNL     1       1.108   2.124  19.796  0.00  0.00    +0.000 C 
ATOM     12  C   UNL     1       2.990   2.225  18.288  0.00  0.00    +0.000 C 
ATOM     13  C   UNL     1       3.887   3.174  17.507  0.00  0.00    +0.000 C 
ATOM     14  C   UNL     1       4.729   4.103  18.399  0.00  0.00    +0.000 C 
ATOM     15  N   UNL     1       5.041   5.323  17.587  0.00  0.00    +0.000 N 
ENDROOT
BRANCH  15  16
ATOM     16  S   UNL     1       6.451   5.506  16.715  0.00  0.00    +0.000 S 
ATOM     17  O   UNL     1       7.263   4.330  16.960  0.00  0.00    +0.000 OA
ATOM     18  O   UNL     1       6.160   5.922  15.358  0.00  0.00    +0.000 OA
BRANCH  16  19
ATOM     19  C   UNL     1       7.311   6.883  17.467  0.00  0.00    +0.000 A 
ATOM     20  C   UNL     1       7.161   8.163  16.926  0.00  0.00    +0.000 A 
ATOM     21  C   UNL     1       7.802   9.259  17.516  0.00  0.00    +0.000 A 
ATOM     22  C   UNL     1       8.599   9.076  18.655  0.00  0.00    +0.000 A 
ATOM     23  C   UNL     1       8.691   7.800  19.235  0.00  0.00    +0.000 A 
ATOM     24  C   UNL     1       8.040   6.707  18.647  0.00  0.00    +0.000 A 
BRANCH  22  25
ATOM     25  N   UNL     1       9.327  10.155  19.208  0.00  0.00    +0.000 N 
ATOM     26  C   UNL     1       9.362  10.616  20.501  0.00  0.00    +0.000 A 
ATOM     27  N   UNL     1      10.116  11.689  20.565  0.00  0.00    +0.000 NA
ATOM     28  N   UNL     1      10.571  11.898  19.290  0.00  0.00    +0.000 NA
ATOM     29  N   UNL     1      10.104  10.976  18.459  0.00  0.00    +0.000 NA
ENDBRANCH  22  25
ENDBRANCH  16  19
ENDBRANCH  15  16
TORSDOF 3
ENDMDL
MODEL 2
REMARK VINA RESULT:      -7.8      6.139      9.631
REMARK  Name = 
REMARK  5 active torsions:
REMARK  status: ('A' for Active; 'I' for Inactive)
REMARK    1  A    between atoms: C_1  and  C_2
REMARK    2  A    between atoms: N_10  and  C_11
REMARK    3  A    between atoms: N_15  and  S_16
REMARK    4  A    between atoms: S_16  and  C_19
REMARK    5  A    between atoms: C_22  and  N_23
REMARK                            x       y       z     vdW  Elec       q    Type
REMARK                         _______ _______ _______ _____ _____    ______ ____
ROOT
ATOM      1  C   UNL     1      -6.021  11.143  17.822  0.00  0.00    +0.000 C 
ATOM      2  C   UNL     1      -4.690  11.487  18.423  0.00  0.00    +0.000 A 
ATOM      3  C   UNL     1      -3.507  10.906  17.930  0.00  0.00    +0.000 A 
ATOM      4  C   UNL     1      -2.270  11.179  18.522  0.00  0.00    +0.000 A 
ATOM      5  C   UNL     1      -2.230  12.051  19.591  0.00  0.00    +0.000 A 
ATOM      6  C   UNL     1      -3.399  12.627  20.098  0.00  0.00    +0.000 A 
ATOM      7  C   UNL     1      -4.630  12.369  19.511  0.00  0.00    +0.000 A 
ATOM      8  C   UNL     1      -3.078  13.534  21.258  0.00  0.00    +0.000 C 
ATOM      9  C   UNL     1      -4.096  13.602  22.407  0.00  0.00    +0.000 C 
ATOM     10  N   UNL     1      -4.069  12.417  23.272  0.00  0.00    +0.000 NA
ATOM     11  C   UNL     1      -5.107  12.493  24.300  0.00  0.00    +0.000 C 
ATOM     12  C   UNL     1      -2.743  12.262  23.874  0.00  0.00    +0.000 C 
ATOM     13  C   UNL     1      -1.713  11.968  22.793  0.00  0.00    +0.000 C 
ATOM     14  C   UNL     1      -1.670  13.025  21.676  0.00  0.00    +0.000 C 
ATOM     15  N   UNL     1      -1.139  12.345  20.452  0.00  0.00    +0.000 N 
ENDROOT
BRANCH  15  16
ATOM     16  S   UNL     1       0.472  12.370  20.017  0.00  0.00    +0.000 S 
ATOM     17  O   UNL     1       0.542  12.860  18.655  0.00  0.00    +0.000 OA
ATOM     18  O   UNL     1       1.270  12.987  21.057  0.00  0.00    +0.000 OA
BRANCH  16  19
ATOM     19  C   UNL     1       0.987  10.657  19.968  0.00  0.00    +0.000 A 
ATOM     20  C   UNL     1       0.836   9.862  21.108  0.00  0.00    +0.000 A 
ATOM     21  C   UNL     1       1.205   8.512  21.081  0.00  0.00    +0.000 A 
ATOM     22  C   UNL     1       1.731   7.951  19.908  0.00  0.00    +0.000 A 
ATOM     23  C   UNL     1       1.815   8.736  18.746  0.00  0.00    +0.000 A 
ATOM     24  C   UNL     1       1.435  10.084  18.774  0.00  0.00    +0.000 A 
BRANCH  22  25
ATOM     25  N   UNL     1       2.195   6.615  19.892  0.00  0.00    +0.000 N 
ATOM     26  C   UNL     1       3.116   6.019  19.067  0.00  0.00    +0.000 A 
ATOM     27  N   UNL     1       3.199   4.739  19.352  0.00  0.00    +0.000 NA
ATOM     28  N   UNL     1       2.320   4.533  20.382  0.00  0.00    +0.000 NA
ATOM     29  N   UNL     1       1.707   5.660  20.721  0.00  0.00    +0.000 NA
ENDBRANCH  22  25
ENDBRANCH  16  19
ENDBRANCH  15  16
TORSDOF 3
ENDMDL
MODEL 3
REMARK VINA RESULT:      -7.7      0.559      1.052
REMARK  Name = 
REMARK  5 active torsions:
REMARK  status: ('A' for Active; 'I' for Inactive)
REMARK    1  A    between atoms: C_1  and  C_2
REMARK    2  A    between atoms: N_10  and  C_11
REMARK    3  A    between atoms: N_15  and  S_16
REMARK    4  A    between atoms: S_16  and  C_19
REMARK    5  A    between atoms: C_22  and  N_23
REMARK                            x       y       z     vdW  Elec       q    Type
REMARK                         _______ _______ _______ _____ _____    ______ ____
ROOT
ATOM      1  C   UNL     1       1.136   8.976  18.579  0.00  0.00    +0.000 C 
ATOM      2  C   UNL     1       2.279   8.026  18.370  0.00  0.00    +0.000 A 
ATOM      3  C   UNL     1       3.270   8.295  17.406  0.00  0.00    +0.000 A 
ATOM      4  C   UNL     1       4.307   7.388  17.167  0.00  0.00    +0.000 A 
ATOM      5  C   UNL     1       4.351   6.227  17.914  0.00  0.00    +0.000 A 
ATOM      6  C   UNL     1       3.367   5.943  18.866  0.00  0.00    +0.000 A 
ATOM      7  C   UNL     1       2.340   6.842  19.116  0.00  0.00    +0.000 A 
ATOM      8  C   UNL     1       3.650   4.622  19.535  0.00  0.00    +0.000 C 
ATOM      9  C   UNL     1       2.444   3.758  19.933  0.00  0.00    +0.000 C 
ATOM     10  N   UNL     1       1.811   3.090  18.790  0.00  0.00    +0.000 NA
ATOM     11  C   UNL     1       0.623   2.345  19.209  0.00  0.00    +0.000 C 
ATOM     12  C   UNL     1       2.774   2.212  18.122  0.00  0.00    +0.000 C 
ATOM     13  C   UNL     1       3.892   3.042  17.506  0.00  0.00    +0.000 C 
ATOM     14  C   UNL     1       4.613   3.952  18.516  0.00  0.00    +0.000 C 
ATOM     15  N   UNL     1       5.190   5.095  17.738  0.00  0.00    +0.000 N 
ENDROOT
BRANCH  15  16
ATOM     16  S   UNL     1       6.759   5.117  17.172  0.00  0.00    +0.000 S 
ATOM     17  O   UNL     1       7.483   4.074  17.871  0.00  0.00    +0.000 OA
ATOM     18  O   UNL     1       6.776   5.172  15.724  0.00  0.00    +0.000 OA
BRANCH  16  19
ATOM     19  C   UNL     1       7.452   6.672  17.721  0.00  0.00    +0.000 A 
ATOM     20  C   UNL     1       8.181   6.715  18.914  0.00  0.00    +0.000 A 
ATOM     21  C   UNL     1       8.756   7.916  19.347  0.00  0.00    +0.000 A 
ATOM     22  C   UNL     1       8.601   9.083  18.585  0.00  0.00    +0.000 A 
ATOM     23  C   UNL     1       7.928   9.019  17.354  0.00  0.00    +0.000 A 
ATOM     24  C   UNL     1       7.362   7.813  16.919  0.00  0.00    +0.000 A 
BRANCH  22  25
ATOM     25  N   UNL     1       9.096  10.322  19.055  0.00  0.00    +0.000 N 
ATOM     26  C   UNL     1       9.386  10.719  20.337  0.00  0.00    +0.000 A 
ATOM     27  N   UNL     1       9.756  11.979  20.335  0.00  0.00    +0.000 NA
ATOM     28  N   UNL     1       9.706  12.376  19.025  0.00  0.00    +0.000 NA
ATOM     29  N   UNL     1       9.311  11.383  18.239  0.00  0.00    +0.000 NA
ENDBRANCH  22  25
ENDBRANCH  16  19
ENDBRANCH  15  16
TORSDOF 3
ENDMDL
MODEL 4
REMARK VINA RESULT:      -7.7      6.491      9.898
REMARK  Name = 
REMARK  5 active torsions:
REMARK  status: ('A' for Active; 'I' for Inactive)
REMARK    1  A    between atoms: C_1  and  C_2
REMARK    2  A    between atoms: N_10  and  C_11
REMARK    3  A    between atoms: N_15  and  S_16
REMARK    4  A    between atoms: S_16  and  C_19
REMARK    5  A    between atoms: C_22  and  N_23
REMARK                            x       y       z     vdW  Elec       q    Type
REMARK                         _______ _______ _______ _____ _____    ______ ____
ROOT
ATOM      1  C   UNL     1      -6.042  11.496  17.590  0.00  0.00    +0.000 C 
ATOM      2  C   UNL     1      -4.786  11.811  18.349  0.00  0.00    +0.000 A 
ATOM      3  C   UNL     1      -3.552  11.260  17.955  0.00  0.00    +0.000 A 
ATOM      4  C   UNL     1      -2.387  11.503  18.689  0.00  0.00    +0.000 A 
ATOM      5  C   UNL     1      -2.470  12.317  19.802  0.00  0.00    +0.000 A 
ATOM      6  C   UNL     1      -3.692  12.861  20.210  0.00  0.00    +0.000 A 
ATOM      7  C   UNL     1      -4.850  12.632  19.482  0.00  0.00    +0.000 A 
ATOM      8  C   UNL     1      -3.504  13.705  21.446  0.00  0.00    +0.000 C 
ATOM      9  C   UNL     1      -4.639  13.707  22.481  0.00  0.00    +0.000 C 
ATOM     10  N   UNL     1      -4.695  12.477  23.279  0.00  0.00    +0.000 NA
ATOM     11  C   UNL     1      -5.838  12.494  24.192  0.00  0.00    +0.000 C 
ATOM     12  C   UNL     1      -3.439  12.294  24.011  0.00  0.00    +0.000 C 
ATOM     13  C   UNL     1      -2.298  12.061  23.032  0.00  0.00    +0.000 C 
ATOM     14  C   UNL     1      -2.144  13.178  21.984  0.00  0.00    +0.000 C 
ATOM     15  N   UNL     1      -1.479  12.566  20.789  0.00  0.00    +0.000 N 
ENDROOT
BRANCH  15  16
ATOM     16  S   UNL     1       0.168  12.618  20.532  0.00  0.00    +0.000 S 
ATOM     17  O   UNL     1       0.381  13.218  19.230  0.00  0.00    +0.000 OA
ATOM     18  O   UNL     1       0.848  13.145  21.698  0.00  0.00    +0.000 OA
BRANCH  16  19
ATOM     19  C   UNL     1       0.693  10.913  20.398  0.00  0.00    +0.000 A 
ATOM     20  C   UNL     1       1.116  10.421  19.160  0.00  0.00    +0.000 A 
ATOM     21  C   UNL     1       1.558   9.098  19.039  0.00  0.00    +0.000 A 
ATOM     22  C   UNL     1       1.577   8.259  20.163  0.00  0.00    +0.000 A 
ATOM     23  C   UNL     1       1.216   8.778  21.418  0.00  0.00    +0.000 A 
ATOM     24  C   UNL     1       0.784  10.106  21.536  0.00  0.00    +0.000 A 
BRANCH  22  25
ATOM     25  N   UNL     1       1.931   6.896  20.040  0.00  0.00    +0.000 N 
ATOM     26  C   UNL     1       1.517   5.814  20.777  0.00  0.00    +0.000 A 
ATOM     27  N   UNL     1       2.149   4.737  20.371  0.00  0.00    +0.000 NA
ATOM     28  N   UNL     1       2.968   5.150  19.354  0.00  0.00    +0.000 NA
ATOM     29  N   UNL     1       2.845   6.454  19.141  0.00  0.00    +0.000 NA
ENDBRANCH  22  25
ENDBRANCH  16  19
ENDBRANCH  15  16
TORSDOF 3
ENDMDL
MODEL 5
REMARK VINA RESULT:      -7.7      5.126      8.520
REMARK  Name = 
REMARK  5 active torsions:
REMARK  status: ('A' for Active; 'I' for Inactive)
REMARK    1  A    between atoms: C_1  and  C_2
REMARK    2  A    between atoms: N_10  and  C_11
REMARK    3  A    between atoms: N_15  and  S_16
REMARK    4  A    between atoms: S_16  and  C_19
REMARK    5  A    between atoms: C_22  and  N_23
REMARK                            x       y       z     vdW  Elec       q    Type
REMARK                         _______ _______ _______ _____ _____    ______ ____
ROOT
ATOM      1  C   UNL     1      -3.545  11.198  15.858  0.00  0.00    +0.000 C 
ATOM      2  C   UNL     1      -2.610  10.951  17.005  0.00  0.00    +0.000 A 
ATOM      3  C   UNL     1      -2.733   9.793  17.796  0.00  0.00    +0.000 A 
ATOM      4  C   UNL     1      -1.901   9.583  18.900  0.00  0.00    +0.000 A 
ATOM      5  C   UNL     1      -0.939  10.530  19.188  0.00  0.00    +0.000 A 
ATOM      6  C   UNL     1      -0.813  11.690  18.417  0.00  0.00    +0.000 A 
ATOM      7  C   UNL     1      -1.628  11.901  17.314  0.00  0.00    +0.000 A 
ATOM      8  C   UNL     1       0.308  12.550  18.942  0.00  0.00    +0.000 C 
ATOM      9  C   UNL     1       0.130  14.074  18.857  0.00  0.00    +0.000 C 
ATOM     10  N   UNL     1      -0.801  14.603  19.860  0.00  0.00    +0.000 NA
ATOM     11  C   UNL     1      -0.997  16.043  19.687  0.00  0.00    +0.000 C 
ATOM     12  C   UNL     1      -0.318  14.296  21.208  0.00  0.00    +0.000 C 
ATOM     13  C   UNL     1      -0.331  12.791  21.434  0.00  0.00    +0.000 C 
ATOM     14  C   UNL     1       0.476  12.002  20.387  0.00  0.00    +0.000 C 
ATOM     15  N   UNL     1      -0.107  10.623  20.335  0.00  0.00    +0.000 N 
ENDROOT
BRANCH  15  16
ATOM     16  S   UNL     1       0.498   9.340  21.214  0.00  0.00    +0.000 S 
ATOM     17  O   UNL     1       1.407   9.887  22.202  0.00  0.00    +0.000 OA
ATOM     18  O   UNL     1      -0.573   8.453  21.620  0.00  0.00    +0.000 OA
BRANCH  16  19
ATOM     19  C   UNL     1       1.498   8.397  20.070  0.00  0.00    +0.000 A 
ATOM     20  C   UNL     1       1.876   7.092  20.403  0.00  0.00    +0.000 A 
ATOM     21  C   UNL     1       2.633   6.327  19.509  0.00  0.00    +0.000 A 
ATOM     22  C   UNL     1       3.019   6.867  18.274  0.00  0.00    +0.000 A 
ATOM     23  C   UNL     1       2.579   8.152  17.915  0.00  0.00    +0.000 A 
ATOM     24  C   UNL     1       1.812   8.912  18.809  0.00  0.00    +0.000 A 
BRANCH  22  25
ATOM     25  N   UNL     1       3.862   6.141  17.400  0.00  0.00    +0.000 N 
ATOM     26  C   UNL     1       4.017   4.784  17.261  0.00  0.00    +0.000 A 
ATOM     27  N   UNL     1       4.959   4.537  16.380  0.00  0.00    +0.000 NA
ATOM     28  N   UNL     1       5.396   5.762  15.953  0.00  0.00    +0.000 NA
ATOM     29  N   UNL     1       4.739   6.742  16.560  0.00  0.00    +0.000 NA
ENDBRANCH  22  25
ENDBRANCH  16  19
ENDBRANCH  15  16
TORSDOF 3
ENDMDL
MODEL 6
REMARK VINA RESULT:      -7.5      5.781      9.297
REMARK  Name = 
REMARK  5 active torsions:
REMARK  status: ('A' for Active; 'I' for Inactive)
REMARK    1  A    between atoms: C_1  and  C_2
REMARK    2  A    between atoms: N_10  and  C_11
REMARK    3  A    between atoms: N_15  and  S_16
REMARK    4  A    between atoms: S_16  and  C_19
REMARK    5  A    between atoms: C_22  and  N_23
REMARK                            x       y       z     vdW  Elec       q    Type
REMARK                         _______ _______ _______ _____ _____    ______ ____
ROOT
ATOM      1  C   UNL     1      -5.272  11.016  17.063  0.00  0.00    +0.000 C 
ATOM      2  C   UNL     1      -3.998  11.255  17.818  0.00  0.00    +0.000 A 
ATOM      3  C   UNL     1      -2.832  10.529  17.509  0.00  0.00    +0.000 A 
ATOM      4  C   UNL     1      -1.656  10.706  18.244  0.00  0.00    +0.000 A 
ATOM      5  C   UNL     1      -1.656  11.629  19.271  0.00  0.00    +0.000 A 
ATOM      6  C   UNL     1      -2.810  12.349  19.596  0.00  0.00    +0.000 A 
ATOM      7  C   UNL     1      -3.978  12.186  18.865  0.00  0.00    +0.000 A 
ATOM      8  C   UNL     1      -2.539  13.283  20.748  0.00  0.00    +0.000 C 
ATOM      9  C   UNL     1      -3.679  13.519  21.750  0.00  0.00    +0.000 C 
ATOM     10  N   UNL     1      -3.890  12.389  22.661  0.00  0.00    +0.000 NA
ATOM     11  C   UNL     1      -5.035  12.629  23.541  0.00  0.00    +0.000 C 
ATOM     12  C   UNL     1      -2.675  12.134  23.438  0.00  0.00    +0.000 C 
ATOM     13  C   UNL     1      -1.556  11.674  22.514  0.00  0.00    +0.000 C 
ATOM     14  C   UNL     1      -1.259  12.657  21.367  0.00  0.00    +0.000 C 
ATOM     15  N   UNL     1      -0.656  11.858  20.253  0.00  0.00    +0.000 N 
ENDROOT
BRANCH  15  16
ATOM     16  S   UNL     1       0.990  11.692  20.032  0.00  0.00    +0.000 S 
ATOM     17  O   UNL     1       1.291  12.151  18.690  0.00  0.00    +0.000 OA
ATOM     18  O   UNL     1       1.712  12.230  21.167  0.00  0.00    +0.000 OA
BRANCH  16  19
ATOM     19  C   UNL     1       1.307   9.932  20.050  0.00  0.00    +0.000 A 
ATOM     20  C   UNL     1       1.829   9.317  18.908  0.00  0.00    +0.000 A 
ATOM     21  C   UNL     1       2.112   7.946  18.911  0.00  0.00    +0.000 A 
ATOM     22  C   UNL     1       1.871   7.182  20.061  0.00  0.00    +0.000 A 
ATOM     23  C   UNL     1       1.412   7.817  21.228  0.00  0.00    +0.000 A 
ATOM     24  C   UNL     1       1.139   9.191  21.224  0.00  0.00    +0.000 A 
BRANCH  22  25
ATOM     25  N   UNL     1       2.064   5.780  20.051  0.00  0.00    +0.000 N 
ATOM     26  C   UNL     1       1.249   4.782  20.525  0.00  0.00    +0.000 A 
ATOM     27  N   UNL     1       1.845   3.621  20.376  0.00  0.00    +0.000 NA
ATOM     28  N   UNL     1       3.051   3.897  19.789  0.00  0.00    +0.000 NA
ATOM     29  N   UNL     1       3.196   5.200  19.584  0.00  0.00    +0.000 NA
ENDBRANCH  22  25
ENDBRANCH  16  19
ENDBRANCH  15  16
TORSDOF 3
ENDMDL
MODEL 7
REMARK VINA RESULT:      -7.4      5.160      8.520
REMARK  Name = 
REMARK  5 active torsions:
REMARK  status: ('A' for Active; 'I' for Inactive)
REMARK    1  A    between atoms: C_1  and  C_2
REMARK    2  A    between atoms: N_10  and  C_11
REMARK    3  A    between atoms: N_15  and  S_16
REMARK    4  A    between atoms: S_16  and  C_19
REMARK    5  A    between atoms: C_22  and  N_23
REMARK                            x       y       z     vdW  Elec       q    Type
REMARK                         _______ _______ _______ _____ _____    ______ ____
ROOT
ATOM      1  C   UNL     1      -3.295  11.157  15.786  0.00  0.00    +0.000 C 
ATOM      2  C   UNL     1      -2.422  10.902  16.979  0.00  0.00    +0.000 A 
ATOM      3  C   UNL     1      -2.591   9.743  17.760  0.00  0.00    +0.000 A 
ATOM      4  C   UNL     1      -1.818   9.526  18.904  0.00  0.00    +0.000 A 
ATOM      5  C   UNL     1      -0.866  10.467  19.243  0.00  0.00    +0.000 A 
ATOM      6  C   UNL     1      -0.696  11.628  18.483  0.00  0.00    +0.000 A 
ATOM      7  C   UNL     1      -1.452  11.847  17.340  0.00  0.00    +0.000 A 
ATOM      8  C   UNL     1       0.402  12.482  19.067  0.00  0.00    +0.000 C 
ATOM      9  C   UNL     1       0.236  14.006  18.977  0.00  0.00    +0.000 C 
ATOM     10  N   UNL     1      -0.743  14.538  19.932  0.00  0.00    +0.000 NA
ATOM     11  C   UNL     1      -0.922  15.979  19.753  0.00  0.00    +0.000 C 
ATOM     12  C   UNL     1      -0.331  14.225  21.303  0.00  0.00    +0.000 C 
ATOM     13  C   UNL     1      -0.363  12.720  21.523  0.00  0.00    +0.000 C 
ATOM     14  C   UNL     1       0.493  11.930  20.517  0.00  0.00    +0.000 C 
ATOM     15  N   UNL     1      -0.094  10.554  20.432  0.00  0.00    +0.000 N 
ENDROOT
BRANCH  15  16
ATOM     16  S   UNL     1       0.459   9.266  21.338  0.00  0.00    +0.000 S 
ATOM     17  O   UNL     1       1.369   9.799  22.331  0.00  0.00    +0.000 OA
ATOM     18  O   UNL     1      -0.644   8.417  21.739  0.00  0.00    +0.000 OA
BRANCH  16  19
ATOM     19  C   UNL     1       1.447   8.277  20.222  0.00  0.00    +0.000 A 
ATOM     20  C   UNL     1       1.846   8.818  18.996  0.00  0.00    +0.000 A 
ATOM     21  C   UNL     1       2.644   8.072  18.121  0.00  0.00    +0.000 A 
ATOM     22  C   UNL     1       3.047   6.775  18.471  0.00  0.00    +0.000 A 
ATOM     23  C   UNL     1       2.701   6.262  19.732  0.00  0.00    +0.000 A 
ATOM     24  C   UNL     1       1.910   7.016  20.610  0.00  0.00    +0.000 A 
BRANCH  22  25
ATOM     25  N   UNL     1       3.774   5.974  17.560  0.00  0.00    +0.000 N 
ATOM     26  C   UNL     1       4.769   6.331  16.682  0.00  0.00    +0.000 A 
ATOM     27  N   UNL     1       5.122   5.286  15.970  0.00  0.00    +0.000 NA
ATOM     28  N   UNL     1       4.341   4.253  16.416  0.00  0.00    +0.000 NA
ATOM     29  N   UNL     1       3.522   4.655  17.380  0.00  0.00    +0.000 NA
ENDBRANCH  22  25
ENDBRANCH  16  19
ENDBRANCH  15  16
TORSDOF 3
ENDMDL
MODEL 8
REMARK VINA RESULT:      -7.3      5.037      8.006
REMARK  Name = 
REMARK  5 active torsions:
REMARK  status: ('A' for Active; 'I' for Inactive)
REMARK    1  A    between atoms: C_1  and  C_2
REMARK    2  A    between atoms: N_10  and  C_11
REMARK    3  A    between atoms: N_15  and  S_16
REMARK    4  A    between atoms: S_16  and  C_19
REMARK    5  A    between atoms: C_22  and  N_23
REMARK                            x       y       z     vdW  Elec       q    Type
REMARK                         _______ _______ _______ _____ _____    ______ ____
ROOT
ATOM      1  C   UNL     1       1.151  15.628  18.410  0.00  0.00    +0.000 C 
ATOM      2  C   UNL     1       0.871  14.242  18.912  0.00  0.00    +0.000 A 
ATOM      3  C   UNL     1       1.898  13.462  19.478  0.00  0.00    +0.000 A 
ATOM      4  C   UNL     1       1.657  12.150  19.898  0.00  0.00    +0.000 A 
ATOM      5  C   UNL     1       0.381  11.640  19.764  0.00  0.00    +0.000 A 
ATOM      6  C   UNL     1      -0.645  12.401  19.194  0.00  0.00    +0.000 A 
ATOM      7  C   UNL     1      -0.417  13.706  18.784  0.00  0.00    +0.000 A 
ATOM      8  C   UNL     1      -1.930  11.613  19.167  0.00  0.00    +0.000 C 
ATOM      9  C   UNL     1      -2.869  11.830  17.971  0.00  0.00    +0.000 C 
ATOM     10  N   UNL     1      -2.397  11.182  16.742  0.00  0.00    +0.000 NA
ATOM     11  C   UNL     1      -3.281  11.484  15.615  0.00  0.00    +0.000 C 
ATOM     12  C   UNL     1      -2.282   9.736  16.946  0.00  0.00    +0.000 C 
ATOM     13  C   UNL     1      -1.196   9.443  17.972  0.00  0.00    +0.000 C 
ATOM     14  C   UNL     1      -1.410  10.156  19.319  0.00  0.00    +0.000 C 
ATOM     15  N   UNL     1      -0.061  10.303  19.953  0.00  0.00    +0.000 N 
ENDROOT
BRANCH  15  16
ATOM     16  S   UNL     1       0.555   9.215  21.058  0.00  0.00    +0.000 S 
ATOM     17  O   UNL     1       1.440   9.952  21.938  0.00  0.00    +0.000 OA
ATOM     18  O   UNL     1      -0.504   8.394  21.607  0.00  0.00    +0.000 OA
BRANCH  16  19
ATOM     19  C   UNL     1       1.590   8.101  20.115  0.00  0.00    +0.000 A 
ATOM     20  C   UNL     1       1.869   6.828  20.623  0.00  0.00    +0.000 A 
ATOM     21  C   UNL     1       2.651   5.930  19.888  0.00  0.00    +0.000 A 
ATOM     22  C   UNL     1       3.161   6.305  18.637  0.00  0.00    +0.000 A 
ATOM     23  C   UNL     1       2.821   7.558  18.100  0.00  0.00    +0.000 A 
ATOM     24  C   UNL     1       2.029   8.450  18.835  0.00  0.00    +0.000 A 
BRANCH  22  25
ATOM     25  N   UNL     1       4.030   5.445  17.925  0.00  0.00    +0.000 N 
ATOM     26  C   UNL     1       3.744   4.304  17.216  0.00  0.00    +0.000 A 
ATOM     27  N   UNL     1       4.859   3.773  16.769  0.00  0.00    +0.000 NA
ATOM     28  N   UNL     1       5.861   4.602  17.198  0.00  0.00    +0.000 NA
ATOM     29  N   UNL     1       5.373   5.620  17.896  0.00  0.00    +0.000 NA
ENDBRANCH  22  25
ENDBRANCH  16  19
ENDBRANCH  15  16
TORSDOF 3
ENDMDL
MODEL 9
REMARK VINA RESULT:      -7.1      5.163      8.001
REMARK  Name = 
REMARK  5 active torsions:
REMARK  status: ('A' for Active; 'I' for Inactive)
REMARK    1  A    between atoms: C_1  and  C_2
REMARK    2  A    between atoms: N_10  and  C_11
REMARK    3  A    between atoms: N_15  and  S_16
REMARK    4  A    between atoms: S_16  and  C_19
REMARK    5  A    between atoms: C_22  and  N_23
REMARK                            x       y       z     vdW  Elec       q    Type
REMARK                         _______ _______ _______ _____ _____    ______ ____
ROOT
ATOM      1  C   UNL     1       1.224  15.662  18.849  0.00  0.00    +0.000 C 
ATOM      2  C   UNL     1       0.952  14.247  19.268  0.00  0.00    +0.000 A 
ATOM      3  C   UNL     1       1.979  13.445  19.801  0.00  0.00    +0.000 A 
ATOM      4  C   UNL     1       1.747  12.109  20.141  0.00  0.00    +0.000 A 
ATOM      5  C   UNL     1       0.477  11.596  19.962  0.00  0.00    +0.000 A 
ATOM      6  C   UNL     1      -0.549  12.378  19.424  0.00  0.00    +0.000 A 
ATOM      7  C   UNL     1      -0.329  13.708  19.092  0.00  0.00    +0.000 A 
ATOM      8  C   UNL     1      -1.825  11.581  19.336  0.00  0.00    +0.000 C 
ATOM      9  C   UNL     1      -2.752  11.859  18.142  0.00  0.00    +0.000 C 
ATOM     10  N   UNL     1      -2.259  11.286  16.884  0.00  0.00    +0.000 NA
ATOM     11  C   UNL     1      -3.132  11.644  15.765  0.00  0.00    +0.000 C 
ATOM     12  C   UNL     1      -2.131   9.832  17.007  0.00  0.00    +0.000 C 
ATOM     13  C   UNL     1      -1.056   9.491  18.028  0.00  0.00    +0.000 C 
ATOM     14  C   UNL     1      -1.293  10.123  19.411  0.00  0.00    +0.000 C 
ATOM     15  N   UNL     1       0.047  10.247  20.070  0.00  0.00    +0.000 N 
ENDROOT
BRANCH  15  16
ATOM     16  S   UNL     1       0.660   9.103  21.118  0.00  0.00    +0.000 S 
ATOM     17  O   UNL     1       1.619   9.774  21.973  0.00  0.00    +0.000 OA
ATOM     18  O   UNL     1      -0.410   8.318  21.697  0.00  0.00    +0.000 OA
BRANCH  16  19
ATOM     19  C   UNL     1       1.596   7.966  20.101  0.00  0.00    +0.000 A 
ATOM     20  C   UNL     1       2.165   8.421  18.908  0.00  0.00    +0.000 A 
ATOM     21  C   UNL     1       2.926   7.556  18.113  0.00  0.00    +0.000 A 
ATOM     22  C   UNL     1       3.118   6.225  18.511  0.00  0.00    +0.000 A 
ATOM     23  C   UNL     1       2.603   5.791  19.743  0.00  0.00    +0.000 A 
ATOM     24  C   UNL     1       1.850   6.664  20.542  0.00  0.00    +0.000 A 
BRANCH  22  25
ATOM     25  N   UNL     1       3.804   5.314  17.674  0.00  0.00    +0.000 N 
ATOM     26  C   UNL     1       3.947   3.953  17.792  0.00  0.00    +0.000 A 
ATOM     27  N   UNL     1       4.724   3.507  16.833  0.00  0.00    +0.000 NA
ATOM     28  N   UNL     1       5.067   4.607  16.094  0.00  0.00    +0.000 NA
ATOM     29  N   UNL     1       4.516   5.708  16.589  0.00  0.00    +0.000 NA
ENDBRANCH  22  25
ENDBRANCH  16  19
ENDBRANCH  15  16
TORSDOF 3
ENDMDL
