MODEL 1
REMARK VINA RESULT:      -8.6      0.000      0.000
REMARK  Name = 
REMARK  7 active torsions:
REMARK  status: ('A' for Active; 'I' for Inactive)
REMARK    1  A    between atoms: C_1  and  C_2
REMARK    2  A    between atoms: C_2  and  S_3
REMARK    3  A    between atoms: C_2  and  C_10
REMARK    4  A    between atoms: S_3  and  C_4
REMARK    5  A    between atoms: N_8  and  C_9
REMARK    6  A    between atoms: C_14  and  N_15
REMARK    7  A    between atoms: C_16  and  C_18
REMARK                            x       y       z     vdW  Elec       q    Type
REMARK                         _______ _______ _______ _____ _____    ______ ____
ROOT
ATOM      1  C   UNL     1       4.638   5.875  17.154  0.00  0.00    +0.000 A 
ATOM      2  C   UNL     1       4.030   4.609  17.180  0.00  0.00    +0.000 A 
ATOM      3  C   UNL     1       2.753   4.454  17.681  0.00  0.00    +0.000 A 
ATOM      4  C   UNL     1       2.067   5.559  18.186  0.00  0.00    +0.000 A 
ATOM      5  C   UNL     1       2.628   6.848  18.235  0.00  0.00    +0.000 A 
ATOM      6  C   UNL     1       3.922   6.995  17.685  0.00  0.00    +0.000 A 
ENDROOT
BRANCH   5   7
ATOM      7  N   UNL     1       1.921   7.970  18.826  0.00  0.00    +0.000 N 
ATOM      8  C   UNL     1       1.516   7.993  20.165  0.00  0.00    +0.000 C 
ATOM      9  O   UNL     1       1.766   7.102  20.977  0.00  0.00    +0.000 OA
ATOM     10  H   UNL     1       1.796   8.812  18.273  0.00  0.00    +0.000 HD
BRANCH   8  11
ATOM     11  C   UNL     1       0.712   9.152  20.777  0.00  0.00    +0.000 C 
ATOM     12  N   UNL     1       0.939  10.434  20.598  0.00  0.00    +0.000 NA
ATOM     13  C   UNL     1       0.096  11.321  21.369  0.00  0.00    +0.000 A 
ATOM     14  C   UNL     1      -0.147  12.634  20.961  0.00  0.00    +0.000 A 
ATOM     15  C   UNL     1      -1.061  13.453  21.653  0.00  0.00    +0.000 A 
ATOM     16  C   UNL     1      -1.735  12.979  22.780  0.00  0.00    +0.000 A 
ATOM     17  C   UNL     1      -1.469  11.698  23.241  0.00  0.00    +0.000 A 
ATOM     18  C   UNL     1      -0.565  10.887  22.544  0.00  0.00    +0.000 A 
ATOM     19  C   UNL     1      -0.334   9.473  22.976  0.00  0.00    +0.000 C 
ATOM     20  C   UNL     1      -0.424   8.671  21.698  0.00  0.00    +0.000 C 
ENDBRANCH   8  11
ENDBRANCH   5   7
BRANCH   1  22
ATOM     21  C   UNL     1       7.123   6.612  17.413  0.00  0.00    +0.000 C 
ATOM     22  C   UNL     1       6.053   5.920  16.576  0.00  0.00    +0.000 C 
BRANCH  22  23
ATOM     23  S   UNL     1       6.575   4.325  15.836  0.00  0.00    +0.000 S 
BRANCH  23  24
ATOM     24  C   UNL     1       7.181   4.772  14.291  0.00  0.00    +0.000 A 
ATOM     25  N   UNL     1       8.138   5.635  14.043  0.00  0.00    +0.000 NA
ATOM     26  N   UNL     1       8.295   5.712  12.680  0.00  0.00    +0.000 NA
ATOM     27  C   UNL     1       7.420   4.899  12.137  0.00  0.00    +0.000 A 
ATOM     28  N   UNL     1       6.684   4.298  13.113  0.00  0.00    +0.000 N 
ATOM     29  C   UNL     1       5.604   3.373  12.879  0.00  0.00    +0.000 C 
ENDBRANCH  23  24
ENDBRANCH  22  23
ENDBRANCH   1  22
TORSDOF 5
ENDMDL
MODEL 2
REMARK VINA RESULT:      -8.5      0.956      1.511
REMARK  Name = 
REMARK  7 active torsions:
REMARK  status: ('A' for Active; 'I' for Inactive)
REMARK    1  A    between atoms: C_1  and  C_2
REMARK    2  A    between atoms: C_2  and  S_3
REMARK    3  A    between atoms: C_2  and  C_10
REMARK    4  A    between atoms: S_3  and  C_4
REMARK    5  A    between atoms: N_8  and  C_9
REMARK    6  A    between atoms: C_14  and  N_15
REMARK    7  A    between atoms: C_16  and  C_18
REMARK                            x       y       z     vdW  Elec       q    Type
REMARK                         _______ _______ _______ _____ _____    ______ ____
ROOT
ATOM      1  C   UNL     1       4.554   5.053  17.282  0.00  0.00    +0.000 A 
ATOM      2  C   UNL     1       3.813   3.868  17.405  0.00  0.00    +0.000 A 
ATOM      3  C   UNL     1       2.506   3.900  17.849  0.00  0.00    +0.000 A 
ATOM      4  C   UNL     1       1.922   5.117  18.200  0.00  0.00    +0.000 A 
ATOM      5  C   UNL     1       2.616   6.340  18.145  0.00  0.00    +0.000 A 
ATOM      6  C   UNL     1       3.941   6.292  17.653  0.00  0.00    +0.000 A 
ENDROOT
BRANCH   5   7
ATOM      7  N   UNL     1       2.010   7.586  18.577  0.00  0.00    +0.000 N 
ATOM      8  C   UNL     1       1.629   7.827  19.901  0.00  0.00    +0.000 C 
ATOM      9  O   UNL     1       1.820   7.040  20.828  0.00  0.00    +0.000 OA
ATOM     10  H   UNL     1       1.943   8.351  17.913  0.00  0.00    +0.000 HD
BRANCH   8  11
ATOM     11  C   UNL     1       0.929   9.121  20.350  0.00  0.00    +0.000 C 
ATOM     12  N   UNL     1       0.198   9.273  21.432  0.00  0.00    +0.000 NA
ATOM     13  C   UNL     1      -0.431  10.567  21.571  0.00  0.00    +0.000 A 
ATOM     14  C   UNL     1      -0.806  11.066  22.820  0.00  0.00    +0.000 A 
ATOM     15  C   UNL     1      -1.310  12.374  22.959  0.00  0.00    +0.000 A 
ATOM     16  C   UNL     1      -1.468  13.202  21.847  0.00  0.00    +0.000 A 
ATOM     17  C   UNL     1      -1.159  12.712  20.587  0.00  0.00    +0.000 A 
ATOM     18  C   UNL     1      -0.650  11.414  20.457  0.00  0.00    +0.000 A 
ATOM     19  C   UNL     1      -0.229  10.901  19.116  0.00  0.00    +0.000 C 
ATOM     20  C   UNL     1       1.129  10.283  19.361  0.00  0.00    +0.000 C 
ENDBRANCH   8  11
ENDBRANCH   5   7
BRANCH   1  22
ATOM     21  C   UNL     1       7.090   4.828  17.833  0.00  0.00    +0.000 C 
ATOM     22  C   UNL     1       5.989   4.890  16.779  0.00  0.00    +0.000 C 
BRANCH  22  23
ATOM     23  S   UNL     1       6.142   3.645  15.441  0.00  0.00    +0.000 S 
BRANCH  23  24
ATOM     24  C   UNL     1       7.011   4.475  14.212  0.00  0.00    +0.000 A 
ATOM     25  N   UNL     1       7.887   5.436  14.383  0.00  0.00    +0.000 NA
ATOM     26  N   UNL     1       8.327   5.834  13.143  0.00  0.00    +0.000 NA
ATOM     27  C   UNL     1       7.696   5.107  12.251  0.00  0.00    +0.000 A 
ATOM     28  N   UNL     1       6.842   4.250  12.877  0.00  0.00    +0.000 N 
ATOM     29  C   UNL     1       5.959   3.329  12.206  0.00  0.00    +0.000 C 
ENDBRANCH  23  24
ENDBRANCH  22  23
ENDBRANCH   1  22
TORSDOF 5
ENDMDL
MODEL 3
REMARK VINA RESULT:      -8.4      6.066      8.594
REMARK  Name = 
REMARK  7 active torsions:
REMARK  status: ('A' for Active; 'I' for Inactive)
REMARK    1  A    between atoms: C_1  and  C_2
REMARK    2  A    between atoms: C_2  and  S_3
REMARK    3  A    between atoms: C_2  and  C_10
REMARK    4  A    between atoms: S_3  and  C_4
REMARK    5  A    between atoms: N_8  and  C_9
REMARK    6  A    between atoms: C_14  and  N_15
REMARK    7  A    between atoms: C_16  and  C_18
REMARK                            x       y       z     vdW  Elec       q    Type
REMARK                         _______ _______ _______ _____ _____    ______ ____
ROOT
ATOM      1  C   UNL     1       5.944   6.221  17.518  0.00  0.00    +0.000 A 
ATOM      2  C   UNL     1       6.700   5.346  18.314  0.00  0.00    +0.000 A 
ATOM      3  C   UNL     1       7.875   5.771  18.903  0.00  0.00    +0.000 A 
ATOM      4  C   UNL     1       8.327   7.073  18.690  0.00  0.00    +0.000 A 
ATOM      5  C   UNL     1       7.646   7.991  17.869  0.00  0.00    +0.000 A 
ATOM      6  C   UNL     1       6.428   7.551  17.304  0.00  0.00    +0.000 A 
ENDROOT
BRANCH   5   7
ATOM      7  N   UNL     1       8.170   9.321  17.607  0.00  0.00    +0.000 N 
ATOM      8  C   UNL     1       8.885  10.057  18.558  0.00  0.00    +0.000 C 
ATOM      9  O   UNL     1       9.187   9.633  19.674  0.00  0.00    +0.000 OA
ATOM     10  H   UNL     1       8.095   9.697  16.668  0.00  0.00    +0.000 HD
BRANCH   8  11
ATOM     11  C   UNL     1       9.385  11.489  18.306  0.00  0.00    +0.000 C 
ATOM     12  N   UNL     1       8.638  12.532  18.020  0.00  0.00    +0.000 NA
ATOM     13  C   UNL     1       9.368  13.747  17.731  0.00  0.00    +0.000 A 
ATOM     14  C   UNL     1       8.783  15.005  17.895  0.00  0.00    +0.000 A 
ATOM     15  C   UNL     1       9.536  16.184  17.723  0.00  0.00    +0.000 A 
ATOM     16  C   UNL     1      10.883  16.127  17.365  0.00  0.00    +0.000 A 
ATOM     17  C   UNL     1      11.474  14.893  17.139  0.00  0.00    +0.000 A 
ATOM     18  C   UNL     1      10.722  13.725  17.319  0.00  0.00    +0.000 A 
ATOM     19  C   UNL     1      11.367  12.383  17.165  0.00  0.00    +0.000 C 
ATOM     20  C   UNL     1      10.917  11.609  18.383  0.00  0.00    +0.000 C 
ENDBRANCH   8  11
ENDBRANCH   5   7
BRANCH   1  22
ATOM     21  C   UNL     1       4.774   4.274  16.244  0.00  0.00    +0.000 C 
ATOM     22  C   UNL     1       4.664   5.636  16.921  0.00  0.00    +0.000 C 
BRANCH  22  23
ATOM     23  S   UNL     1       3.208   5.827  18.020  0.00  0.00    +0.000 S 
BRANCH  23  24
ATOM     24  C   UNL     1       2.568   4.237  18.128  0.00  0.00    +0.000 A 
ATOM     25  N   UNL     1       1.503   3.776  17.514  0.00  0.00    +0.000 NA
ATOM     26  N   UNL     1       1.331   2.466  17.892  0.00  0.00    +0.000 NA
ATOM     27  C   UNL     1       2.293   2.170  18.734  0.00  0.00    +0.000 A 
ATOM     28  N   UNL     1       3.086   3.261  18.927  0.00  0.00    +0.000 N 
ATOM     29  C   UNL     1       4.217   3.309  19.819  0.00  0.00    +0.000 C 
ENDBRANCH  23  24
ENDBRANCH  22  23
ENDBRANCH   1  22
TORSDOF 5
ENDMDL
MODEL 4
REMARK VINA RESULT:      -8.4      3.765      4.987
REMARK  Name = 
REMARK  7 active torsions:
REMARK  status: ('A' for Active; 'I' for Inactive)
REMARK    1  A    between atoms: C_1  and  C_2
REMARK    2  A    between atoms: C_2  and  S_3
REMARK    3  A    between atoms: C_2  and  C_10
REMARK    4  A    between atoms: S_3  and  C_4
REMARK    5  A    between atoms: N_8  and  C_9
REMARK    6  A    between atoms: C_14  and  N_15
REMARK    7  A    between atoms: C_16  and  C_18
REMARK                            x       y       z     vdW  Elec       q    Type
REMARK                         _______ _______ _______ _____ _____    ______ ____
ROOT
ATOM      1  C   UNL     1       2.104   7.513  19.673  0.00  0.00    +0.000 A 
ATOM      2  C   UNL     1       2.439   7.856  18.354  0.00  0.00    +0.000 A 
ATOM      3  C   UNL     1       1.993   9.040  17.801  0.00  0.00    +0.000 A 
ATOM      4  C   UNL     1       1.184   9.894  18.551  0.00  0.00    +0.000 A 
ATOM      5  C   UNL     1       0.771   9.596  19.862  0.00  0.00    +0.000 A 
ATOM      6  C   UNL     1       1.267   8.398  20.425  0.00  0.00    +0.000 A 
ENDROOT
BRANCH   5   7
ATOM      7  N   UNL     1      -0.125  10.469  20.601  0.00  0.00    +0.000 N 
ATOM      8  C   UNL     1       0.300  11.653  21.212  0.00  0.00    +0.000 C 
ATOM      9  O   UNL     1       1.446  12.095  21.137  0.00  0.00    +0.000 OA
ATOM     10  H   UNL     1      -1.118  10.262  20.597  0.00  0.00    +0.000 HD
BRANCH   8  11
ATOM     11  C   UNL     1      -0.632  12.546  22.048  0.00  0.00    +0.000 C 
ATOM     12  N   UNL     1      -0.267  13.359  23.014  0.00  0.00    +0.000 NA
ATOM     13  C   UNL     1      -1.353  14.013  23.709  0.00  0.00    +0.000 A 
ATOM     14  C   UNL     1      -1.167  15.222  24.381  0.00  0.00    +0.000 A 
ATOM     15  C   UNL     1      -2.253  15.910  24.957  0.00  0.00    +0.000 A 
ATOM     16  C   UNL     1      -3.547  15.390  24.887  0.00  0.00    +0.000 A 
ATOM     17  C   UNL     1      -3.753  14.162  24.276  0.00  0.00    +0.000 A 
ATOM     18  C   UNL     1      -2.669  13.487  23.700  0.00  0.00    +0.000 A 
ATOM     19  C   UNL     1      -2.887  12.205  22.960  0.00  0.00    +0.000 C 
ATOM     20  C   UNL     1      -2.115  12.380  21.672  0.00  0.00    +0.000 C 
ENDBRANCH   8  11
ENDBRANCH   5   7
BRANCH   1  22
ATOM     21  C   UNL     1       1.643   5.124  20.604  0.00  0.00    +0.000 C 
ATOM     22  C   UNL     1       2.658   6.178  20.173  0.00  0.00    +0.000 C 
BRANCH  22  23
ATOM     23  S   UNL     1       4.030   5.539  19.138  0.00  0.00    +0.000 S 
BRANCH  23  24
ATOM     24  C   UNL     1       3.367   4.133  18.405  0.00  0.00    +0.000 A 
ATOM     25  N   UNL     1       2.540   4.095  17.387  0.00  0.00    +0.000 NA
ATOM     26  N   UNL     1       2.241   2.777  17.134  0.00  0.00    +0.000 NA
ATOM     27  C   UNL     1       2.889   2.051  18.014  0.00  0.00    +0.000 A 
ATOM     28  N   UNL     1       3.597   2.864  18.847  0.00  0.00    +0.000 N 
ATOM     29  C   UNL     1       4.395   2.410  19.958  0.00  0.00    +0.000 C 
ENDBRANCH  23  24
ENDBRANCH  22  23
ENDBRANCH   1  22
TORSDOF 5
ENDMDL
MODEL 5
REMARK VINA RESULT:      -8.2      1.488      1.948
REMARK  Name = 
REMARK  7 active torsions:
REMARK  status: ('A' for Active; 'I' for Inactive)
REMARK    1  A    between atoms: C_1  and  C_2
REMARK    2  A    between atoms: C_2  and  S_3
REMARK    3  A    between atoms: C_2  and  C_10
REMARK    4  A    between atoms: S_3  and  C_4
REMARK    5  A    between atoms: N_8  and  C_9
REMARK    6  A    between atoms: C_14  and  N_15
REMARK    7  A    between atoms: C_16  and  C_18
REMARK                            x       y       z     vdW  Elec       q    Type
REMARK                         _______ _______ _______ _____ _____    ______ ____
ROOT
ATOM      1  C   UNL     1       4.893   4.823  18.098  0.00  0.00    +0.000 A 
ATOM      2  C   UNL     1       4.549   3.561  18.607  0.00  0.00    +0.000 A 
ATOM      3  C   UNL     1       3.516   3.426  19.513  0.00  0.00    +0.000 A 
ATOM      4  C   UNL     1       2.820   4.556  19.944  0.00  0.00    +0.000 A 
ATOM      5  C   UNL     1       3.137   5.857  19.513  0.00  0.00    +0.000 A 
ATOM      6  C   UNL     1       4.173   5.972  18.559  0.00  0.00    +0.000 A 
ENDROOT
BRANCH   5   7
ATOM      7  N   UNL     1       2.443   7.025  20.026  0.00  0.00    +0.000 N 
ATOM      8  C   UNL     1       1.815   7.960  19.198  0.00  0.00    +0.000 C 
ATOM      9  O   UNL     1       1.740   7.857  17.974  0.00  0.00    +0.000 OA
ATOM     10  H   UNL     1       2.327   7.120  21.030  0.00  0.00    +0.000 HD
BRANCH   8  11
ATOM     11  C   UNL     1       1.134   9.231  19.734  0.00  0.00    +0.000 C 
ATOM     12  N   UNL     1       0.456   9.334  20.855  0.00  0.00    +0.000 NA
ATOM     13  C   UNL     1      -0.169  10.619  21.079  0.00  0.00    +0.000 A 
ATOM     14  C   UNL     1      -0.484  11.062  22.365  0.00  0.00    +0.000 A 
ATOM     15  C   UNL     1      -0.985  12.361  22.583  0.00  0.00    +0.000 A 
ATOM     16  C   UNL     1      -1.198  13.235  21.516  0.00  0.00    +0.000 A 
ATOM     17  C   UNL     1      -0.948  12.800  20.222  0.00  0.00    +0.000 A 
ATOM     18  C   UNL     1      -0.444  11.510  20.013  0.00  0.00    +0.000 A 
ATOM     19  C   UNL     1      -0.086  11.057  18.633  0.00  0.00    +0.000 C 
ATOM     20  C   UNL     1       1.284  10.435  18.787  0.00  0.00    +0.000 C 
ENDBRANCH   8  11
ENDBRANCH   5   7
BRANCH   1  22
ATOM     21  C   UNL     1       7.462   4.743  17.677  0.00  0.00    +0.000 C 
ATOM     22  C   UNL     1       6.053   4.844  17.102  0.00  0.00    +0.000 C 
BRANCH  22  23
ATOM     23  S   UNL     1       5.751   3.796  15.629  0.00  0.00    +0.000 S 
BRANCH  23  24
ATOM     24  C   UNL     1       6.747   4.499  14.418  0.00  0.00    +0.000 A 
ATOM     25  N   UNL     1       7.679   5.406  14.597  0.00  0.00    +0.000 NA
ATOM     26  N   UNL     1       8.216   5.708  13.369  0.00  0.00    +0.000 NA
ATOM     27  C   UNL     1       7.588   4.982  12.474  0.00  0.00    +0.000 A 
ATOM     28  N   UNL     1       6.640   4.218  13.088  0.00  0.00    +0.000 N 
ATOM     29  C   UNL     1       5.735   3.327  12.407  0.00  0.00    +0.000 C 
ENDBRANCH  23  24
ENDBRANCH  22  23
ENDBRANCH   1  22
TORSDOF 5
ENDMDL
MODEL 6
REMARK VINA RESULT:      -8.1      5.396      8.438
REMARK  Name = 
REMARK  7 active torsions:
REMARK  status: ('A' for Active; 'I' for Inactive)
REMARK    1  A    between atoms: C_1  and  C_2
REMARK    2  A    between atoms: C_2  and  S_3
REMARK    3  A    between atoms: C_2  and  C_10
REMARK    4  A    between atoms: S_3  and  C_4
REMARK    5  A    between atoms: N_8  and  C_9
REMARK    6  A    between atoms: C_14  and  N_15
REMARK    7  A    between atoms: C_16  and  C_18
REMARK                            x       y       z     vdW  Elec       q    Type
REMARK                         _______ _______ _______ _____ _____    ______ ____
ROOT
ATOM      1  C   UNL     1       6.233   5.871  17.192  0.00  0.00    +0.000 A 
ATOM      2  C   UNL     1       6.905   5.101  18.154  0.00  0.00    +0.000 A 
ATOM      3  C   UNL     1       7.892   5.663  18.939  0.00  0.00    +0.000 A 
ATOM      4  C   UNL     1       8.240   7.002  18.763  0.00  0.00    +0.000 A 
ATOM      5  C   UNL     1       7.642   7.823  17.790  0.00  0.00    +0.000 A 
ATOM      6  C   UNL     1       6.609   7.242  17.020  0.00  0.00    +0.000 A 
ENDROOT
BRANCH   5   7
ATOM      7  N   UNL     1       8.067   9.196  17.578  0.00  0.00    +0.000 N 
ATOM      8  C   UNL     1       8.835   9.905  18.507  0.00  0.00    +0.000 C 
ATOM      9  O   UNL     1       9.269   9.425  19.554  0.00  0.00    +0.000 OA
ATOM     10  H   UNL     1       7.878   9.631  16.681  0.00  0.00    +0.000 HD
BRANCH   8  11
ATOM     11  C   UNL     1       9.232  11.379  18.316  0.00  0.00    +0.000 C 
ATOM     12  N   UNL     1       8.426  12.363  17.986  0.00  0.00    +0.000 NA
ATOM     13  C   UNL     1       9.071  13.639  17.772  0.00  0.00    +0.000 A 
ATOM     14  C   UNL     1       8.373  14.841  17.906  0.00  0.00    +0.000 A 
ATOM     15  C   UNL     1       9.035  16.081  17.811  0.00  0.00    +0.000 A 
ATOM     16  C   UNL     1      10.407  16.143  17.561  0.00  0.00    +0.000 A 
ATOM     17  C   UNL     1      11.115  14.965  17.366  0.00  0.00    +0.000 A 
ATOM     18  C   UNL     1      10.451  13.736  17.469  0.00  0.00    +0.000 A 
ATOM     19  C   UNL     1      11.216  12.456  17.349  0.00  0.00    +0.000 C 
ATOM     20  C   UNL     1      10.738  11.623  18.517  0.00  0.00    +0.000 C 
ENDBRANCH   8  11
ENDBRANCH   5   7
BRANCH   1  22
ATOM     21  C   UNL     1       5.509   4.763  14.949  0.00  0.00    +0.000 C 
ATOM     22  C   UNL     1       5.161   5.137  16.385  0.00  0.00    +0.000 C 
BRANCH  22  23
ATOM     23  S   UNL     1       4.327   3.812  17.341  0.00  0.00    +0.000 S 
BRANCH  23  24
ATOM     24  C   UNL     1       3.401   4.671  18.505  0.00  0.00    +0.000 A 
ATOM     25  N   UNL     1       2.989   5.914  18.418  0.00  0.00    +0.000 NA
ATOM     26  N   UNL     1       2.301   6.214  19.570  0.00  0.00    +0.000 NA
ATOM     27  C   UNL     1       2.323   5.144  20.330  0.00  0.00    +0.000 A 
ATOM     28  N   UNL     1       3.020   4.153  19.707  0.00  0.00    +0.000 N 
ATOM     29  C   UNL     1       3.279   2.851  20.268  0.00  0.00    +0.000 C 
ENDBRANCH  23  24
ENDBRANCH  22  23
ENDBRANCH   1  22
TORSDOF 5
ENDMDL
MODEL 7
REMARK VINA RESULT:      -8.1      1.360      1.609
REMARK  Name = 
REMARK  7 active torsions:
REMARK  status: ('A' for Active; 'I' for Inactive)
REMARK    1  A    between atoms: C_1  and  C_2
REMARK    2  A    between atoms: C_2  and  S_3
REMARK    3  A    between atoms: C_2  and  C_10
REMARK    4  A    between atoms: S_3  and  C_4
REMARK    5  A    between atoms: N_8  and  C_9
REMARK    6  A    between atoms: C_14  and  N_15
REMARK    7  A    between atoms: C_16  and  C_18
REMARK                            x       y       z     vdW  Elec       q    Type
REMARK                         _______ _______ _______ _____ _____    ______ ____
ROOT
ATOM      1  C   UNL     1       4.449   5.542  17.322  0.00  0.00    +0.000 A 
ATOM      2  C   UNL     1       3.745   4.327  17.324  0.00  0.00    +0.000 A 
ATOM      3  C   UNL     1       2.467   4.256  17.842  0.00  0.00    +0.000 A 
ATOM      4  C   UNL     1       1.876   5.396  18.388  0.00  0.00    +0.000 A 
ATOM      5  C   UNL     1       2.536   6.636  18.461  0.00  0.00    +0.000 A 
ATOM      6  C   UNL     1       3.829   6.699  17.893  0.00  0.00    +0.000 A 
ENDROOT
BRANCH   5   7
ATOM      7  N   UNL     1       1.926   7.793  19.093  0.00  0.00    +0.000 N 
ATOM      8  C   UNL     1       1.742   9.012  18.431  0.00  0.00    +0.000 C 
ATOM      9  O   UNL     1       2.021   9.203  17.248  0.00  0.00    +0.000 OA
ATOM     10  H   UNL     1       1.532   7.689  20.022  0.00  0.00    +0.000 HD
BRANCH   8  11
ATOM     11  C   UNL     1       1.155  10.257  19.117  0.00  0.00    +0.000 C 
ATOM     12  N   UNL     1       1.462  11.507  18.849  0.00  0.00    +0.000 NA
ATOM     13  C   UNL     1       0.839  12.489  19.709  0.00  0.00    +0.000 A 
ATOM     14  C   UNL     1       0.649  13.808  19.291  0.00  0.00    +0.000 A 
ATOM     15  C   UNL     1      -0.062  14.727  20.088  0.00  0.00    +0.000 A 
ATOM     16  C   UNL     1      -0.581  14.349  21.327  0.00  0.00    +0.000 A 
ATOM     17  C   UNL     1      -0.356  13.062  21.793  0.00  0.00    +0.000 A 
ATOM     18  C   UNL     1       0.345  12.151  20.992  0.00  0.00    +0.000 A 
ATOM     19  C   UNL     1       0.519  10.734  21.441  0.00  0.00    +0.000 C 
ATOM     20  C   UNL     1       0.149   9.910  20.228  0.00  0.00    +0.000 C 
ENDBRANCH   8  11
ENDBRANCH   5   7
BRANCH   1  22
ATOM     21  C   UNL     1       7.016   5.840  17.647  0.00  0.00    +0.000 C 
ATOM     22  C   UNL     1       5.854   5.494  16.722  0.00  0.00    +0.000 C 
BRANCH  22  23
ATOM     23  S   UNL     1       6.132   4.021  15.665  0.00  0.00    +0.000 S 
BRANCH  23  24
ATOM     24  C   UNL     1       6.995   4.644  14.317  0.00  0.00    +0.000 A 
ATOM     25  N   UNL     1       7.935   5.559  14.342  0.00  0.00    +0.000 NA
ATOM     26  N   UNL     1       8.344   5.782  13.049  0.00  0.00    +0.000 NA
ATOM     27  C   UNL     1       7.631   5.001  12.271  0.00  0.00    +0.000 A 
ATOM     28  N   UNL     1       6.755   4.279  13.025  0.00  0.00    +0.000 N 
ATOM     29  C   UNL     1       5.790   3.347  12.499  0.00  0.00    +0.000 C 
ENDBRANCH  23  24
ENDBRANCH  22  23
ENDBRANCH   1  22
TORSDOF 5
ENDMDL
MODEL 8
REMARK VINA RESULT:      -8.1      3.913      5.080
REMARK  Name = 
REMARK  7 active torsions:
REMARK  status: ('A' for Active; 'I' for Inactive)
REMARK    1  A    between atoms: C_1  and  C_2
REMARK    2  A    between atoms: C_2  and  S_3
REMARK    3  A    between atoms: C_2  and  C_10
REMARK    4  A    between atoms: S_3  and  C_4
REMARK    5  A    between atoms: N_8  and  C_9
REMARK    6  A    between atoms: C_14  and  N_15
REMARK    7  A    between atoms: C_16  and  C_18
REMARK                            x       y       z     vdW  Elec       q    Type
REMARK                         _______ _______ _______ _____ _____    ______ ____
ROOT
ATOM      1  C   UNL     1       2.094   7.726  19.317  0.00  0.00    +0.000 A 
ATOM      2  C   UNL     1       2.523   8.184  18.061  0.00  0.00    +0.000 A 
ATOM      3  C   UNL     1       2.164   9.438  17.610  0.00  0.00    +0.000 A 
ATOM      4  C   UNL     1       1.349  10.252  18.398  0.00  0.00    +0.000 A 
ATOM      5  C   UNL     1       0.844   9.844  19.646  0.00  0.00    +0.000 A 
ATOM      6  C   UNL     1       1.252   8.572  20.108  0.00  0.00    +0.000 A 
ENDROOT
BRANCH   5   7
ATOM      7  N   UNL     1      -0.057  10.681  20.419  0.00  0.00    +0.000 N 
ATOM      8  C   UNL     1       0.384  11.760  21.191  0.00  0.00    +0.000 C 
ATOM      9  O   UNL     1       1.554  12.138  21.244  0.00  0.00    +0.000 OA
ATOM     10  H   UNL     1      -1.057  10.536  20.325  0.00  0.00    +0.000 HD
BRANCH   8  11
ATOM     11  C   UNL     1      -0.558  12.609  22.061  0.00  0.00    +0.000 C 
ATOM     12  N   UNL     1      -0.196  13.498  22.958  0.00  0.00    +0.000 NA
ATOM     13  C   UNL     1      -1.281  14.088  23.711  0.00  0.00    +0.000 A 
ATOM     14  C   UNL     1      -1.154  15.341  24.314  0.00  0.00    +0.000 A 
ATOM     15  C   UNL     1      -2.251  15.958  24.946  0.00  0.00    +0.000 A 
ATOM     16  C   UNL     1      -3.493  15.325  25.003  0.00  0.00    +0.000 A 
ATOM     17  C   UNL     1      -3.633  14.054  24.463  0.00  0.00    +0.000 A 
ATOM     18  C   UNL     1      -2.539  13.449  23.831  0.00  0.00    +0.000 A 
ATOM     19  C   UNL     1      -2.696  12.118  23.166  0.00  0.00    +0.000 C 
ATOM     20  C   UNL     1      -2.044  12.295  21.814  0.00  0.00    +0.000 C 
ENDBRANCH   8  11
ENDBRANCH   5   7
BRANCH   1  22
ATOM     21  C   UNL     1       1.689   5.555  20.698  0.00  0.00    +0.000 C 
ATOM     22  C   UNL     1       2.557   6.322  19.705  0.00  0.00    +0.000 C 
BRANCH  22  23
ATOM     23  S   UNL     1       3.131   5.334  18.270  0.00  0.00    +0.000 S 
BRANCH  23  24
ATOM     24  C   UNL     1       3.787   3.918  18.988  0.00  0.00    +0.000 A 
ATOM     25  N   UNL     1       4.975   3.791  19.529  0.00  0.00    +0.000 NA
ATOM     26  N   UNL     1       5.107   2.493  19.963  0.00  0.00    +0.000 NA
ATOM     27  C   UNL     1       3.995   1.864  19.662  0.00  0.00    +0.000 A 
ATOM     28  N   UNL     1       3.141   2.717  19.030  0.00  0.00    +0.000 N 
ATOM     29  C   UNL     1       1.841   2.356  18.523  0.00  0.00    +0.000 C 
ENDBRANCH  23  24
ENDBRANCH  22  23
ENDBRANCH   1  22
TORSDOF 5
ENDMDL
MODEL 9
REMARK VINA RESULT:      -8.0      2.921      4.546
REMARK  Name = 
REMARK  7 active torsions:
REMARK  status: ('A' for Active; 'I' for Inactive)
REMARK    1  A    between atoms: C_1  and  C_2
REMARK    2  A    between atoms: C_2  and  S_3
REMARK    3  A    between atoms: C_2  and  C_10
REMARK    4  A    between atoms: S_3  and  C_4
REMARK    5  A    between atoms: N_8  and  C_9
REMARK    6  A    between atoms: C_14  and  N_15
REMARK    7  A    between atoms: C_16  and  C_18
REMARK                            x       y       z     vdW  Elec       q    Type
REMARK                         _______ _______ _______ _____ _____    ______ ____
ROOT
ATOM      1  C   UNL     1       2.393   7.236  19.387  0.00  0.00    +0.000 A 
ATOM      2  C   UNL     1       2.772   7.643  18.099  0.00  0.00    +0.000 A 
ATOM      3  C   UNL     1       2.319   8.840  17.579  0.00  0.00    +0.000 A 
ATOM      4  C   UNL     1       1.459   9.641  18.330  0.00  0.00    +0.000 A 
ATOM      5  C   UNL     1       1.001   9.277  19.609  0.00  0.00    +0.000 A 
ATOM      6  C   UNL     1       1.504   8.068  20.140  0.00  0.00    +0.000 A 
ENDROOT
BRANCH   5   7
ATOM      7  N   UNL     1       0.054  10.096  20.346  0.00  0.00    +0.000 N 
ATOM      8  C   UNL     1       0.420  11.273  21.007  0.00  0.00    +0.000 C 
ATOM      9  O   UNL     1       1.552  11.756  20.980  0.00  0.00    +0.000 OA
ATOM     10  H   UNL     1      -0.931   9.856  20.305  0.00  0.00    +0.000 HD
BRANCH   8  11
ATOM     11  C   UNL     1      -0.567  12.108  21.840  0.00  0.00    +0.000 C 
ATOM     12  N   UNL     1      -1.716  11.694  22.325  0.00  0.00    +0.000 NA
ATOM     13  C   UNL     1      -2.502  12.709  22.991  0.00  0.00    +0.000 A 
ATOM     14  C   UNL     1      -3.456  12.377  23.955  0.00  0.00    +0.000 A 
ATOM     15  C   UNL     1      -4.133  13.376  24.682  0.00  0.00    +0.000 A 
ATOM     16  C   UNL     1      -3.882  14.728  24.445  0.00  0.00    +0.000 A 
ATOM     17  C   UNL     1      -2.982  15.087  23.452  0.00  0.00    +0.000 A 
ATOM     18  C   UNL     1      -2.307  14.089  22.739  0.00  0.00    +0.000 A 
ATOM     19  C   UNL     1      -1.268  14.459  21.727  0.00  0.00    +0.000 C 
ATOM     20  C   UNL     1      -0.097  13.558  22.047  0.00  0.00    +0.000 C 
ENDBRANCH   8  11
ENDBRANCH   5   7
BRANCH   1  22
ATOM     21  C   UNL     1       2.053   5.019  20.712  0.00  0.00    +0.000 C 
ATOM     22  C   UNL     1       2.959   5.894  19.852  0.00  0.00    +0.000 C 
BRANCH  22  23
ATOM     23  S   UNL     1       3.854   4.996  18.527  0.00  0.00    +0.000 S 
BRANCH  23  24
ATOM     24  C   UNL     1       5.509   5.298  18.877  0.00  0.00    +0.000 A 
ATOM     25  N   UNL     1       6.162   4.933  19.955  0.00  0.00    +0.000 NA
ATOM     26  N   UNL     1       7.452   5.392  19.843  0.00  0.00    +0.000 NA
ATOM     27  C   UNL     1       7.545   6.033  18.702  0.00  0.00    +0.000 A 
ATOM     28  N   UNL     1       6.339   6.014  18.067  0.00  0.00    +0.000 N 
ATOM     29  C   UNL     1       6.063   6.655  16.806  0.00  0.00    +0.000 C 
ENDBRANCH  23  24
ENDBRANCH  22  23
ENDBRANCH   1  22
TORSDOF 5
ENDMDL
