MODEL 1
REMARK VINA RESULT:      -8.2      0.000      0.000
REMARK  Name = 
REMARK  5 active torsions:
REMARK  status: ('A' for Active; 'I' for Inactive)
REMARK    1  A    between atoms: C_1  and  C_2
REMARK    2  A    between atoms: N_4  and  C_5
REMARK    3  A    between atoms: C_12  and  C_13
REMARK    4  A    between atoms: N_15  and  C_16
REMARK    5  A    between atoms: C_19  and  C_20
REMARK                            x       y       z     vdW  Elec       q    Type
REMARK                         _______ _______ _______ _____ _____    ______ ____
ROOT
ATOM      1  C   UNL     1       0.421  11.144  20.583  0.00  0.00    +0.000 C 
ATOM      2  O   UNL     1       1.401  11.786  20.216  0.00  0.00    +0.000 OA
ATOM      3  N   UNL     1       0.219   9.816  20.268  0.00  0.00    +0.000 N 
ATOM      4  H   UNL     1      -0.690   9.423  20.492  0.00  0.00    +0.000 HD
ENDROOT
BRANCH   1  10
ATOM      5  C   UNL     1      -0.742  10.099  23.336  0.00  0.00    +0.000 C 
ATOM      6  C   UNL     1      -1.136  11.338  22.610  0.00  0.00    +0.000 A 
ATOM      7  N   UNL     1      -2.089  12.125  23.114  0.00  0.00    +0.000 NA
ATOM      8  N   UNL     1      -2.216  13.143  22.234  0.00  0.00    +0.000 N 
ATOM      9  C   UNL     1      -1.347  12.981  21.160  0.00  0.00    +0.000 A 
ATOM     10  C   UNL     1      -0.620  11.816  21.376  0.00  0.00    +0.000 A 
BRANCH   8  11
ATOM     11  C   UNL     1      -3.161  14.193  22.484  0.00  0.00    +0.000 A 
ATOM     12  C   UNL     1      -3.648  14.968  21.414  0.00  0.00    +0.000 A 
ATOM     13  C   UNL     1      -4.580  15.993  21.634  0.00  0.00    +0.000 A 
ATOM     14  C   UNL     1      -5.026  16.268  22.923  0.00  0.00    +0.000 A 
ATOM     15  C   UNL     1      -4.540  15.512  23.988  0.00  0.00    +0.000 A 
ATOM     16  C   UNL     1      -3.616  14.475  23.776  0.00  0.00    +0.000 A 
ENDBRANCH   8  11
ENDBRANCH   1  10
BRANCH   3  17
ATOM     17  C   UNL     1       1.144   8.951  19.619  0.00  0.00    +0.000 A 
ATOM     18  C   UNL     1       1.625   9.113  18.311  0.00  0.00    +0.000 A 
ATOM     19  C   UNL     1       2.458   8.146  17.694  0.00  0.00    +0.000 A 
ATOM     20  C   UNL     1       2.872   7.022  18.399  0.00  0.00    +0.000 A 
ATOM     21  C   UNL     1       2.574   7.002  19.784  0.00  0.00    +0.000 A 
ATOM     22  C   UNL     1       1.636   7.874  20.347  0.00  0.00    +0.000 A 
BRANCH  20  23
ATOM     23  C   UNL     1       3.248   5.765  17.706  0.00  0.00    +0.000 A 
ATOM     24  N   UNL     1       2.645   4.584  17.604  0.00  0.00    +0.000 NA
ATOM     25  N   UNL     1       3.532   3.705  16.948  0.00  0.00    +0.000 NA
ATOM     26  C   UNL     1       4.659   4.341  16.727  0.00  0.00    +0.000 A 
ATOM     27  N   UNL     1       4.507   5.600  17.191  0.00  0.00    +0.000 N 
ATOM     28  C   UNL     1       5.527   6.599  17.268  0.00  0.00    +0.000 C 
ATOM     29  C   UNL     1       6.933   6.244  16.924  0.00  0.00    +0.000 C 
ATOM     30  C   UNL     1       7.123   4.934  16.185  0.00  0.00    +0.000 C 
ATOM     31  C   UNL     1       5.955   3.920  16.100  0.00  0.00    +0.000 C 
ENDBRANCH  20  23
ENDBRANCH   3  17
TORSDOF 4
ENDMDL
MODEL 2
REMARK VINA RESULT:      -8.2      1.535     11.394
REMARK  Name = 
REMARK  5 active torsions:
REMARK  status: ('A' for Active; 'I' for Inactive)
REMARK    1  A    between atoms: C_1  and  C_2
REMARK    2  A    between atoms: N_4  and  C_5
REMARK    3  A    between atoms: C_12  and  C_13
REMARK    4  A    between atoms: N_15  and  C_16
REMARK    5  A    between atoms: C_19  and  C_20
REMARK                            x       y       z     vdW  Elec       q    Type
REMARK                         _______ _______ _______ _____ _____    ______ ____
ROOT
ATOM      1  C   UNL     1       1.525   8.720  19.009  0.00  0.00    +0.000 C 
ATOM      2  O   UNL     1       0.896   9.249  18.097  0.00  0.00    +0.000 OA
ATOM      3  N   UNL     1       1.421   9.106  20.330  0.00  0.00    +0.000 N 
ATOM      4  H   UNL     1       2.092   8.707  20.980  0.00  0.00    +0.000 HD
ENDROOT
BRANCH   1  10
ATOM      5  C   UNL     1       1.705   5.951  20.534  0.00  0.00    +0.000 C 
ATOM      6  C   UNL     1       2.542   6.398  19.386  0.00  0.00    +0.000 A 
ATOM      7  N   UNL     1       3.499   5.595  18.916  0.00  0.00    +0.000 NA
ATOM      8  N   UNL     1       4.071   6.279  17.899  0.00  0.00    +0.000 N 
ATOM      9  C   UNL     1       3.477   7.527  17.745  0.00  0.00    +0.000 A 
ATOM     10  C   UNL     1       2.469   7.636  18.695  0.00  0.00    +0.000 A 
BRANCH   8  11
ATOM     11  C   UNL     1       5.144   5.687  17.152  0.00  0.00    +0.000 A 
ATOM     12  C   UNL     1       6.248   5.133  17.830  0.00  0.00    +0.000 A 
ATOM     13  C   UNL     1       7.304   4.541  17.121  0.00  0.00    +0.000 A 
ATOM     14  C   UNL     1       7.280   4.507  15.730  0.00  0.00    +0.000 A 
ATOM     15  C   UNL     1       6.196   5.063  15.053  0.00  0.00    +0.000 A 
ATOM     16  C   UNL     1       5.128   5.647  15.755  0.00  0.00    +0.000 A 
ENDBRANCH   8  11
ENDBRANCH   1  10
BRANCH   3  17
ATOM     17  C   UNL     1       0.493  10.042  20.867  0.00  0.00    +0.000 A 
ATOM     18  C   UNL     1      -0.106  11.090  20.152  0.00  0.00    +0.000 A 
ATOM     19  C   UNL     1      -0.934  12.051  20.784  0.00  0.00    +0.000 A 
ATOM     20  C   UNL     1      -1.224  11.946  22.140  0.00  0.00    +0.000 A 
ATOM     21  C   UNL     1      -0.809  10.754  22.782  0.00  0.00    +0.000 A 
ATOM     22  C   UNL     1       0.124   9.890  22.198  0.00  0.00    +0.000 A 
BRANCH  20  23
ATOM     23  C   UNL     1      -1.588  13.134  22.951  0.00  0.00    +0.000 A 
ATOM     24  N   UNL     1      -0.889  13.897  23.786  0.00  0.00    +0.000 NA
ATOM     25  N   UNL     1      -1.785  14.799  24.396  0.00  0.00    +0.000 NA
ATOM     26  C   UNL     1      -2.997  14.528  23.974  0.00  0.00    +0.000 A 
ATOM     27  N   UNL     1      -2.899  13.508  23.096  0.00  0.00    +0.000 N 
ATOM     28  C   UNL     1      -3.989  12.810  22.488  0.00  0.00    +0.000 C 
ATOM     29  C   UNL     1      -5.385  13.117  22.907  0.00  0.00    +0.000 C 
ATOM     30  C   UNL     1      -5.571  14.393  23.703  0.00  0.00    +0.000 C 
ATOM     31  C   UNL     1      -4.337  15.123  24.290  0.00  0.00    +0.000 C 
ENDBRANCH  20  23
ENDBRANCH   3  17
TORSDOF 4
ENDMDL
MODEL 3
REMARK VINA RESULT:      -8.2      2.777     11.418
REMARK  Name = 
REMARK  5 active torsions:
REMARK  status: ('A' for Active; 'I' for Inactive)
REMARK    1  A    between atoms: C_1  and  C_2
REMARK    2  A    between atoms: N_4  and  C_5
REMARK    3  A    between atoms: C_12  and  C_13
REMARK    4  A    between atoms: N_15  and  C_16
REMARK    5  A    between atoms: C_19  and  C_20
REMARK                            x       y       z     vdW  Elec       q    Type
REMARK                         _______ _______ _______ _____ _____    ______ ____
ROOT
ATOM      1  C   UNL     1       3.580   6.470  18.267  0.00  0.00    +0.000 C 
ATOM      2  O   UNL     1       3.790   6.276  19.461  0.00  0.00    +0.000 OA
ATOM      3  N   UNL     1       2.716   7.437  17.794  0.00  0.00    +0.000 N 
ATOM      4  H   UNL     1       2.501   7.416  16.802  0.00  0.00    +0.000 HD
ENDROOT
BRANCH   1  10
ATOM      5  C   UNL     1       3.994   3.342  18.522  0.00  0.00    +0.000 C 
ATOM      6  C   UNL     1       4.432   4.214  17.397  0.00  0.00    +0.000 A 
ATOM      7  N   UNL     1       5.088   3.682  16.365  0.00  0.00    +0.000 NA
ATOM      8  N   UNL     1       5.345   4.716  15.532  0.00  0.00    +0.000 N 
ATOM      9  C   UNL     1       4.859   5.909  16.058  0.00  0.00    +0.000 A 
ATOM     10  C   UNL     1       4.249   5.617  17.273  0.00  0.00    +0.000 A 
BRANCH   8  11
ATOM     11  C   UNL     1       6.037   4.486  14.296  0.00  0.00    +0.000 A 
ATOM     12  C   UNL     1       7.229   5.184  14.020  0.00  0.00    +0.000 A 
ATOM     13  C   UNL     1       7.928   4.968  12.824  0.00  0.00    +0.000 A 
ATOM     14  C   UNL     1       7.442   4.066  11.883  0.00  0.00    +0.000 A 
ATOM     15  C   UNL     1       6.258   3.379  12.145  0.00  0.00    +0.000 A 
ATOM     16  C   UNL     1       5.557   3.580  13.346  0.00  0.00    +0.000 A 
ENDBRANCH   8  11
ENDBRANCH   1  10
BRANCH   3  17
ATOM     17  C   UNL     1       2.063   8.438  18.566  0.00  0.00    +0.000 A 
ATOM     18  C   UNL     1       1.507   8.245  19.840  0.00  0.00    +0.000 A 
ATOM     19  C   UNL     1       0.772   9.262  20.499  0.00  0.00    +0.000 A 
ATOM     20  C   UNL     1       0.628  10.516  19.915  0.00  0.00    +0.000 A 
ATOM     21  C   UNL     1       1.396  10.760  18.750  0.00  0.00    +0.000 A 
ATOM     22  C   UNL     1       1.994   9.719  18.032  0.00  0.00    +0.000 A 
BRANCH  20  23
ATOM     23  C   UNL     1      -0.520  11.397  20.242  0.00  0.00    +0.000 A 
ATOM     24  N   UNL     1      -0.792  12.161  21.296  0.00  0.00    +0.000 NA
ATOM     25  N   UNL     1      -2.100  12.662  21.137  0.00  0.00    +0.000 NA
ATOM     26  C   UNL     1      -2.611  12.150  20.042  0.00  0.00    +0.000 A 
ATOM     27  N   UNL     1      -1.662  11.368  19.484  0.00  0.00    +0.000 N 
ATOM     28  C   UNL     1      -1.831  10.519  18.346  0.00  0.00    +0.000 C 
ATOM     29  C   UNL     1      -3.184  10.355  17.744  0.00  0.00    +0.000 C 
ATOM     30  C   UNL     1      -4.225  11.370  18.170  0.00  0.00    +0.000 C 
ATOM     31  C   UNL     1      -3.952  12.292  19.385  0.00  0.00    +0.000 C 
ENDBRANCH  20  23
ENDBRANCH   3  17
TORSDOF 4
ENDMDL
MODEL 4
REMARK VINA RESULT:      -8.2      2.324     11.472
REMARK  Name = 
REMARK  5 active torsions:
REMARK  status: ('A' for Active; 'I' for Inactive)
REMARK    1  A    between atoms: C_1  and  C_2
REMARK    2  A    between atoms: N_4  and  C_5
REMARK    3  A    between atoms: C_12  and  C_13
REMARK    4  A    between atoms: N_15  and  C_16
REMARK    5  A    between atoms: C_19  and  C_20
REMARK                            x       y       z     vdW  Elec       q    Type
REMARK                         _______ _______ _______ _____ _____    ______ ____
ROOT
ATOM      1  C   UNL     1       1.171   8.757  21.039  0.00  0.00    +0.000 C 
ATOM      2  O   UNL     1       1.737   9.010  22.099  0.00  0.00    +0.000 OA
ATOM      3  N   UNL     1       0.040   9.417  20.603  0.00  0.00    +0.000 N 
ATOM      4  H   UNL     1      -0.432   9.033  19.790  0.00  0.00    +0.000 HD
ENDROOT
BRANCH   1  10
ATOM      5  C   UNL     1       2.215   9.105  18.070  0.00  0.00    +0.000 C 
ATOM      6  C   UNL     1       2.157   7.842  18.857  0.00  0.00    +0.000 A 
ATOM      7  N   UNL     1       2.558   6.698  18.300  0.00  0.00    +0.000 NA
ATOM      8  N   UNL     1       2.378   5.754  19.251  0.00  0.00    +0.000 N 
ATOM      9  C   UNL     1       1.843   6.312  20.408  0.00  0.00    +0.000 A 
ATOM     10  C   UNL     1       1.692   7.676  20.189  0.00  0.00    +0.000 A 
BRANCH   8  11
ATOM     11  C   UNL     1       2.730   4.389  18.982  0.00  0.00    +0.000 A 
ATOM     12  C   UNL     1       3.787   3.784  19.690  0.00  0.00    +0.000 A 
ATOM     13  C   UNL     1       4.141   2.448  19.450  0.00  0.00    +0.000 A 
ATOM     14  C   UNL     1       3.456   1.704  18.494  0.00  0.00    +0.000 A 
ATOM     15  C   UNL     1       2.416   2.299  17.783  0.00  0.00    +0.000 A 
ATOM     16  C   UNL     1       2.046   3.633  18.025  0.00  0.00    +0.000 A 
ENDBRANCH   8  11
ENDBRANCH   1  10
BRANCH   3  17
ATOM     17  C   UNL     1      -0.555  10.561  21.204  0.00  0.00    +0.000 A 
ATOM     18  C   UNL     1      -0.857  11.761  20.542  0.00  0.00    +0.000 A 
ATOM     19  C   UNL     1      -1.346  12.897  21.235  0.00  0.00    +0.000 A 
ATOM     20  C   UNL     1      -1.596  12.834  22.601  0.00  0.00    +0.000 A 
ATOM     21  C   UNL     1      -1.513  11.551  23.197  0.00  0.00    +0.000 A 
ATOM     22  C   UNL     1      -0.894  10.477  22.549  0.00  0.00    +0.000 A 
BRANCH  20  23
ATOM     23  C   UNL     1      -1.567  14.048  23.453  0.00  0.00    +0.000 A 
ATOM     24  N   UNL     1      -0.633  14.563  24.247  0.00  0.00    +0.000 NA
ATOM     25  N   UNL     1      -1.206  15.654  24.932  0.00  0.00    +0.000 NA
ATOM     26  C   UNL     1      -2.472  15.738  24.594  0.00  0.00    +0.000 A 
ATOM     27  N   UNL     1      -2.713  14.759  23.696  0.00  0.00    +0.000 N 
ATOM     28  C   UNL     1      -3.989  14.405  23.157  0.00  0.00    +0.000 C 
ATOM     29  C   UNL     1      -5.218  15.066  23.680  0.00  0.00    +0.000 C 
ATOM     30  C   UNL     1      -4.996  16.318  24.504  0.00  0.00    +0.000 C 
ATOM     31  C   UNL     1      -3.574  16.664  25.013  0.00  0.00    +0.000 C 
ENDBRANCH  20  23
ENDBRANCH   3  17
TORSDOF 4
ENDMDL
MODEL 5
REMARK VINA RESULT:      -8.2      1.488     11.281
REMARK  Name = 
REMARK  5 active torsions:
REMARK  status: ('A' for Active; 'I' for Inactive)
REMARK    1  A    between atoms: C_1  and  C_2
REMARK    2  A    between atoms: N_4  and  C_5
REMARK    3  A    between atoms: C_12  and  C_13
REMARK    4  A    between atoms: N_15  and  C_16
REMARK    5  A    between atoms: C_19  and  C_20
REMARK                            x       y       z     vdW  Elec       q    Type
REMARK                         _______ _______ _______ _____ _____    ______ ____
ROOT
ATOM      1  C   UNL     1       1.529   8.611  19.462  0.00  0.00    +0.000 C 
ATOM      2  O   UNL     1       0.842   9.208  18.638  0.00  0.00    +0.000 OA
ATOM      3  N   UNL     1       1.525   8.901  20.811  0.00  0.00    +0.000 N 
ATOM      4  H   UNL     1       2.236   8.453  21.380  0.00  0.00    +0.000 HD
ENDROOT
BRANCH   1  10
ATOM      5  C   UNL     1       1.657   5.678  20.645  0.00  0.00    +0.000 C 
ATOM      6  C   UNL     1       2.487   6.235  19.541  0.00  0.00    +0.000 A 
ATOM      7  N   UNL     1       3.413   5.470  18.960  0.00  0.00    +0.000 NA
ATOM      8  N   UNL     1       3.986   6.254  18.019  0.00  0.00    +0.000 N 
ATOM      9  C   UNL     1       3.425   7.527  18.026  0.00  0.00    +0.000 A 
ATOM     10  C   UNL     1       2.436   7.548  19.003  0.00  0.00    +0.000 A 
BRANCH   8  11
ATOM     11  C   UNL     1       5.030   5.728  17.187  0.00  0.00    +0.000 A 
ATOM     12  C   UNL     1       6.144   5.096  17.773  0.00  0.00    +0.000 A 
ATOM     13  C   UNL     1       7.170   4.565  16.978  0.00  0.00    +0.000 A 
ATOM     14  C   UNL     1       7.107   4.671  15.593  0.00  0.00    +0.000 A 
ATOM     15  C   UNL     1       6.013   5.304  15.006  0.00  0.00    +0.000 A 
ATOM     16  C   UNL     1       4.974   5.827  15.793  0.00  0.00    +0.000 A 
ENDBRANCH   8  11
ENDBRANCH   1  10
BRANCH   3  17
ATOM     17  C   UNL     1       0.647   9.800  21.479  0.00  0.00    +0.000 A 
ATOM     18  C   UNL     1      -0.053   9.521  22.663  0.00  0.00    +0.000 A 
ATOM     19  C   UNL     1      -0.997  10.428  23.207  0.00  0.00    +0.000 A 
ATOM     20  C   UNL     1      -1.216  11.661  22.603  0.00  0.00    +0.000 A 
ATOM     21  C   UNL     1      -0.329  12.016  21.557  0.00  0.00    +0.000 A 
ATOM     22  C   UNL     1       0.491  11.069  20.935  0.00  0.00    +0.000 A 
BRANCH  20  23
ATOM     23  C   UNL     1      -2.502  12.385  22.761  0.00  0.00    +0.000 A 
ATOM     24  N   UNL     1      -3.692  12.232  22.188  0.00  0.00    +0.000 NA
ATOM     25  N   UNL     1      -4.510  13.302  22.606  0.00  0.00    +0.000 NA
ATOM     26  C   UNL     1      -3.793  14.102  23.360  0.00  0.00    +0.000 A 
ATOM     27  N   UNL     1      -2.560  13.562  23.460  0.00  0.00    +0.000 N 
ATOM     28  C   UNL     1      -1.424  14.165  24.084  0.00  0.00    +0.000 C 
ATOM     29  C   UNL     1      -1.517  15.563  24.591  0.00  0.00    +0.000 C 
ATOM     30  C   UNL     1      -2.918  16.128  24.718  0.00  0.00    +0.000 C 
ATOM     31  C   UNL     1      -4.110  15.392  24.056  0.00  0.00    +0.000 C 
ENDBRANCH  20  23
ENDBRANCH   3  17
TORSDOF 4
ENDMDL
MODEL 6
REMARK VINA RESULT:      -8.1      1.201      1.777
REMARK  Name = 
REMARK  5 active torsions:
REMARK  status: ('A' for Active; 'I' for Inactive)
REMARK    1  A    between atoms: C_1  and  C_2
REMARK    2  A    between atoms: N_4  and  C_5
REMARK    3  A    between atoms: C_12  and  C_13
REMARK    4  A    between atoms: N_15  and  C_16
REMARK    5  A    between atoms: C_19  and  C_20
REMARK                            x       y       z     vdW  Elec       q    Type
REMARK                         _______ _______ _______ _____ _____    ______ ____
ROOT
ATOM      1  C   UNL     1       0.588  11.294  19.957  0.00  0.00    +0.000 C 
ATOM      2  O   UNL     1       1.493  11.879  19.368  0.00  0.00    +0.000 OA
ATOM      3  N   UNL     1       0.425   9.924  19.934  0.00  0.00    +0.000 N 
ATOM      4  H   UNL     1      -0.436   9.557  20.327  0.00  0.00    +0.000 HD
ENDROOT
BRANCH   1  10
ATOM      5  C   UNL     1      -2.333  11.990  18.955  0.00  0.00    +0.000 C 
ATOM      6  C   UNL     1      -1.711  12.388  20.248  0.00  0.00    +0.000 A 
ATOM      7  N   UNL     1      -2.404  13.133  21.113  0.00  0.00    +0.000 NA
ATOM      8  N   UNL     1      -1.576  13.324  22.164  0.00  0.00    +0.000 N 
ATOM      9  C   UNL     1      -0.347  12.708  21.946  0.00  0.00    +0.000 A 
ATOM     10  C   UNL     1      -0.403  12.080  20.708  0.00  0.00    +0.000 A 
BRANCH   8  11
ATOM     11  C   UNL     1      -2.020  14.084  23.298  0.00  0.00    +0.000 A 
ATOM     12  C   UNL     1      -1.080  14.754  24.105  0.00  0.00    +0.000 A 
ATOM     13  C   UNL     1      -1.492  15.511  25.211  0.00  0.00    +0.000 A 
ATOM     14  C   UNL     1      -2.842  15.597  25.535  0.00  0.00    +0.000 A 
ATOM     15  C   UNL     1      -3.777  14.928  24.747  0.00  0.00    +0.000 A 
ATOM     16  C   UNL     1      -3.375  14.178  23.630  0.00  0.00    +0.000 A 
ENDBRANCH   8  11
ENDBRANCH   1  10
BRANCH   3  17
ATOM     17  C   UNL     1       1.326   8.975  19.374  0.00  0.00    +0.000 A 
ATOM     18  C   UNL     1       1.908   9.063  18.101  0.00  0.00    +0.000 A 
ATOM     19  C   UNL     1       2.707   8.021  17.568  0.00  0.00    +0.000 A 
ATOM     20  C   UNL     1       2.985   6.889  18.328  0.00  0.00    +0.000 A 
ATOM     21  C   UNL     1       2.589   6.932  19.687  0.00  0.00    +0.000 A 
ATOM     22  C   UNL     1       1.682   7.886  20.160  0.00  0.00    +0.000 A 
BRANCH  20  23
ATOM     23  C   UNL     1       3.312   5.589  17.693  0.00  0.00    +0.000 A 
ATOM     24  N   UNL     1       2.706   4.405  17.711  0.00  0.00    +0.000 NA
ATOM     25  N   UNL     1       3.545   3.483  17.053  0.00  0.00    +0.000 NA
ATOM     26  C   UNL     1       4.652   4.100  16.710  0.00  0.00    +0.000 A 
ATOM     27  N   UNL     1       4.531   5.387  17.100  0.00  0.00    +0.000 N 
ATOM     28  C   UNL     1       5.552   6.386  17.038  0.00  0.00    +0.000 C 
ATOM     29  C   UNL     1       6.930   6.006  16.618  0.00  0.00    +0.000 C 
ATOM     30  C   UNL     1       7.069   4.651  15.954  0.00  0.00    +0.000 C 
ATOM     31  C   UNL     1       5.900   3.636  16.020  0.00  0.00    +0.000 C 
ENDBRANCH  20  23
ENDBRANCH   3  17
TORSDOF 4
ENDMDL
MODEL 7
REMARK VINA RESULT:      -8.1      1.127      1.853
REMARK  Name = 
REMARK  5 active torsions:
REMARK  status: ('A' for Active; 'I' for Inactive)
REMARK    1  A    between atoms: C_1  and  C_2
REMARK    2  A    between atoms: N_4  and  C_5
REMARK    3  A    between atoms: C_12  and  C_13
REMARK    4  A    between atoms: N_15  and  C_16
REMARK    5  A    between atoms: C_19  and  C_20
REMARK                            x       y       z     vdW  Elec       q    Type
REMARK                         _______ _______ _______ _____ _____    ______ ____
ROOT
ATOM      1  C   UNL     1       0.309  11.332  20.576  0.00  0.00    +0.000 C 
ATOM      2  O   UNL     1       1.354  11.469  21.206  0.00  0.00    +0.000 OA
ATOM      3  N   UNL     1       0.158  10.433  19.539  0.00  0.00    +0.000 N 
ATOM      4  H   UNL     1      -0.693  10.504  18.989  0.00  0.00    +0.000 HD
ENDROOT
BRANCH   1  10
ATOM      5  C   UNL     1      -0.274  14.186  19.336  0.00  0.00    +0.000 C 
ATOM      6  C   UNL     1      -1.096  13.463  20.345  0.00  0.00    +0.000 A 
ATOM      7  N   UNL     1      -2.201  14.034  20.829  0.00  0.00    +0.000 NA
ATOM      8  N   UNL     1      -2.708  13.143  21.710  0.00  0.00    +0.000 N 
ATOM      9  C   UNL     1      -1.903  12.012  21.791  0.00  0.00    +0.000 A 
ATOM     10  C   UNL     1      -0.845  12.183  20.906  0.00  0.00    +0.000 A 
BRANCH   8  11
ATOM     11  C   UNL     1      -3.924  13.442  22.412  0.00  0.00    +0.000 A 
ATOM     12  C   UNL     1      -4.288  12.680  23.539  0.00  0.00    +0.000 A 
ATOM     13  C   UNL     1      -5.466  12.960  24.247  0.00  0.00    +0.000 A 
ATOM     14  C   UNL     1      -6.302  13.993  23.832  0.00  0.00    +0.000 A 
ATOM     15  C   UNL     1      -5.953  14.744  22.712  0.00  0.00    +0.000 A 
ATOM     16  C   UNL     1      -4.768  14.479  22.004  0.00  0.00    +0.000 A 
ENDBRANCH   8  11
ENDBRANCH   1  10
BRANCH   3  17
ATOM     17  C   UNL     1       1.096   9.442  19.136  0.00  0.00    +0.000 A 
ATOM     18  C   UNL     1       1.833   9.462  17.942  0.00  0.00    +0.000 A 
ATOM     19  C   UNL     1       2.666   8.380  17.558  0.00  0.00    +0.000 A 
ATOM     20  C   UNL     1       2.818   7.279  18.393  0.00  0.00    +0.000 A 
ATOM     21  C   UNL     1       2.259   7.390  19.690  0.00  0.00    +0.000 A 
ATOM     22  C   UNL     1       1.326   8.383  20.006  0.00  0.00    +0.000 A 
BRANCH  20  23
ATOM     23  C   UNL     1       3.188   5.945  17.859  0.00  0.00    +0.000 A 
ATOM     24  N   UNL     1       2.585   4.762  17.909  0.00  0.00    +0.000 NA
ATOM     25  N   UNL     1       3.467   3.806  17.362  0.00  0.00    +0.000 NA
ATOM     26  C   UNL     1       4.592   4.409  17.055  0.00  0.00    +0.000 A 
ATOM     27  N   UNL     1       4.444   5.715  17.359  0.00  0.00    +0.000 N 
ATOM     28  C   UNL     1       5.465   6.715  17.304  0.00  0.00    +0.000 C 
ATOM     29  C   UNL     1       6.868   6.318  16.997  0.00  0.00    +0.000 C 
ATOM     30  C   UNL     1       7.052   4.927  16.426  0.00  0.00    +0.000 C 
ATOM     31  C   UNL     1       5.883   3.911  16.476  0.00  0.00    +0.000 C 
ENDBRANCH  20  23
ENDBRANCH   3  17
TORSDOF 4
ENDMDL
MODEL 8
REMARK VINA RESULT:      -8.1      1.963     11.291
REMARK  Name = 
REMARK  5 active torsions:
REMARK  status: ('A' for Active; 'I' for Inactive)
REMARK    1  A    between atoms: C_1  and  C_2
REMARK    2  A    between atoms: N_4  and  C_5
REMARK    3  A    between atoms: C_12  and  C_13
REMARK    4  A    between atoms: N_15  and  C_16
REMARK    5  A    between atoms: C_19  and  C_20
REMARK                            x       y       z     vdW  Elec       q    Type
REMARK                         _______ _______ _______ _____ _____    ______ ____
ROOT
ATOM      1  C   UNL     1       1.629   6.959  20.340  0.00  0.00    +0.000 C 
ATOM      2  O   UNL     1       0.865   6.488  21.178  0.00  0.00    +0.000 OA
ATOM      3  N   UNL     1       1.603   8.281  19.943  0.00  0.00    +0.000 N 
ATOM      4  H   UNL     1       2.173   8.532  19.141  0.00  0.00    +0.000 HD
ENDROOT
BRANCH   1  10
ATOM      5  C   UNL     1       2.317   4.004  21.244  0.00  0.00    +0.000 C 
ATOM      6  C   UNL     1       2.915   4.754  20.104  0.00  0.00    +0.000 A 
ATOM      7  N   UNL     1       3.859   4.179  19.357  0.00  0.00    +0.000 NA
ATOM      8  N   UNL     1       4.192   5.102  18.428  0.00  0.00    +0.000 N 
ATOM      9  C   UNL     1       3.463   6.273  18.608  0.00  0.00    +0.000 A 
ATOM     10  C   UNL     1       2.612   6.078  19.690  0.00  0.00    +0.000 A 
BRANCH   8  11
ATOM     11  C   UNL     1       5.186   4.798  17.439  0.00  0.00    +0.000 A 
ATOM     12  C   UNL     1       4.791   4.412  16.143  0.00  0.00    +0.000 A 
ATOM     13  C   UNL     1       5.746   4.119  15.157  0.00  0.00    +0.000 A 
ATOM     14  C   UNL     1       7.103   4.193  15.455  0.00  0.00    +0.000 A 
ATOM     15  C   UNL     1       7.501   4.564  16.737  0.00  0.00    +0.000 A 
ATOM     16  C   UNL     1       6.552   4.871  17.728  0.00  0.00    +0.000 A 
ENDBRANCH   8  11
ENDBRANCH   1  10
BRANCH   3  17
ATOM     17  C   UNL     1       0.822   9.321  20.521  0.00  0.00    +0.000 A 
ATOM     18  C   UNL     1       0.018  10.222  19.807  0.00  0.00    +0.000 A 
ATOM     19  C   UNL     1      -0.642  11.303  20.443  0.00  0.00    +0.000 A 
ATOM     20  C   UNL     1      -0.553  11.470  21.821  0.00  0.00    +0.000 A 
ATOM     21  C   UNL     1       0.061  10.417  22.543  0.00  0.00    +0.000 A 
ATOM     22  C   UNL     1       0.831   9.438  21.905  0.00  0.00    +0.000 A 
BRANCH  20  23
ATOM     23  C   UNL     1      -0.725  12.799  22.455  0.00  0.00    +0.000 A 
ATOM     24  N   UNL     1       0.114  13.811  22.658  0.00  0.00    +0.000 NA
ATOM     25  N   UNL     1      -0.553  14.770  23.448  0.00  0.00    +0.000 NA
ATOM     26  C   UNL     1      -1.739  14.302  23.756  0.00  0.00    +0.000 A 
ATOM     27  N   UNL     1      -1.860  13.094  23.165  0.00  0.00    +0.000 N 
ATOM     28  C   UNL     1      -2.943  12.176  23.337  0.00  0.00    +0.000 C 
ATOM     29  C   UNL     1      -4.010  12.474  24.332  0.00  0.00    +0.000 C 
ATOM     30  C   UNL     1      -4.055  13.898  24.848  0.00  0.00    +0.000 C 
ATOM     31  C   UNL     1      -2.864  14.853  24.580  0.00  0.00    +0.000 C 
ENDBRANCH  20  23
ENDBRANCH   3  17
TORSDOF 4
ENDMDL
MODEL 9
REMARK VINA RESULT:      -8.0      1.444      1.850
REMARK  Name = 
REMARK  5 active torsions:
REMARK  status: ('A' for Active; 'I' for Inactive)
REMARK    1  A    between atoms: C_1  and  C_2
REMARK    2  A    between atoms: N_4  and  C_5
REMARK    3  A    between atoms: C_12  and  C_13
REMARK    4  A    between atoms: N_15  and  C_16
REMARK    5  A    between atoms: C_19  and  C_20
REMARK                            x       y       z     vdW  Elec       q    Type
REMARK                         _______ _______ _______ _____ _____    ______ ____
ROOT
ATOM      1  C   UNL     1      -0.999  11.001  19.526  0.00  0.00    +0.000 C 
ATOM      2  O   UNL     1      -1.605  10.390  18.650  0.00  0.00    +0.000 OA
ATOM      3  N   UNL     1       0.237  10.617  20.006  0.00  0.00    +0.000 N 
ATOM      4  H   UNL     1       0.582  11.101  20.829  0.00  0.00    +0.000 HD
ENDROOT
BRANCH   1  10
ATOM      5  C   UNL     1      -0.280  14.001  18.814  0.00  0.00    +0.000 C 
ATOM      6  C   UNL     1      -1.287  13.532  19.806  0.00  0.00    +0.000 A 
ATOM      7  N   UNL     1      -1.982  14.425  20.514  0.00  0.00    +0.000 NA
ATOM      8  N   UNL     1      -2.793  13.695  21.313  0.00  0.00    +0.000 N 
ATOM      9  C   UNL     1      -2.589  12.333  21.115  0.00  0.00    +0.000 A 
ATOM     10  C   UNL     1      -1.618  12.190  20.131  0.00  0.00    +0.000 A 
BRANCH   8  11
ATOM     11  C   UNL     1      -3.699  14.355  22.209  0.00  0.00    +0.000 A 
ATOM     12  C   UNL     1      -5.077  14.070  22.148  0.00  0.00    +0.000 A 
ATOM     13  C   UNL     1      -5.980  14.695  23.021  0.00  0.00    +0.000 A 
ATOM     14  C   UNL     1      -5.524  15.622  23.953  0.00  0.00    +0.000 A 
ATOM     15  C   UNL     1      -4.163  15.916  24.012  0.00  0.00    +0.000 A 
ATOM     16  C   UNL     1      -3.249  15.286  23.150  0.00  0.00    +0.000 A 
ENDBRANCH   8  11
ENDBRANCH   1  10
BRANCH   3  17
ATOM     17  C   UNL     1       1.060   9.578  19.486  0.00  0.00    +0.000 A 
ATOM     18  C   UNL     1       1.643   9.569  18.210  0.00  0.00    +0.000 A 
ATOM     19  C   UNL     1       2.358   8.446  17.722  0.00  0.00    +0.000 A 
ATOM     20  C   UNL     1       2.549   7.329  18.528  0.00  0.00    +0.000 A 
ATOM     21  C   UNL     1       2.163   7.458  19.884  0.00  0.00    +0.000 A 
ATOM     22  C   UNL     1       1.334   8.499  20.317  0.00  0.00    +0.000 A 
BRANCH  20  23
ATOM     23  C   UNL     1       2.773   5.982  17.948  0.00  0.00    +0.000 A 
ATOM     24  N   UNL     1       2.060   4.861  17.985  0.00  0.00    +0.000 NA
ATOM     25  N   UNL     1       2.829   3.842  17.386  0.00  0.00    +0.000 NA
ATOM     26  C   UNL     1       3.998   4.342  17.060  0.00  0.00    +0.000 A 
ATOM     27  N   UNL     1       3.986   5.647  17.403  0.00  0.00    +0.000 N 
ATOM     28  C   UNL     1       5.097   6.545  17.342  0.00  0.00    +0.000 C 
ATOM     29  C   UNL     1       6.446   6.025  16.982  0.00  0.00    +0.000 C 
ATOM     30  C   UNL     1       6.477   4.640  16.368  0.00  0.00    +0.000 C 
ATOM     31  C   UNL     1       5.217   3.740  16.428  0.00  0.00    +0.000 C 
ENDBRANCH  20  23
ENDBRANCH   3  17
TORSDOF 4
ENDMDL
