MODEL 1
REMARK VINA RESULT:      -8.6      0.000      0.000
REMARK  Name = 
REMARK  5 active torsions:
REMARK  status: ('A' for Active; 'I' for Inactive)
REMARK    1  A    between atoms: C_1  and  N_2
REMARK    2  A    between atoms: C_3  and  C_4
REMARK    3  A    between atoms: C_10  and  N_11
REMARK    4  A    between atoms: C_12  and  C_14
REMARK    5  A    between atoms: C_19  and  C_20
REMARK                            x       y       z     vdW  Elec       q    Type
REMARK                         _______ _______ _______ _____ _____    ______ ____
ROOT
ATOM      1  N   UNL     1       2.143   7.794  19.647  0.00  0.00    +0.000 N 
ATOM      2  C   UNL     1       2.202   6.436  19.912  0.00  0.00    +0.000 C 
ATOM      3  O   UNL     1       1.529   5.821  20.732  0.00  0.00    +0.000 OA
ATOM      4  H   UNL     1       2.743   8.170  18.925  0.00  0.00    +0.000 HD
ENDROOT
BRANCH   1  11
ATOM      5  C   UNL     1      -1.508  12.004  23.227  0.00  0.00    +0.000 C 
ATOM      6  N   UNL     1      -1.260  11.533  21.890  0.00  0.00    +0.000 N 
ATOM      7  C   UNL     1      -1.832  11.977  20.721  0.00  0.00    +0.000 A 
ATOM      8  N   UNL     1      -1.300  11.368  19.679  0.00  0.00    +0.000 NA
ATOM      9  C   UNL     1      -0.402  10.472  20.191  0.00  0.00    +0.000 A 
ATOM     10  C   UNL     1       0.423   9.560  19.519  0.00  0.00    +0.000 A 
ATOM     11  C   UNL     1       1.262   8.718  20.256  0.00  0.00    +0.000 A 
ATOM     12  C   UNL     1       1.253   8.779  21.658  0.00  0.00    +0.000 A 
ATOM     13  C   UNL     1       0.451   9.698  22.349  0.00  0.00    +0.000 A 
ATOM     14  C   UNL     1      -0.365  10.532  21.578  0.00  0.00    +0.000 A 
BRANCH   7  15
ATOM     15  C   UNL     1      -2.951  13.008  20.575  0.00  0.00    +0.000 C 
ATOM     16  C   UNL     1      -4.276  12.699  21.249  0.00  0.00    +0.000 C 
ATOM     17  C   UNL     1      -4.178  12.644  19.765  0.00  0.00    +0.000 C 
ENDBRANCH   7  15
ENDBRANCH   1  11
BRANCH   2  18
ATOM     18  C   UNL     1       3.163   5.645  19.097  0.00  0.00    +0.000 A 
ATOM     19  C   UNL     1       3.553   4.384  19.583  0.00  0.00    +0.000 A 
ATOM     20  C   UNL     1       4.404   3.546  18.854  0.00  0.00    +0.000 A 
ATOM     21  C   UNL     1       4.833   4.028  17.619  0.00  0.00    +0.000 A 
ATOM     22  N   UNL     1       5.633   3.492  16.643  0.00  0.00    +0.000 N 
ATOM     23  C   UNL     1       5.715   4.395  15.610  0.00  0.00    +0.000 A 
ATOM     24  N   UNL     1       5.016   5.482  15.877  0.00  0.00    +0.000 NA
ATOM     25  C   UNL     1       4.462   5.267  17.112  0.00  0.00    +0.000 A 
ATOM     26  C   UNL     1       3.610   6.098  17.848  0.00  0.00    +0.000 A 
ATOM     27  H   UNL     1       6.074   2.582  16.665  0.00  0.00    +0.000 HD
BRANCH  23  28
ATOM     28  C   UNL     1       6.504   4.095  14.388  0.00  0.00    +0.000 C 
ATOM     29  F   UNL     1       5.685   3.720  13.368  0.00  0.00    +0.000 F 
ATOM     30  F   UNL     1       7.153   5.208  13.951  0.00  0.00    +0.000 F 
ENDBRANCH  23  28
ENDBRANCH   2  18
TORSDOF 4
ENDMDL
MODEL 2
REMARK VINA RESULT:      -8.3      1.607      1.958
REMARK  Name = 
REMARK  5 active torsions:
REMARK  status: ('A' for Active; 'I' for Inactive)
REMARK    1  A    between atoms: C_1  and  N_2
REMARK    2  A    between atoms: C_3  and  C_4
REMARK    3  A    between atoms: C_10  and  N_11
REMARK    4  A    between atoms: C_12  and  C_14
REMARK    5  A    between atoms: C_19  and  C_20
REMARK                            x       y       z     vdW  Elec       q    Type
REMARK                         _______ _______ _______ _____ _____    ______ ____
ROOT
ATOM      1  N   UNL     1       1.933   8.536  18.168  0.00  0.00    +0.000 N 
ATOM      2  C   UNL     1       2.417   7.517  18.971  0.00  0.00    +0.000 C 
ATOM      3  O   UNL     1       2.059   7.254  20.114  0.00  0.00    +0.000 OA
ATOM      4  H   UNL     1       2.304   8.628  17.232  0.00  0.00    +0.000 HD
ENDROOT
BRANCH   1  11
ATOM      5  C   UNL     1      -2.271  13.226  20.216  0.00  0.00    +0.000 C 
ATOM      6  N   UNL     1      -2.132  12.102  19.328  0.00  0.00    +0.000 N 
ATOM      7  C   UNL     1      -3.053  11.623  18.426  0.00  0.00    +0.000 A 
ATOM      8  N   UNL     1      -2.545  10.628  17.724  0.00  0.00    +0.000 NA
ATOM      9  C   UNL     1      -1.287  10.425  18.222  0.00  0.00    +0.000 A 
ATOM     10  C   UNL     1      -0.326   9.479  17.845  0.00  0.00    +0.000 A 
ATOM     11  C   UNL     1       0.904   9.443  18.512  0.00  0.00    +0.000 A 
ATOM     12  C   UNL     1       1.151  10.337  19.565  0.00  0.00    +0.000 A 
ATOM     13  C   UNL     1       0.211  11.306  19.944  0.00  0.00    +0.000 A 
ATOM     14  C   UNL     1      -1.001  11.320  19.246  0.00  0.00    +0.000 A 
BRANCH   7  15
ATOM     15  C   UNL     1      -4.488  12.107  18.227  0.00  0.00    +0.000 C 
ATOM     16  C   UNL     1      -5.524  11.650  19.239  0.00  0.00    +0.000 C 
ATOM     17  C   UNL     1      -5.555  11.096  17.858  0.00  0.00    +0.000 C 
ENDBRANCH   7  15
ENDBRANCH   1  11
BRANCH   2  18
ATOM     18  C   UNL     1       3.459   6.642  18.371  0.00  0.00    +0.000 A 
ATOM     19  C   UNL     1       3.902   5.538  19.123  0.00  0.00    +0.000 A 
ATOM     20  C   UNL     1       4.833   4.626  18.613  0.00  0.00    +0.000 A 
ATOM     21  C   UNL     1       5.287   4.869  17.319  0.00  0.00    +0.000 A 
ATOM     22  N   UNL     1       6.160   4.198  16.502  0.00  0.00    +0.000 N 
ATOM     23  C   UNL     1       6.234   4.869  15.305  0.00  0.00    +0.000 A 
ATOM     24  N   UNL     1       5.460   5.939  15.316  0.00  0.00    +0.000 NA
ATOM     25  C   UNL     1       4.865   5.948  16.551  0.00  0.00    +0.000 A 
ATOM     26  C   UNL     1       3.933   6.854  17.070  0.00  0.00    +0.000 A 
ATOM     27  H   UNL     1       6.653   3.344  16.728  0.00  0.00    +0.000 HD
BRANCH  23  28
ATOM     28  C   UNL     1       7.093   4.377  14.198  0.00  0.00    +0.000 C 
ATOM     29  F   UNL     1       6.344   3.745  13.254  0.00  0.00    +0.000 F 
ATOM     30  F   UNL     1       7.694   5.416  13.559  0.00  0.00    +0.000 F 
ENDBRANCH  23  28
ENDBRANCH   2  18
TORSDOF 4
ENDMDL
MODEL 3
REMARK VINA RESULT:      -8.2      1.167      2.055
REMARK  Name = 
REMARK  5 active torsions:
REMARK  status: ('A' for Active; 'I' for Inactive)
REMARK    1  A    between atoms: C_1  and  N_2
REMARK    2  A    between atoms: C_3  and  C_4
REMARK    3  A    between atoms: C_10  and  N_11
REMARK    4  A    between atoms: C_12  and  C_14
REMARK    5  A    between atoms: C_19  and  C_20
REMARK                            x       y       z     vdW  Elec       q    Type
REMARK                         _______ _______ _______ _____ _____    ______ ____
ROOT
ATOM      1  N   UNL     1       1.878   8.566  19.053  0.00  0.00    +0.000 N 
ATOM      2  C   UNL     1       2.122   7.351  19.670  0.00  0.00    +0.000 C 
ATOM      3  O   UNL     1       1.561   6.912  20.669  0.00  0.00    +0.000 OA
ATOM      4  H   UNL     1       2.401   8.796  18.219  0.00  0.00    +0.000 HD
ENDROOT
BRANCH   1  11
ATOM      5  C   UNL     1      -3.136  12.745  20.180  0.00  0.00    +0.000 C 
ATOM      6  N   UNL     1      -1.942  12.184  20.757  0.00  0.00    +0.000 N 
ATOM      7  C   UNL     1      -1.437  12.396  22.019  0.00  0.00    +0.000 A 
ATOM      8  N   UNL     1      -0.370  11.649  22.227  0.00  0.00    +0.000 NA
ATOM      9  C   UNL     1      -0.150  10.980  21.054  0.00  0.00    +0.000 A 
ATOM     10  C   UNL     1       0.864  10.070  20.728  0.00  0.00    +0.000 A 
ATOM     11  C   UNL     1       0.903   9.513  19.445  0.00  0.00    +0.000 A 
ATOM     12  C   UNL     1      -0.057   9.888  18.493  0.00  0.00    +0.000 A 
ATOM     13  C   UNL     1      -1.092  10.782  18.805  0.00  0.00    +0.000 A 
ATOM     14  C   UNL     1      -1.107  11.307  20.100  0.00  0.00    +0.000 A 
BRANCH   7  15
ATOM     15  C   UNL     1      -1.968  13.365  23.075  0.00  0.00    +0.000 C 
ATOM     16  C   UNL     1      -1.966  14.844  22.727  0.00  0.00    +0.000 C 
ATOM     17  C   UNL     1      -1.001  14.327  23.735  0.00  0.00    +0.000 C 
ENDBRANCH   7  15
ENDBRANCH   1  11
BRANCH   2  18
ATOM     18  C   UNL     1       3.153   6.485  19.039  0.00  0.00    +0.000 A 
ATOM     19  C   UNL     1       3.575   5.344  19.746  0.00  0.00    +0.000 A 
ATOM     20  C   UNL     1       4.493   4.439  19.203  0.00  0.00    +0.000 A 
ATOM     21  C   UNL     1       4.958   4.729  17.921  0.00  0.00    +0.000 A 
ATOM     22  N   UNL     1       5.823   4.077  17.081  0.00  0.00    +0.000 N 
ATOM     23  C   UNL     1       5.914   4.797  15.913  0.00  0.00    +0.000 A 
ATOM     24  N   UNL     1       5.156   5.877  15.966  0.00  0.00    +0.000 NA
ATOM     25  C   UNL     1       4.556   5.845  17.198  0.00  0.00    +0.000 A 
ATOM     26  C   UNL     1       3.636   6.743  17.749  0.00  0.00    +0.000 A 
ATOM     27  H   UNL     1       6.303   3.208  17.273  0.00  0.00    +0.000 HD
BRANCH  23  28
ATOM     28  C   UNL     1       6.770   4.337  14.790  0.00  0.00    +0.000 C 
ATOM     29  F   UNL     1       6.111   3.423  14.027  0.00  0.00    +0.000 F 
ATOM     30  F   UNL     1       7.065   5.371  13.957  0.00  0.00    +0.000 F 
ENDBRANCH  23  28
ENDBRANCH   2  18
TORSDOF 4
ENDMDL
MODEL 4
REMARK VINA RESULT:      -8.2      2.285      2.820
REMARK  Name = 
REMARK  5 active torsions:
REMARK  status: ('A' for Active; 'I' for Inactive)
REMARK    1  A    between atoms: C_1  and  N_2
REMARK    2  A    between atoms: C_3  and  C_4
REMARK    3  A    between atoms: C_10  and  N_11
REMARK    4  A    between atoms: C_12  and  C_14
REMARK    5  A    between atoms: C_19  and  C_20
REMARK                            x       y       z     vdW  Elec       q    Type
REMARK                         _______ _______ _______ _____ _____    ______ ____
ROOT
ATOM      1  N   UNL     1       2.169   8.932  17.884  0.00  0.00    +0.000 N 
ATOM      2  C   UNL     1       2.509   7.825  18.642  0.00  0.00    +0.000 C 
ATOM      3  O   UNL     1       2.214   7.623  19.815  0.00  0.00    +0.000 OA
ATOM      4  H   UNL     1       2.459   8.961  16.916  0.00  0.00    +0.000 HD
ENDROOT
BRANCH   1  11
ATOM      5  C   UNL     1      -2.080  13.443  20.222  0.00  0.00    +0.000 C 
ATOM      6  N   UNL     1      -0.755  13.267  19.687  0.00  0.00    +0.000 N 
ATOM      7  C   UNL     1       0.221  14.221  19.523  0.00  0.00    +0.000 A 
ATOM      8  N   UNL     1       1.338  13.676  19.080  0.00  0.00    +0.000 NA
ATOM      9  C   UNL     1       1.059  12.349  18.904  0.00  0.00    +0.000 A 
ATOM     10  C   UNL     1       1.890  11.322  18.436  0.00  0.00    +0.000 A 
ATOM     11  C   UNL     1       1.383  10.024  18.320  0.00  0.00    +0.000 A 
ATOM     12  C   UNL     1       0.043   9.768  18.651  0.00  0.00    +0.000 A 
ATOM     13  C   UNL     1      -0.800  10.776  19.141  0.00  0.00    +0.000 A 
ATOM     14  C   UNL     1      -0.253  12.058  19.255  0.00  0.00    +0.000 A 
BRANCH   7  15
ATOM     15  C   UNL     1       0.093  15.724  19.771  0.00  0.00    +0.000 C 
ATOM     16  C   UNL     1      -0.420  16.578  18.626  0.00  0.00    +0.000 C 
ATOM     17  C   UNL     1       1.011  16.668  19.022  0.00  0.00    +0.000 C 
ENDBRANCH   7  15
ENDBRANCH   1  11
BRANCH   2  18
ATOM     18  C   UNL     1       3.289   6.764  17.949  0.00  0.00    +0.000 A 
ATOM     19  C   UNL     1       3.009   5.425  18.275  0.00  0.00    +0.000 A 
ATOM     20  C   UNL     1       3.649   4.361  17.628  0.00  0.00    +0.000 A 
ATOM     21  C   UNL     1       4.570   4.706  16.641  0.00  0.00    +0.000 A 
ATOM     22  N   UNL     1       5.352   3.955  15.802  0.00  0.00    +0.000 N 
ATOM     23  C   UNL     1       6.070   4.811  15.001  0.00  0.00    +0.000 A 
ATOM     24  N   UNL     1       5.792   6.069  15.288  0.00  0.00    +0.000 NA
ATOM     25  C   UNL     1       4.863   6.019  16.296  0.00  0.00    +0.000 A 
ATOM     26  C   UNL     1       4.217   7.075  16.947  0.00  0.00    +0.000 A 
ATOM     27  H   UNL     1       5.387   2.945  15.761  0.00  0.00    +0.000 HD
BRANCH  23  28
ATOM     28  C   UNL     1       7.004   4.297  13.968  0.00  0.00    +0.000 C 
ATOM     29  F   UNL     1       6.321   3.672  12.970  0.00  0.00    +0.000 F 
ATOM     30  F   UNL     1       7.673   5.321  13.373  0.00  0.00    +0.000 F 
ENDBRANCH  23  28
ENDBRANCH   2  18
TORSDOF 4
ENDMDL
MODEL 5
REMARK VINA RESULT:      -8.2      1.428      1.870
REMARK  Name = 
REMARK  5 active torsions:
REMARK  status: ('A' for Active; 'I' for Inactive)
REMARK    1  A    between atoms: C_1  and  N_2
REMARK    2  A    between atoms: C_3  and  C_4
REMARK    3  A    between atoms: C_10  and  N_11
REMARK    4  A    between atoms: C_12  and  C_14
REMARK    5  A    between atoms: C_19  and  C_20
REMARK                            x       y       z     vdW  Elec       q    Type
REMARK                         _______ _______ _______ _____ _____    ______ ____
ROOT
ATOM      1  N   UNL     1       2.818   7.182  18.406  0.00  0.00    +0.000 N 
ATOM      2  C   UNL     1       3.572   6.085  18.785  0.00  0.00    +0.000 C 
ATOM      3  O   UNL     1       3.685   5.631  19.919  0.00  0.00    +0.000 OA
ATOM      4  H   UNL     1       2.796   7.436  17.428  0.00  0.00    +0.000 HD
ENDROOT
BRANCH   1  11
ATOM      5  C   UNL     1      -0.754  10.279  23.045  0.00  0.00    +0.000 C 
ATOM      6  N   UNL     1      -0.262  10.388  21.697  0.00  0.00    +0.000 N 
ATOM      7  C   UNL     1      -0.410  11.444  20.829  0.00  0.00    +0.000 A 
ATOM      8  N   UNL     1       0.248  11.223  19.707  0.00  0.00    +0.000 NA
ATOM      9  C   UNL     1       0.789   9.973  19.834  0.00  0.00    +0.000 A 
ATOM     10  C   UNL     1       1.567   9.247  18.923  0.00  0.00    +0.000 A 
ATOM     11  C   UNL     1       2.005   7.962  19.261  0.00  0.00    +0.000 A 
ATOM     12  C   UNL     1       1.641   7.406  20.497  0.00  0.00    +0.000 A 
ATOM     13  C   UNL     1       0.880   8.123  21.431  0.00  0.00    +0.000 A 
ATOM     14  C   UNL     1       0.472   9.409  21.063  0.00  0.00    +0.000 A 
BRANCH   7  15
ATOM     15  C   UNL     1      -1.230  12.715  21.053  0.00  0.00    +0.000 C 
ATOM     16  C   UNL     1      -2.707  12.661  20.707  0.00  0.00    +0.000 C 
ATOM     17  C   UNL     1      -1.782  13.449  19.848  0.00  0.00    +0.000 C 
ENDBRANCH   7  15
ENDBRANCH   1  11
BRANCH   2  18
ATOM     18  C   UNL     1       4.297   5.374  17.698  0.00  0.00    +0.000 A 
ATOM     19  C   UNL     1       4.060   3.996  17.542  0.00  0.00    +0.000 A 
ATOM     20  C   UNL     1       4.649   3.260  16.508  0.00  0.00    +0.000 A 
ATOM     21  C   UNL     1       5.474   3.971  15.640  0.00  0.00    +0.000 A 
ATOM     22  N   UNL     1       6.185   3.602  14.527  0.00  0.00    +0.000 N 
ATOM     23  C   UNL     1       6.821   4.716  14.032  0.00  0.00    +0.000 A 
ATOM     24  N   UNL     1       6.558   5.776  14.774  0.00  0.00    +0.000 NA
ATOM     25  C   UNL     1       5.724   5.332  15.767  0.00  0.00    +0.000 A 
ATOM     26  C   UNL     1       5.129   6.059  16.803  0.00  0.00    +0.000 A 
ATOM     27  H   UNL     1       6.226   2.675  14.124  0.00  0.00    +0.000 HD
BRANCH  23  28
ATOM     28  C   UNL     1       7.664   4.642  12.812  0.00  0.00    +0.000 C 
ATOM     29  F   UNL     1       6.944   4.170  11.758  0.00  0.00    +0.000 F 
ATOM     30  F   UNL     1       8.087   5.882  12.446  0.00  0.00    +0.000 F 
ENDBRANCH  23  28
ENDBRANCH   2  18
TORSDOF 4
ENDMDL
MODEL 6
REMARK VINA RESULT:      -8.1      1.631      2.137
REMARK  Name = 
REMARK  5 active torsions:
REMARK  status: ('A' for Active; 'I' for Inactive)
REMARK    1  A    between atoms: C_1  and  N_2
REMARK    2  A    between atoms: C_3  and  C_4
REMARK    3  A    between atoms: C_10  and  N_11
REMARK    4  A    between atoms: C_12  and  C_14
REMARK    5  A    between atoms: C_19  and  C_20
REMARK                            x       y       z     vdW  Elec       q    Type
REMARK                         _______ _______ _______ _____ _____    ______ ____
ROOT
ATOM      1  N   UNL     1       1.978   9.248  18.171  0.00  0.00    +0.000 N 
ATOM      2  C   UNL     1       2.220   8.122  18.938  0.00  0.00    +0.000 C 
ATOM      3  O   UNL     1       1.886   7.945  20.105  0.00  0.00    +0.000 OA
ATOM      4  H   UNL     1       2.292   9.253  17.210  0.00  0.00    +0.000 HD
ENDROOT
BRANCH   1  11
ATOM      5  C   UNL     1      -0.743  15.084  19.724  0.00  0.00    +0.000 C 
ATOM      6  N   UNL     1      -0.973  13.663  19.718  0.00  0.00    +0.000 N 
ATOM      7  C   UNL     1      -2.117  12.993  20.087  0.00  0.00    +0.000 A 
ATOM      8  N   UNL     1      -1.990  11.698  19.869  0.00  0.00    +0.000 NA
ATOM      9  C   UNL     1      -0.717  11.522  19.400  0.00  0.00    +0.000 A 
ATOM     10  C   UNL     1      -0.063  10.340  19.031  0.00  0.00    +0.000 A 
ATOM     11  C   UNL     1       1.263  10.395  18.588  0.00  0.00    +0.000 A 
ATOM     12  C   UNL     1       1.930  11.629  18.541  0.00  0.00    +0.000 A 
ATOM     13  C   UNL     1       1.288  12.827  18.886  0.00  0.00    +0.000 A 
ATOM     14  C   UNL     1      -0.041  12.733  19.311  0.00  0.00    +0.000 A 
BRANCH   7  15
ATOM     15  C   UNL     1      -3.383  13.595  20.695  0.00  0.00    +0.000 C 
ATOM     16  C   UNL     1      -3.642  13.330  22.168  0.00  0.00    +0.000 C 
ATOM     17  C   UNL     1      -4.491  12.663  21.143  0.00  0.00    +0.000 C 
ENDBRANCH   7  15
ENDBRANCH   1  11
BRANCH   2  18
ATOM     18  C   UNL     1       2.938   7.006  18.265  0.00  0.00    +0.000 A 
ATOM     19  C   UNL     1       2.501   5.694  18.523  0.00  0.00    +0.000 A 
ATOM     20  C   UNL     1       3.075   4.588  17.885  0.00  0.00    +0.000 A 
ATOM     21  C   UNL     1       4.096   4.863  16.977  0.00  0.00    +0.000 A 
ATOM     22  N   UNL     1       4.857   4.059  16.169  0.00  0.00    +0.000 N 
ATOM     23  C   UNL     1       5.714   4.858  15.450  0.00  0.00    +0.000 A 
ATOM     24  N   UNL     1       5.544   6.130  15.761  0.00  0.00    +0.000 NA
ATOM     25  C   UNL     1       4.545   6.148  16.699  0.00  0.00    +0.000 A 
ATOM     26  C   UNL     1       3.963   7.247  17.340  0.00  0.00    +0.000 A 
ATOM     27  H   UNL     1       4.792   3.053  16.095  0.00  0.00    +0.000 HD
BRANCH  23  28
ATOM     28  C   UNL     1       6.664   4.279  14.467  0.00  0.00    +0.000 C 
ATOM     29  F   UNL     1       6.038   4.027  13.285  0.00  0.00    +0.000 F 
ATOM     30  F   UNL     1       7.656   5.164  14.179  0.00  0.00    +0.000 F 
ENDBRANCH  23  28
ENDBRANCH   2  18
TORSDOF 4
ENDMDL
MODEL 7
REMARK VINA RESULT:      -8.1      5.159     10.627
REMARK  Name = 
REMARK  5 active torsions:
REMARK  status: ('A' for Active; 'I' for Inactive)
REMARK    1  A    between atoms: C_1  and  N_2
REMARK    2  A    between atoms: C_3  and  C_4
REMARK    3  A    between atoms: C_10  and  N_11
REMARK    4  A    between atoms: C_12  and  C_14
REMARK    5  A    between atoms: C_19  and  C_20
REMARK                            x       y       z     vdW  Elec       q    Type
REMARK                         _______ _______ _______ _____ _____    ______ ____
ROOT
ATOM      1  N   UNL     1       0.864   8.494  20.498  0.00  0.00    +0.000 N 
ATOM      2  C   UNL     1       0.998   9.304  21.613  0.00  0.00    +0.000 C 
ATOM      3  O   UNL     1       1.845   9.201  22.494  0.00  0.00    +0.000 OA
ATOM      4  H   UNL     1       0.131   8.705  19.835  0.00  0.00    +0.000 HD
ENDROOT
BRANCH   1  11
ATOM      5  C   UNL     1       4.281   2.935  19.360  0.00  0.00    +0.000 C 
ATOM      6  N   UNL     1       4.147   4.314  18.968  0.00  0.00    +0.000 N 
ATOM      7  C   UNL     1       4.839   4.981  17.985  0.00  0.00    +0.000 A 
ATOM      8  N   UNL     1       4.389   6.214  17.852  0.00  0.00    +0.000 NA
ATOM      9  C   UNL     1       3.422   6.362  18.807  0.00  0.00    +0.000 A 
ATOM     10  C   UNL     1       2.639   7.484  19.110  0.00  0.00    +0.000 A 
ATOM     11  C   UNL     1       1.710   7.413  20.154  0.00  0.00    +0.000 A 
ATOM     12  C   UNL     1       1.589   6.231  20.900  0.00  0.00    +0.000 A 
ATOM     13  C   UNL     1       2.349   5.091  20.600  0.00  0.00    +0.000 A 
ATOM     14  C   UNL     1       3.257   5.195  19.542  0.00  0.00    +0.000 A 
BRANCH   7  15
ATOM     15  C   UNL     1       5.995   4.443  17.143  0.00  0.00    +0.000 C 
ATOM     16  C   UNL     1       7.401   4.637  17.685  0.00  0.00    +0.000 C 
ATOM     17  C   UNL     1       6.955   5.428  16.506  0.00  0.00    +0.000 C 
ENDBRANCH   7  15
ENDBRANCH   1  11
BRANCH   2  18
ATOM     18  C   UNL     1       0.029  10.426  21.735  0.00  0.00    +0.000 A 
ATOM     19  C   UNL     1       0.025  11.402  20.723  0.00  0.00    +0.000 A 
ATOM     20  C   UNL     1      -0.894  12.458  20.722  0.00  0.00    +0.000 A 
ATOM     21  C   UNL     1      -1.806  12.480  21.775  0.00  0.00    +0.000 A 
ATOM     22  N   UNL     1      -2.840  13.324  22.087  0.00  0.00    +0.000 N 
ATOM     23  C   UNL     1      -3.436  12.869  23.239  0.00  0.00    +0.000 A 
ATOM     24  N   UNL     1      -2.833  11.782  23.683  0.00  0.00    +0.000 NA
ATOM     25  C   UNL     1      -1.828  11.527  22.786  0.00  0.00    +0.000 A 
ATOM     26  C   UNL     1      -0.906  10.475  22.777  0.00  0.00    +0.000 A 
ATOM     27  H   UNL     1      -3.132  14.134  21.556  0.00  0.00    +0.000 HD
BRANCH  23  28
ATOM     28  C   UNL     1      -4.606  13.568  23.828  0.00  0.00    +0.000 C 
ATOM     29  F   UNL     1      -5.370  12.703  24.550  0.00  0.00    +0.000 F 
ATOM     30  F   UNL     1      -4.201  14.525  24.706  0.00  0.00    +0.000 F 
ENDBRANCH  23  28
ENDBRANCH   2  18
TORSDOF 4
ENDMDL
MODEL 8
REMARK VINA RESULT:      -8.0      4.720     10.261
REMARK  Name = 
REMARK  5 active torsions:
REMARK  status: ('A' for Active; 'I' for Inactive)
REMARK    1  A    between atoms: C_1  and  N_2
REMARK    2  A    between atoms: C_3  and  C_4
REMARK    3  A    between atoms: C_10  and  N_11
REMARK    4  A    between atoms: C_12  and  C_14
REMARK    5  A    between atoms: C_19  and  C_20
REMARK                            x       y       z     vdW  Elec       q    Type
REMARK                         _______ _______ _______ _____ _____    ______ ____
ROOT
ATOM      1  N   UNL     1       1.487   7.657  20.702  0.00  0.00    +0.000 N 
ATOM      2  C   UNL     1       1.127   8.857  20.113  0.00  0.00    +0.000 C 
ATOM      3  O   UNL     1       1.311   9.184  18.946  0.00  0.00    +0.000 OA
ATOM      4  H   UNL     1       1.254   7.509  21.674  0.00  0.00    +0.000 HD
ENDROOT
BRANCH   1  11
ATOM      5  C   UNL     1       3.802   2.046  18.053  0.00  0.00    +0.000 C 
ATOM      6  N   UNL     1       3.876   3.481  17.974  0.00  0.00    +0.000 N 
ATOM      7  C   UNL     1       4.592   4.239  17.078  0.00  0.00    +0.000 A 
ATOM      8  N   UNL     1       4.351   5.524  17.256  0.00  0.00    +0.000 NA
ATOM      9  C   UNL     1       3.502   5.599  18.325  0.00  0.00    +0.000 A 
ATOM     10  C   UNL     1       2.948   6.728  18.941  0.00  0.00    +0.000 A 
ATOM     11  C   UNL     1       2.106   6.567  20.046  0.00  0.00    +0.000 A 
ATOM     12  C   UNL     1       1.843   5.279  20.540  0.00  0.00    +0.000 A 
ATOM     13  C   UNL     1       2.371   4.135  19.925  0.00  0.00    +0.000 A 
ATOM     14  C   UNL     1       3.197   4.335  18.816  0.00  0.00    +0.000 A 
BRANCH   7  15
ATOM     15  C   UNL     1       5.570   3.736  16.017  0.00  0.00    +0.000 C 
ATOM     16  C   UNL     1       6.857   4.519  15.828  0.00  0.00    +0.000 C 
ATOM     17  C   UNL     1       5.803   4.579  14.780  0.00  0.00    +0.000 C 
ENDBRANCH   7  15
ENDBRANCH   1  11
BRANCH   2  18
ATOM     18  C   UNL     1       0.424   9.836  20.985  0.00  0.00    +0.000 A 
ATOM     19  C   UNL     1      -0.193   9.350  22.152  0.00  0.00    +0.000 A 
ATOM     20  C   UNL     1      -0.823  10.207  23.063  0.00  0.00    +0.000 A 
ATOM     21  C   UNL     1      -0.796  11.564  22.750  0.00  0.00    +0.000 A 
ATOM     22  N   UNL     1      -1.275  12.673  23.398  0.00  0.00    +0.000 N 
ATOM     23  C   UNL     1      -0.955  13.782  22.651  0.00  0.00    +0.000 A 
ATOM     24  N   UNL     1      -0.301  13.438  21.556  0.00  0.00    +0.000 NA
ATOM     25  C   UNL     1      -0.191  12.073  21.607  0.00  0.00    +0.000 A 
ATOM     26  C   UNL     1       0.437  11.209  20.704  0.00  0.00    +0.000 A 
ATOM     27  H   UNL     1      -1.766  12.684  24.283  0.00  0.00    +0.000 HD
BRANCH  23  28
ATOM     28  C   UNL     1      -1.328  15.147  23.100  0.00  0.00    +0.000 C 
ATOM     29  F   UNL     1      -1.074  16.060  22.123  0.00  0.00    +0.000 F 
ATOM     30  F   UNL     1      -2.664  15.224  23.341  0.00  0.00    +0.000 F 
ENDBRANCH  23  28
ENDBRANCH   2  18
TORSDOF 4
ENDMDL
MODEL 9
REMARK VINA RESULT:      -8.0      1.322      1.476
REMARK  Name = 
REMARK  5 active torsions:
REMARK  status: ('A' for Active; 'I' for Inactive)
REMARK    1  A    between atoms: C_1  and  N_2
REMARK    2  A    between atoms: C_3  and  C_4
REMARK    3  A    between atoms: C_10  and  N_11
REMARK    4  A    between atoms: C_12  and  C_14
REMARK    5  A    between atoms: C_19  and  C_20
REMARK                            x       y       z     vdW  Elec       q    Type
REMARK                         _______ _______ _______ _____ _____    ______ ____
ROOT
ATOM      1  N   UNL     1       1.601   8.336  19.590  0.00  0.00    +0.000 N 
ATOM      2  C   UNL     1       2.164   8.464  18.332  0.00  0.00    +0.000 C 
ATOM      3  O   UNL     1       2.021   9.405  17.559  0.00  0.00    +0.000 OA
ATOM      4  H   UNL     1       1.821   7.513  20.135  0.00  0.00    +0.000 HD
ENDROOT
BRANCH   1  11
ATOM      5  C   UNL     1      -1.675  12.778  23.251  0.00  0.00    +0.000 C 
ATOM      6  N   UNL     1      -1.596  12.189  21.940  0.00  0.00    +0.000 N 
ATOM      7  C   UNL     1      -2.339  12.508  20.828  0.00  0.00    +0.000 A 
ATOM      8  N   UNL     1      -1.932  11.816  19.780  0.00  0.00    +0.000 NA
ATOM      9  C   UNL     1      -0.941  10.993  20.241  0.00  0.00    +0.000 A 
ATOM     10  C   UNL     1      -0.184  10.041  19.545  0.00  0.00    +0.000 A 
ATOM     11  C   UNL     1       0.779   9.293  20.230  0.00  0.00    +0.000 A 
ATOM     12  C   UNL     1       0.959   9.485  21.609  0.00  0.00    +0.000 A 
ATOM     13  C   UNL     1       0.227  10.447  22.319  0.00  0.00    +0.000 A 
ATOM     14  C   UNL     1      -0.716  11.185  21.598  0.00  0.00    +0.000 A 
BRANCH   7  15
ATOM     15  C   UNL     1      -3.504  13.494  20.747  0.00  0.00    +0.000 C 
ATOM     16  C   UNL     1      -4.799  13.100  21.435  0.00  0.00    +0.000 C 
ATOM     17  C   UNL     1      -4.732  13.109  19.948  0.00  0.00    +0.000 C 
ENDBRANCH   7  15
ENDBRANCH   1  11
BRANCH   2  18
ATOM     18  C   UNL     1       3.053   7.356  17.891  0.00  0.00    +0.000 A 
ATOM     19  C   UNL     1       2.891   6.100  18.504  0.00  0.00    +0.000 A 
ATOM     20  C   UNL     1       3.639   4.986  18.107  0.00  0.00    +0.000 A 
ATOM     21  C   UNL     1       4.545   5.190  17.069  0.00  0.00    +0.000 A 
ATOM     22  N   UNL     1       5.410   4.351  16.416  0.00  0.00    +0.000 N 
ATOM     23  C   UNL     1       6.063   5.074  15.446  0.00  0.00    +0.000 A 
ATOM     24  N   UNL     1       5.665   6.333  15.449  0.00  0.00    +0.000 NA
ATOM     25  C   UNL     1       4.724   6.418  16.442  0.00  0.00    +0.000 A 
ATOM     26  C   UNL     1       3.970   7.525  16.844  0.00  0.00    +0.000 A 
ATOM     27  H   UNL     1       5.539   3.365  16.599  0.00  0.00    +0.000 HD
BRANCH  23  28
ATOM     28  C   UNL     1       7.062   4.436  14.552  0.00  0.00    +0.000 C 
ATOM     29  F   UNL     1       6.475   3.485  13.776  0.00  0.00    +0.000 F 
ATOM     30  F   UNL     1       7.584   5.348  13.688  0.00  0.00    +0.000 F 
ENDBRANCH  23  28
ENDBRANCH   2  18
TORSDOF 4
ENDMDL
