MODEL 1
REMARK VINA RESULT:      -8.7      0.000      0.000
REMARK  Name = 
REMARK  4 active torsions:
REMARK  status: ('A' for Active; 'I' for Inactive)
REMARK    1  A    between atoms: C_2  and  C_20
REMARK    2  A    between atoms: N_3  and  C_4
REMARK    3  A    between atoms: C_9  and  S_10
REMARK    4  A    between atoms: S_10  and  N_13
REMARK                            x       y       z     vdW  Elec       q    Type
REMARK                         _______ _______ _______ _____ _____    ______ ____
ROOT
ATOM      1  O   UNL     1       2.274   7.569  18.033  0.00  0.00    +0.000 OA
ATOM      2  C   UNL     1       2.568   6.967  19.062  0.00  0.00    +0.000 C 
ATOM      3  N   UNL     1       2.160   7.325  20.340  0.00  0.00    +0.000 N 
ATOM      4  H   UNL     1       2.513   6.790  21.124  0.00  0.00    +0.000 HD
ENDROOT
BRANCH   2   5
ATOM      5  C   UNL     1       3.457   5.763  18.952  0.00  0.00    +0.000 A 
ATOM      6  C   UNL     1       4.776   5.933  19.149  0.00  0.00    +0.000 A 
ATOM      7  C   UNL     1       5.714   4.790  19.170  0.00  0.00    +0.000 A 
ATOM      8  O   UNL     1       6.919   4.979  19.283  0.00  0.00    +0.000 OA
ATOM      9  N   UNL     1       5.174   3.542  19.071  0.00  0.00    +0.000 N 
ATOM     10  C   UNL     1       3.803   3.302  18.924  0.00  0.00    +0.000 A 
ATOM     11  C   UNL     1       3.352   1.980  18.862  0.00  0.00    +0.000 A 
ATOM     12  C   UNL     1       1.991   1.717  18.718  0.00  0.00    +0.000 A 
ATOM     13  C   UNL     1       1.092   2.773  18.620  0.00  0.00    +0.000 A 
ATOM     14  C   UNL     1       1.551   4.093  18.672  0.00  0.00    +0.000 A 
ATOM     15  C   UNL     1       2.914   4.384  18.840  0.00  0.00    +0.000 A 
ATOM     16  H   UNL     1       5.825   2.771  19.111  0.00  0.00    +0.000 HD
ENDBRANCH   2   5
BRANCH   3  17
ATOM     17  C   UNL     1       1.216   8.336  20.643  0.00  0.00    +0.000 A 
ATOM     18  C   UNL     1      -0.008   8.055  21.261  0.00  0.00    +0.000 A 
ATOM     19  C   UNL     1      -0.790   9.065  21.803  0.00  0.00    +0.000 A 
ATOM     20  C   UNL     1      -0.344  10.375  21.752  0.00  0.00    +0.000 A 
ATOM     21 CL   UNL     1      -0.809  11.332  23.114  0.00  0.00    +0.000 Cl
ATOM     22  C   UNL     1       0.696  10.706  20.894  0.00  0.00    +0.000 A 
ATOM     23  C   UNL     1       1.521   9.679  20.375  0.00  0.00    +0.000 A 
BRANCH  22  24
ATOM     24  S   UNL     1       0.918  12.346  20.300  0.00  0.00    +0.000 S 
ATOM     25  O   UNL     1       1.122  13.164  21.481  0.00  0.00    +0.000 OA
ATOM     26  O   UNL     1       1.940  12.272  19.263  0.00  0.00    +0.000 OA
BRANCH  24  27
ATOM     27  N   UNL     1      -0.501  12.820  19.570  0.00  0.00    +0.000 NA
ATOM     28  C   UNL     1      -1.590  13.526  20.269  0.00  0.00    +0.000 C 
ATOM     29  C   UNL     1      -2.821  12.607  20.409  0.00  0.00    +0.000 C 
ATOM     30  O   UNL     1      -3.151  11.864  19.220  0.00  0.00    +0.000 OA
ATOM     31  C   UNL     1      -2.017  11.191  18.646  0.00  0.00    +0.000 C 
ATOM     32  C   UNL     1      -0.942  12.213  18.301  0.00  0.00    +0.000 C 
ENDBRANCH  24  27
ENDBRANCH  22  24
ENDBRANCH   3  17
TORSDOF 4
ENDMDL
MODEL 2
REMARK VINA RESULT:      -8.7      1.370      2.226
REMARK  Name = 
REMARK  4 active torsions:
REMARK  status: ('A' for Active; 'I' for Inactive)
REMARK    1  A    between atoms: C_2  and  C_20
REMARK    2  A    between atoms: N_3  and  C_4
REMARK    3  A    between atoms: C_9  and  S_10
REMARK    4  A    between atoms: S_10  and  N_13
REMARK                            x       y       z     vdW  Elec       q    Type
REMARK                         _______ _______ _______ _____ _____    ______ ____
ROOT
ATOM      1  O   UNL     1       2.196   7.570  18.128  0.00  0.00    +0.000 OA
ATOM      2  C   UNL     1       2.526   6.966  19.145  0.00  0.00    +0.000 C 
ATOM      3  N   UNL     1       2.144   7.307  20.436  0.00  0.00    +0.000 N 
ATOM      4  H   UNL     1       2.526   6.772  21.207  0.00  0.00    +0.000 HD
ENDROOT
BRANCH   2   5
ATOM      5  C   UNL     1       3.436   5.781  19.003  0.00  0.00    +0.000 A 
ATOM      6  C   UNL     1       4.753   5.969  19.197  0.00  0.00    +0.000 A 
ATOM      7  C   UNL     1       5.710   4.842  19.187  0.00  0.00    +0.000 A 
ATOM      8  O   UNL     1       6.913   5.050  19.297  0.00  0.00    +0.000 OA
ATOM      9  N   UNL     1       5.191   3.588  19.064  0.00  0.00    +0.000 N 
ATOM     10  C   UNL     1       3.824   3.327  18.920  0.00  0.00    +0.000 A 
ATOM     11  C   UNL     1       3.395   1.998  18.832  0.00  0.00    +0.000 A 
ATOM     12  C   UNL     1       2.038   1.715  18.690  0.00  0.00    +0.000 A 
ATOM     13  C   UNL     1       1.121   2.758  18.620  0.00  0.00    +0.000 A 
ATOM     14  C   UNL     1       1.557   4.084  18.698  0.00  0.00    +0.000 A 
ATOM     15  C   UNL     1       2.915   4.395  18.865  0.00  0.00    +0.000 A 
ATOM     16  H   UNL     1       5.856   2.827  19.083  0.00  0.00    +0.000 HD
ENDBRANCH   2   5
BRANCH   3  17
ATOM     17  C   UNL     1       1.187   8.296  20.769  0.00  0.00    +0.000 A 
ATOM     18  C   UNL     1       0.679   8.438  22.065  0.00  0.00    +0.000 A 
ATOM     19  C   UNL     1      -0.030   9.571  22.442  0.00  0.00    +0.000 A 
ATOM     20  C   UNL     1      -0.220  10.592  21.525  0.00  0.00    +0.000 A 
ATOM     21 CL   UNL     1      -0.241  12.171  22.225  0.00  0.00    +0.000 Cl
ATOM     22  C   UNL     1       0.006  10.347  20.178  0.00  0.00    +0.000 A 
ATOM     23  C   UNL     1       0.765   9.214  19.796  0.00  0.00    +0.000 A 
BRANCH  22  24
ATOM     24  S   UNL     1      -0.763  11.308  18.922  0.00  0.00    +0.000 S 
ATOM     25  O   UNL     1      -0.846  10.438  17.763  0.00  0.00    +0.000 OA
ATOM     26  O   UNL     1      -1.970  11.869  19.516  0.00  0.00    +0.000 OA
BRANCH  24  27
ATOM     27  N   UNL     1       0.252  12.576  18.558  0.00  0.00    +0.000 NA
ATOM     28  C   UNL     1       1.722  12.506  18.645  0.00  0.00    +0.000 C 
ATOM     29  C   UNL     1       2.233  13.383  19.805  0.00  0.00    +0.000 C 
ATOM     30  O   UNL     1       1.613  14.681  19.892  0.00  0.00    +0.000 OA
ATOM     31  C   UNL     1       0.177  14.622  19.829  0.00  0.00    +0.000 C 
ATOM     32  C   UNL     1      -0.247  13.963  18.524  0.00  0.00    +0.000 C 
ENDBRANCH  24  27
ENDBRANCH  22  24
ENDBRANCH   3  17
TORSDOF 4
ENDMDL
MODEL 3
REMARK VINA RESULT:      -8.7      2.005      2.470
REMARK  Name = 
REMARK  4 active torsions:
REMARK  status: ('A' for Active; 'I' for Inactive)
REMARK    1  A    between atoms: C_2  and  C_20
REMARK    2  A    between atoms: N_3  and  C_4
REMARK    3  A    between atoms: C_9  and  S_10
REMARK    4  A    between atoms: S_10  and  N_13
REMARK                            x       y       z     vdW  Elec       q    Type
REMARK                         _______ _______ _______ _____ _____    ______ ____
ROOT
ATOM      1  O   UNL     1       1.750   8.657  17.299  0.00  0.00    +0.000 OA
ATOM      2  C   UNL     1       2.300   7.963  18.150  0.00  0.00    +0.000 C 
ATOM      3  N   UNL     1       2.070   8.046  19.517  0.00  0.00    +0.000 N 
ATOM      4  H   UNL     1       2.625   7.465  20.133  0.00  0.00    +0.000 HD
ENDROOT
BRANCH   2   5
ATOM      5  C   UNL     1       3.322   6.962  17.698  0.00  0.00    +0.000 A 
ATOM      6  C   UNL     1       4.568   7.400  17.449  0.00  0.00    +0.000 A 
ATOM      7  C   UNL     1       5.667   6.471  17.108  0.00  0.00    +0.000 A 
ATOM      8  O   UNL     1       6.776   6.904  16.818  0.00  0.00    +0.000 OA
ATOM      9  N   UNL     1       5.386   5.138  17.145  0.00  0.00    +0.000 N 
ATOM     10  C   UNL     1       4.124   4.621  17.456  0.00  0.00    +0.000 A 
ATOM     11  C   UNL     1       3.952   3.234  17.495  0.00  0.00    +0.000 A 
ATOM     12  C   UNL     1       2.704   2.697  17.805  0.00  0.00    +0.000 A 
ATOM     13  C   UNL     1       1.633   3.547  18.056  0.00  0.00    +0.000 A 
ATOM     14  C   UNL     1       1.809   4.933  18.006  0.00  0.00    +0.000 A 
ATOM     15  C   UNL     1       3.060   5.498  17.719  0.00  0.00    +0.000 A 
ATOM     16  H   UNL     1       6.154   4.516  16.932  0.00  0.00    +0.000 HD
ENDBRANCH   2   5
BRANCH   3  17
ATOM     17  C   UNL     1       1.054   8.821  20.129  0.00  0.00    +0.000 A 
ATOM     18  C   UNL     1       0.728   8.690  21.483  0.00  0.00    +0.000 A 
ATOM     19  C   UNL     1      -0.056   9.635  22.130  0.00  0.00    +0.000 A 
ATOM     20  C   UNL     1      -0.507  10.741  21.429  0.00  0.00    +0.000 A 
ATOM     21 CL   UNL     1      -0.627  12.178  22.382  0.00  0.00    +0.000 Cl
ATOM     22  C   UNL     1      -0.453  10.737  20.042  0.00  0.00    +0.000 A 
ATOM     23  C   UNL     1       0.380   9.800  19.384  0.00  0.00    +0.000 A 
BRANCH  22  24
ATOM     24  S   UNL     1      -1.514  11.748  19.072  0.00  0.00    +0.000 S 
ATOM     25  O   UNL     1      -2.376  12.430  20.020  0.00  0.00    +0.000 OA
ATOM     26  O   UNL     1      -0.652  12.507  18.175  0.00  0.00    +0.000 OA
BRANCH  24  27
ATOM     27  N   UNL     1      -2.455  10.745  18.133  0.00  0.00    +0.000 NA
ATOM     28  C   UNL     1      -1.981  10.089  16.901  0.00  0.00    +0.000 C 
ATOM     29  C   UNL     1      -2.680  10.695  15.667  0.00  0.00    +0.000 C 
ATOM     30  O   UNL     1      -4.098  10.897  15.823  0.00  0.00    +0.000 OA
ATOM     31  C   UNL     1      -4.437  11.576  17.044  0.00  0.00    +0.000 C 
ATOM     32  C   UNL     1      -3.925  10.772  18.231  0.00  0.00    +0.000 C 
ENDBRANCH  24  27
ENDBRANCH  22  24
ENDBRANCH   3  17
TORSDOF 4
ENDMDL
MODEL 4
REMARK VINA RESULT:      -8.5      3.427      8.607
REMARK  Name = 
REMARK  4 active torsions:
REMARK  status: ('A' for Active; 'I' for Inactive)
REMARK    1  A    between atoms: C_2  and  C_20
REMARK    2  A    between atoms: N_3  and  C_4
REMARK    3  A    between atoms: C_9  and  S_10
REMARK    4  A    between atoms: S_10  and  N_13
REMARK                            x       y       z     vdW  Elec       q    Type
REMARK                         _______ _______ _______ _____ _____    ______ ____
ROOT
ATOM      1  O   UNL     1       2.058   9.956  17.310  0.00  0.00    +0.000 OA
ATOM      2  C   UNL     1       1.466   9.404  18.234  0.00  0.00    +0.000 C 
ATOM      3  N   UNL     1       1.638   8.080  18.613  0.00  0.00    +0.000 N 
ATOM      4  H   UNL     1       1.051   7.712  19.353  0.00  0.00    +0.000 HD
ENDROOT
BRANCH   2   5
ATOM      5  C   UNL     1       0.456  10.201  19.007  0.00  0.00    +0.000 A 
ATOM      6  C   UNL     1       0.872  10.852  20.107  0.00  0.00    +0.000 A 
ATOM      7  C   UNL     1      -0.025  11.749  20.867  0.00  0.00    +0.000 A 
ATOM      8  O   UNL     1       0.360  12.275  21.905  0.00  0.00    +0.000 OA
ATOM      9  N   UNL     1      -1.269  11.961  20.355  0.00  0.00    +0.000 N 
ATOM     10  C   UNL     1      -1.737  11.359  19.182  0.00  0.00    +0.000 A 
ATOM     11  C   UNL     1      -3.022  11.671  18.727  0.00  0.00    +0.000 A 
ATOM     12  C   UNL     1      -3.508  11.084  17.561  0.00  0.00    +0.000 A 
ATOM     13  C   UNL     1      -2.715  10.178  16.865  0.00  0.00    +0.000 A 
ATOM     14  C   UNL     1      -1.435   9.862  17.330  0.00  0.00    +0.000 A 
ATOM     15  C   UNL     1      -0.915  10.457  18.489  0.00  0.00    +0.000 A 
ATOM     16  H   UNL     1      -1.862  12.596  20.873  0.00  0.00    +0.000 HD
ENDBRANCH   2   5
BRANCH   3  17
ATOM     17  C   UNL     1       2.632   7.208  18.107  0.00  0.00    +0.000 A 
ATOM     18  C   UNL     1       3.862   7.673  17.629  0.00  0.00    +0.000 A 
ATOM     19  C   UNL     1       4.923   6.807  17.404  0.00  0.00    +0.000 A 
ATOM     20  C   UNL     1       4.770   5.458  17.677  0.00  0.00    +0.000 A 
ATOM     21 CL   UNL     1       6.210   4.686  18.242  0.00  0.00    +0.000 Cl
ATOM     22  C   UNL     1       3.495   4.940  17.858  0.00  0.00    +0.000 A 
ATOM     23  C   UNL     1       2.420   5.821  18.129  0.00  0.00    +0.000 A 
BRANCH  22  24
ATOM     24  S   UNL     1       3.142   3.238  17.593  0.00  0.00    +0.000 S 
ATOM     25  O   UNL     1       2.053   3.211  16.633  0.00  0.00    +0.000 OA
ATOM     26  O   UNL     1       4.415   2.597  17.287  0.00  0.00    +0.000 OA
BRANCH  24  27
ATOM     27  N   UNL     1       2.594   2.601  19.030  0.00  0.00    +0.000 NA
ATOM     28  C   UNL     1       1.171   2.364  19.335  0.00  0.00    +0.000 C 
ATOM     29  C   UNL     1       0.687   3.341  20.425  0.00  0.00    +0.000 C 
ATOM     30  O   UNL     1       1.597   3.505  21.530  0.00  0.00    +0.000 OA
ATOM     31  C   UNL     1       2.947   3.765  21.110  0.00  0.00    +0.000 C 
ATOM     32  C   UNL     1       3.438   2.617  20.238  0.00  0.00    +0.000 C 
ENDBRANCH  24  27
ENDBRANCH  22  24
ENDBRANCH   3  17
TORSDOF 4
ENDMDL
MODEL 5
REMARK VINA RESULT:      -8.5      2.317      2.947
REMARK  Name = 
REMARK  4 active torsions:
REMARK  status: ('A' for Active; 'I' for Inactive)
REMARK    1  A    between atoms: C_2  and  C_20
REMARK    2  A    between atoms: N_3  and  C_4
REMARK    3  A    between atoms: C_9  and  S_10
REMARK    4  A    between atoms: S_10  and  N_13
REMARK                            x       y       z     vdW  Elec       q    Type
REMARK                         _______ _______ _______ _____ _____    ______ ____
ROOT
ATOM      1  O   UNL     1       2.158   7.545  19.688  0.00  0.00    +0.000 OA
ATOM      2  C   UNL     1       2.338   7.659  18.479  0.00  0.00    +0.000 C 
ATOM      3  N   UNL     1       1.748   8.623  17.672  0.00  0.00    +0.000 N 
ATOM      4  H   UNL     1       1.921   8.586  16.675  0.00  0.00    +0.000 HD
ENDROOT
BRANCH   2   5
ATOM      5  C   UNL     1       3.239   6.671  17.798  0.00  0.00    +0.000 A 
ATOM      6  C   UNL     1       4.431   7.106  17.352  0.00  0.00    +0.000 A 
ATOM      7  C   UNL     1       5.429   6.183  16.770  0.00  0.00    +0.000 A 
ATOM      8  O   UNL     1       6.477   6.617  16.308  0.00  0.00    +0.000 OA
ATOM      9  N   UNL     1       5.129   4.854  16.787  0.00  0.00    +0.000 N 
ATOM     10  C   UNL     1       3.931   4.337  17.293  0.00  0.00    +0.000 A 
ATOM     11  C   UNL     1       3.737   2.952  17.290  0.00  0.00    +0.000 A 
ATOM     12  C   UNL     1       2.553   2.416  17.791  0.00  0.00    +0.000 A 
ATOM     13  C   UNL     1       1.564   3.264  18.276  0.00  0.00    +0.000 A 
ATOM     14  C   UNL     1       1.760   4.648  18.267  0.00  0.00    +0.000 A 
ATOM     15  C   UNL     1       2.952   5.212  17.789  0.00  0.00    +0.000 A 
ATOM     16  H   UNL     1       5.831   4.234  16.407  0.00  0.00    +0.000 HD
ENDBRANCH   2   5
BRANCH   3  17
ATOM     17  C   UNL     1       0.983   9.720  18.137  0.00  0.00    +0.000 A 
ATOM     18  C   UNL     1      -0.413   9.752  18.041  0.00  0.00    +0.000 A 
ATOM     19  C   UNL     1      -1.162  10.686  18.744  0.00  0.00    +0.000 A 
ATOM     20  C   UNL     1      -0.520  11.590  19.574  0.00  0.00    +0.000 A 
ATOM     21 CL   UNL     1      -1.424  12.019  20.983  0.00  0.00    +0.000 Cl
ATOM     22  C   UNL     1       0.851  11.770  19.452  0.00  0.00    +0.000 A 
ATOM     23  C   UNL     1       1.621  10.797  18.771  0.00  0.00    +0.000 A 
BRANCH  22  24
ATOM     24  S   UNL     1       1.638  13.255  19.971  0.00  0.00    +0.000 S 
ATOM     25  O   UNL     1       2.053  13.017  21.341  0.00  0.00    +0.000 OA
ATOM     26  O   UNL     1       2.620  13.579  18.944  0.00  0.00    +0.000 OA
BRANCH  24  27
ATOM     27  N   UNL     1       0.494  14.465  19.970  0.00  0.00    +0.000 NA
ATOM     28  C   UNL     1      -0.025  15.106  18.748  0.00  0.00    +0.000 C 
ATOM     29  C   UNL     1       0.463  16.565  18.659  0.00  0.00    +0.000 C 
ATOM     30  O   UNL     1       0.379  17.301  19.895  0.00  0.00    +0.000 OA
ATOM     31  C   UNL     1       0.947  16.591  21.010  0.00  0.00    +0.000 C 
ATOM     32  C   UNL     1       0.229  15.260  21.182  0.00  0.00    +0.000 C 
ENDBRANCH  24  27
ENDBRANCH  22  24
ENDBRANCH   3  17
TORSDOF 4
ENDMDL
MODEL 6
REMARK VINA RESULT:      -8.4      3.367      9.010
REMARK  Name = 
REMARK  4 active torsions:
REMARK  status: ('A' for Active; 'I' for Inactive)
REMARK    1  A    between atoms: C_2  and  C_20
REMARK    2  A    between atoms: N_3  and  C_4
REMARK    3  A    between atoms: C_9  and  S_10
REMARK    4  A    between atoms: S_10  and  N_13
REMARK                            x       y       z     vdW  Elec       q    Type
REMARK                         _______ _______ _______ _____ _____    ______ ____
ROOT
ATOM      1  O   UNL     1       0.601   9.343  20.877  0.00  0.00    +0.000 OA
ATOM      2  C   UNL     1       0.783   9.416  19.665  0.00  0.00    +0.000 C 
ATOM      3  N   UNL     1       1.523   8.512  18.914  0.00  0.00    +0.000 N 
ATOM      4  H   UNL     1       1.658   8.704  17.929  0.00  0.00    +0.000 HD
ENDROOT
BRANCH   2   5
ATOM      5  C   UNL     1       0.190  10.580  18.926  0.00  0.00    +0.000 A 
ATOM      6  C   UNL     1      -0.919  10.366  18.196  0.00  0.00    +0.000 A 
ATOM      7  C   UNL     1      -1.635  11.472  17.525  0.00  0.00    +0.000 A 
ATOM      8  O   UNL     1      -2.602  11.240  16.809  0.00  0.00    +0.000 OA
ATOM      9  N   UNL     1      -1.177  12.735  17.752  0.00  0.00    +0.000 N 
ATOM     10  C   UNL     1      -0.065  13.024  18.550  0.00  0.00    +0.000 A 
ATOM     11  C   UNL     1       0.302  14.360  18.742  0.00  0.00    +0.000 A 
ATOM     12  C   UNL     1       1.405  14.670  19.535  0.00  0.00    +0.000 A 
ATOM     13  C   UNL     1       2.144  13.647  20.118  0.00  0.00    +0.000 A 
ATOM     14  C   UNL     1       1.777  12.313  19.914  0.00  0.00    +0.000 A 
ATOM     15  C   UNL     1       0.658  11.975  19.139  0.00  0.00    +0.000 A 
ATOM     16  H   UNL     1      -1.692  13.482  17.305  0.00  0.00    +0.000 HD
ENDBRANCH   2   5
BRANCH   3  17
ATOM     17  C   UNL     1       2.043   7.285  19.393  0.00  0.00    +0.000 A 
ATOM     18  C   UNL     1       1.659   6.741  20.624  0.00  0.00    +0.000 A 
ATOM     19  C   UNL     1       1.950   5.423  20.951  0.00  0.00    +0.000 A 
ATOM     20  C   UNL     1       2.614   4.624  20.034  0.00  0.00    +0.000 A 
ATOM     21 CL   UNL     1       2.144   2.962  20.080  0.00  0.00    +0.000 Cl
ATOM     22  C   UNL     1       3.257   5.216  18.956  0.00  0.00    +0.000 A 
ATOM     23  C   UNL     1       2.930   6.545  18.597  0.00  0.00    +0.000 A 
BRANCH  22  24
ATOM     24  S   UNL     1       4.589   4.423  18.126  0.00  0.00    +0.000 S 
ATOM     25  O   UNL     1       5.605   4.205  19.140  0.00  0.00    +0.000 OA
ATOM     26  O   UNL     1       4.010   3.298  17.402  0.00  0.00    +0.000 OA
BRANCH  24  27
ATOM     27  N   UNL     1       5.192   5.488  16.997  0.00  0.00    +0.000 NA
ATOM     28  C   UNL     1       5.297   5.188  15.557  0.00  0.00    +0.000 C 
ATOM     29  C   UNL     1       6.777   5.049  15.146  0.00  0.00    +0.000 C 
ATOM     30  O   UNL     1       7.647   6.059  15.691  0.00  0.00    +0.000 OA
ATOM     31  C   UNL     1       7.479   6.240  17.108  0.00  0.00    +0.000 C 
ATOM     32  C   UNL     1       6.036   6.626  17.402  0.00  0.00    +0.000 C 
ENDBRANCH  24  27
ENDBRANCH  22  24
ENDBRANCH   3  17
TORSDOF 4
ENDMDL
MODEL 7
REMARK VINA RESULT:      -8.4      3.225      8.462
REMARK  Name = 
REMARK  4 active torsions:
REMARK  status: ('A' for Active; 'I' for Inactive)
REMARK    1  A    between atoms: C_2  and  C_20
REMARK    2  A    between atoms: N_3  and  C_4
REMARK    3  A    between atoms: C_9  and  S_10
REMARK    4  A    between atoms: S_10  and  N_13
REMARK                            x       y       z     vdW  Elec       q    Type
REMARK                         _______ _______ _______ _____ _____    ______ ____
ROOT
ATOM      1  O   UNL     1       1.469   8.248  18.098  0.00  0.00    +0.000 OA
ATOM      2  C   UNL     1       1.491   8.568  19.283  0.00  0.00    +0.000 C 
ATOM      3  N   UNL     1       1.684   7.691  20.342  0.00  0.00    +0.000 N 
ATOM      4  H   UNL     1       1.622   8.056  21.285  0.00  0.00    +0.000 HD
ENDROOT
BRANCH   2   5
ATOM      5  C   UNL     1       1.266  10.009  19.635  0.00  0.00    +0.000 A 
ATOM      6  C   UNL     1       1.619  10.942  18.733  0.00  0.00    +0.000 A 
ATOM      7  C   UNL     1       1.334  12.377  18.944  0.00  0.00    +0.000 A 
ATOM      8  O   UNL     1       1.728  13.212  18.139  0.00  0.00    +0.000 OA
ATOM      9  N   UNL     1       0.615  12.710  20.053  0.00  0.00    +0.000 N 
ATOM     10  C   UNL     1       0.169  11.777  20.996  0.00  0.00    +0.000 A 
ATOM     11  C   UNL     1      -0.589  12.223  22.083  0.00  0.00    +0.000 A 
ATOM     12  C   UNL     1      -1.044  11.311  23.033  0.00  0.00    +0.000 A 
ATOM     13  C   UNL     1      -0.728   9.963  22.901  0.00  0.00    +0.000 A 
ATOM     14  C   UNL     1       0.039   9.525  21.816  0.00  0.00    +0.000 A 
ATOM     15  C   UNL     1       0.490  10.420  20.835  0.00  0.00    +0.000 A 
ATOM     16  H   UNL     1       0.408  13.692  20.171  0.00  0.00    +0.000 HD
ENDBRANCH   2   5
BRANCH   3  17
ATOM     17  C   UNL     1       2.047   6.328  20.218  0.00  0.00    +0.000 A 
ATOM     18  C   UNL     1       1.152   5.287  20.492  0.00  0.00    +0.000 A 
ATOM     19  C   UNL     1       1.422   3.983  20.100  0.00  0.00    +0.000 A 
ATOM     20  C   UNL     1       2.588   3.707  19.406  0.00  0.00    +0.000 A 
ATOM     21 CL   UNL     1       2.432   2.438  18.244  0.00  0.00    +0.000 Cl
ATOM     22  C   UNL     1       3.609   4.646  19.391  0.00  0.00    +0.000 A 
ATOM     23  C   UNL     1       3.325   5.986  19.750  0.00  0.00    +0.000 A 
BRANCH  22  24
ATOM     24  S   UNL     1       5.282   4.189  19.103  0.00  0.00    +0.000 S 
ATOM     25  O   UNL     1       6.082   5.170  19.813  0.00  0.00    +0.000 OA
ATOM     26  O   UNL     1       5.383   2.772  19.430  0.00  0.00    +0.000 OA
BRANCH  24  27
ATOM     27  N   UNL     1       5.580   4.348  17.472  0.00  0.00    +0.000 NA
ATOM     28  C   UNL     1       6.931   4.382  16.882  0.00  0.00    +0.000 C 
ATOM     29  C   UNL     1       7.241   5.790  16.335  0.00  0.00    +0.000 C 
ATOM     30  O   UNL     1       6.164   6.394  15.593  0.00  0.00    +0.000 OA
ATOM     31  C   UNL     1       4.903   6.330  16.282  0.00  0.00    +0.000 C 
ATOM     32  C   UNL     1       4.550   4.876  16.560  0.00  0.00    +0.000 C 
ENDBRANCH  24  27
ENDBRANCH  22  24
ENDBRANCH   3  17
TORSDOF 4
ENDMDL
MODEL 8
REMARK VINA RESULT:      -8.4      1.548      2.322
REMARK  Name = 
REMARK  4 active torsions:
REMARK  status: ('A' for Active; 'I' for Inactive)
REMARK    1  A    between atoms: C_2  and  C_20
REMARK    2  A    between atoms: N_3  and  C_4
REMARK    3  A    between atoms: C_9  and  S_10
REMARK    4  A    between atoms: S_10  and  N_13
REMARK                            x       y       z     vdW  Elec       q    Type
REMARK                         _______ _______ _______ _____ _____    ______ ____
ROOT
ATOM      1  O   UNL     1       2.251   7.502  17.967  0.00  0.00    +0.000 OA
ATOM      2  C   UNL     1       2.561   6.930  19.009  0.00  0.00    +0.000 C 
ATOM      3  N   UNL     1       2.154   7.314  20.280  0.00  0.00    +0.000 N 
ATOM      4  H   UNL     1       2.520   6.804  21.075  0.00  0.00    +0.000 HD
ENDROOT
BRANCH   2   5
ATOM      5  C   UNL     1       3.470   5.740  18.923  0.00  0.00    +0.000 A 
ATOM      6  C   UNL     1       4.785   5.934  19.127  0.00  0.00    +0.000 A 
ATOM      7  C   UNL     1       5.740   4.806  19.172  0.00  0.00    +0.000 A 
ATOM      8  O   UNL     1       6.942   5.017  19.289  0.00  0.00    +0.000 OA
ATOM      9  N   UNL     1       5.221   3.549  19.088  0.00  0.00    +0.000 N 
ATOM     10  C   UNL     1       3.856   3.284  18.936  0.00  0.00    +0.000 A 
ATOM     11  C   UNL     1       3.426   1.954  18.891  0.00  0.00    +0.000 A 
ATOM     12  C   UNL     1       2.070   1.667  18.742  0.00  0.00    +0.000 A 
ATOM     13  C   UNL     1       1.156   2.708  18.621  0.00  0.00    +0.000 A 
ATOM     14  C   UNL     1       1.593   4.035  18.656  0.00  0.00    +0.000 A 
ATOM     15  C   UNL     1       2.950   4.350  18.829  0.00  0.00    +0.000 A 
ATOM     16  H   UNL     1       5.885   2.789  19.144  0.00  0.00    +0.000 HD
ENDBRANCH   2   5
BRANCH   3  17
ATOM     17  C   UNL     1       1.194   8.315  20.563  0.00  0.00    +0.000 A 
ATOM     18  C   UNL     1       0.151   8.115  21.474  0.00  0.00    +0.000 A 
ATOM     19  C   UNL     1      -0.604   9.178  21.951  0.00  0.00    +0.000 A 
ATOM     20  C   UNL     1      -0.307  10.465  21.534  0.00  0.00    +0.000 A 
ATOM     21 CL   UNL     1      -0.583  11.676  22.736  0.00  0.00    +0.000 Cl
ATOM     22  C   UNL     1       0.504  10.651  20.424  0.00  0.00    +0.000 A 
ATOM     23  C   UNL     1       1.306   9.579  19.963  0.00  0.00    +0.000 A 
BRANCH  22  24
ATOM     24  S   UNL     1       0.442  12.126  19.469  0.00  0.00    +0.000 S 
ATOM     25  O   UNL     1       1.348  11.908  18.356  0.00  0.00    +0.000 OA
ATOM     26  O   UNL     1      -0.970  12.402  19.233  0.00  0.00    +0.000 OA
BRANCH  24  27
ATOM     27  N   UNL     1       1.045  13.365  20.404  0.00  0.00    +0.000 NA
ATOM     28  C   UNL     1       0.348  14.645  20.622  0.00  0.00    +0.000 C 
ATOM     29  C   UNL     1       1.098  15.791  19.913  0.00  0.00    +0.000 C 
ATOM     30  O   UNL     1       2.529  15.763  20.081  0.00  0.00    +0.000 OA
ATOM     31  C   UNL     1       3.100  14.472  19.808  0.00  0.00    +0.000 C 
ATOM     32  C   UNL     1       2.479  13.437  20.736  0.00  0.00    +0.000 C 
ENDBRANCH  24  27
ENDBRANCH  22  24
ENDBRANCH   3  17
TORSDOF 4
ENDMDL
MODEL 9
REMARK VINA RESULT:      -8.4      3.465      8.946
REMARK  Name = 
REMARK  4 active torsions:
REMARK  status: ('A' for Active; 'I' for Inactive)
REMARK    1  A    between atoms: C_2  and  C_20
REMARK    2  A    between atoms: N_3  and  C_4
REMARK    3  A    between atoms: C_9  and  S_10
REMARK    4  A    between atoms: S_10  and  N_13
REMARK                            x       y       z     vdW  Elec       q    Type
REMARK                         _______ _______ _______ _____ _____    ______ ____
ROOT
ATOM      1  O   UNL     1       1.176   9.018  19.963  0.00  0.00    +0.000 OA
ATOM      2  C   UNL     1       1.119   9.524  18.846  0.00  0.00    +0.000 C 
ATOM      3  N   UNL     1       1.833   9.091  17.736  0.00  0.00    +0.000 N 
ATOM      4  H   UNL     1       1.754   9.622  16.878  0.00  0.00    +0.000 HD
ENDROOT
BRANCH   2   5
ATOM      5  C   UNL     1       0.234  10.720  18.652  0.00  0.00    +0.000 A 
ATOM      6  C   UNL     1      -1.096  10.525  18.626  0.00  0.00    +0.000 A 
ATOM      7  C   UNL     1      -2.047  11.654  18.552  0.00  0.00    +0.000 A 
ATOM      8  O   UNL     1      -3.251  11.444  18.459  0.00  0.00    +0.000 OA
ATOM      9  N   UNL     1      -1.524  12.911  18.603  0.00  0.00    +0.000 N 
ATOM     10  C   UNL     1      -0.153  13.176  18.691  0.00  0.00    +0.000 A 
ATOM     11  C   UNL     1       0.276  14.505  18.768  0.00  0.00    +0.000 A 
ATOM     12  C   UNL     1       1.636  14.791  18.859  0.00  0.00    +0.000 A 
ATOM     13  C   UNL     1       2.560  13.752  18.854  0.00  0.00    +0.000 A 
ATOM     14  C   UNL     1       2.126  12.426  18.767  0.00  0.00    +0.000 A 
ATOM     15  C   UNL     1       0.760  12.110  18.698  0.00  0.00    +0.000 A 
ATOM     16  H   UNL     1      -2.189  13.672  18.575  0.00  0.00    +0.000 HD
ENDBRANCH   2   5
BRANCH   3  17
ATOM     17  C   UNL     1       2.608   7.908  17.675  0.00  0.00    +0.000 A 
ATOM     18  C   UNL     1       4.001   7.932  17.541  0.00  0.00    +0.000 A 
ATOM     19  C   UNL     1       4.767   6.797  17.765  0.00  0.00    +0.000 A 
ATOM     20  C   UNL     1       4.145   5.620  18.150  0.00  0.00    +0.000 A 
ATOM     21 CL   UNL     1       5.086   4.645  19.222  0.00  0.00    +0.000 Cl
ATOM     22  C   UNL     1       2.772   5.495  17.996  0.00  0.00    +0.000 A 
ATOM     23  C   UNL     1       1.986   6.658  17.810  0.00  0.00    +0.000 A 
BRANCH  22  24
ATOM     24  S   UNL     1       1.996   3.923  17.857  0.00  0.00    +0.000 S 
ATOM     25  O   UNL     1       0.794   4.150  17.077  0.00  0.00    +0.000 OA
ATOM     26  O   UNL     1       3.021   3.000  17.388  0.00  0.00    +0.000 OA
BRANCH  24  27
ATOM     27  N   UNL     1       1.549   3.439  19.386  0.00  0.00    +0.000 NA
ATOM     28  C   UNL     1       1.169   4.368  20.466  0.00  0.00    +0.000 C 
ATOM     29  C   UNL     1       2.243   4.372  21.572  0.00  0.00    +0.000 C 
ATOM     30  O   UNL     1       2.724   3.065  21.943  0.00  0.00    +0.000 OA
ATOM     31  C   UNL     1       3.096   2.262  20.810  0.00  0.00    +0.000 C 
ATOM     32  C   UNL     1       1.895   2.097  19.889  0.00  0.00    +0.000 C 
ENDBRANCH  24  27
ENDBRANCH  22  24
ENDBRANCH   3  17
TORSDOF 4
ENDMDL
