MODEL 1
REMARK VINA RESULT:      -7.7      0.000      0.000
REMARK  Name = 
REMARK  8 active torsions:
REMARK  status: ('A' for Active; 'I' for Inactive)
REMARK    1  A    between atoms: C_1  and  C_2
REMARK    2  A    between atoms: C_2  and  C_3
REMARK    3  A    between atoms: C_4  and  C_5
REMARK    4  A    between atoms: N_9  and  C_10
REMARK    5  A    between atoms: C_14  and  N_15
REMARK    6  A    between atoms: C_20  and  N_21
REMARK    7  A    between atoms: N_21  and  C_22
REMARK    8  A    between atoms: C_26  and  C_27
REMARK                            x       y       z     vdW  Elec       q    Type
REMARK                         _______ _______ _______ _____ _____    ______ ____
ROOT
ATOM      1  N   UNL     1       2.635   7.665  19.167  0.00  0.00    +0.000 N 
ATOM      2  C   UNL     1       2.027   8.010  20.444  0.00  0.00    +0.000 C 
ATOM      3  C   UNL     1       0.980   9.008  20.052  0.00  0.00    +0.000 A 
ATOM      4  C   UNL     1       1.126   9.309  18.706  0.00  0.00    +0.000 A 
ATOM      5  C   UNL     1       0.228  10.048  17.973  0.00  0.00    +0.000 A 
ATOM      6  C   UNL     1      -0.900  10.520  18.619  0.00  0.00    +0.000 A 
ATOM      7  C   UNL     1      -1.040  10.276  20.010  0.00  0.00    +0.000 A 
ATOM      8  C   UNL     1      -0.080   9.547  20.758  0.00  0.00    +0.000 A 
ATOM      9  C   UNL     1       2.188   8.504  18.144  0.00  0.00    +0.000 C 
ATOM     10  O   UNL     1       2.475   8.507  16.958  0.00  0.00    +0.000 OA
ENDROOT
BRANCH   1  16
ATOM     11  C   UNL     1       4.032   6.021  18.056  0.00  0.00    +0.000 A 
ATOM     12  C   UNL     1       4.033   4.860  17.240  0.00  0.00    +0.000 A 
ATOM     13  C   UNL     1       2.866   4.062  17.216  0.00  0.00    +0.000 A 
ATOM     14  C   UNL     1       1.758   4.324  18.020  0.00  0.00    +0.000 A 
ATOM     15  C   UNL     1       1.756   5.456  18.808  0.00  0.00    +0.000 A 
ATOM     16  C   UNL     1       2.857   6.323  18.783  0.00  0.00    +0.000 A 
BRANCH  12  17
ATOM     17  C   UNL     1       5.147   4.542  16.323  0.00  0.00    +0.000 A 
ATOM     18  N   UNL     1       5.014   4.387  15.014  0.00  0.00    +0.000 NA
ATOM     19  N   UNL     1       6.225   4.067  14.462  0.00  0.00    +0.000 NA
ATOM     20  C   UNL     1       7.090   4.010  15.437  0.00  0.00    +0.000 A 
ATOM     21  N   UNL     1       6.477   4.306  16.622  0.00  0.00    +0.000 N 
ATOM     22  C   UNL     1       7.182   4.380  17.875  0.00  0.00    +0.000 C 
ENDBRANCH  12  17
BRANCH  11  24
ATOM     23  C   UNL     1       5.769   7.582  16.927  0.00  0.00    +0.000 C 
ATOM     24  C   UNL     1       5.207   6.977  18.216  0.00  0.00    +0.000 C 
ENDBRANCH  11  24
ENDBRANCH   1  16
BRANCH   8  25
ATOM     25  C   UNL     1      -0.261   9.315  22.232  0.00  0.00    +0.000 C 
ATOM     26  F   UNL     1       0.907   9.372  22.935  0.00  0.00    +0.000 F 
ATOM     27  F   UNL     1      -1.084  10.230  22.813  0.00  0.00    +0.000 F 
ATOM     28  F   UNL     1      -0.796   8.096  22.501  0.00  0.00    +0.000 F 
ENDBRANCH   8  25
BRANCH   6  29
ATOM     29  N   UNL     1      -1.955  11.108  17.880  0.00  0.00    +0.000 N 
ATOM     30  H   UNL     1      -1.660  11.952  17.400  0.00  0.00    +0.000 HD
BRANCH  29  31
ATOM     31  C   UNL     1      -2.872  10.253  17.108  0.00  0.00    +0.000 C 
ATOM     32  C   UNL     1      -2.666  10.114  15.626  0.00  0.00    +0.000 C 
ATOM     33  C   UNL     1      -3.912  10.762  16.143  0.00  0.00    +0.000 C 
ENDBRANCH  29  31
ENDBRANCH   6  29
TORSDOF 6
ENDMDL
MODEL 2
REMARK VINA RESULT:      -7.5      3.799      8.602
REMARK  Name = 
REMARK  8 active torsions:
REMARK  status: ('A' for Active; 'I' for Inactive)
REMARK    1  A    between atoms: C_1  and  C_2
REMARK    2  A    between atoms: C_2  and  C_3
REMARK    3  A    between atoms: C_4  and  C_5
REMARK    4  A    between atoms: N_9  and  C_10
REMARK    5  A    between atoms: C_14  and  N_15
REMARK    6  A    between atoms: C_20  and  N_21
REMARK    7  A    between atoms: N_21  and  C_22
REMARK    8  A    between atoms: C_26  and  C_27
REMARK                            x       y       z     vdW  Elec       q    Type
REMARK                         _______ _______ _______ _____ _____    ______ ____
ROOT
ATOM      1  N   UNL     1       1.759   9.738  18.906  0.00  0.00    +0.000 N 
ATOM      2  C   UNL     1       2.793   9.180  18.048  0.00  0.00    +0.000 C 
ATOM      3  C   UNL     1       2.848   7.748  18.486  0.00  0.00    +0.000 A 
ATOM      4  C   UNL     1       2.042   7.587  19.602  0.00  0.00    +0.000 A 
ATOM      5  C   UNL     1       1.716   6.372  20.157  0.00  0.00    +0.000 A 
ATOM      6  C   UNL     1       2.224   5.232  19.561  0.00  0.00    +0.000 A 
ATOM      7  C   UNL     1       3.100   5.376  18.454  0.00  0.00    +0.000 A 
ATOM      8  C   UNL     1       3.458   6.641  17.922  0.00  0.00    +0.000 A 
ATOM      9  C   UNL     1       1.380   8.837  19.905  0.00  0.00    +0.000 C 
ATOM     10  O   UNL     1       0.549   8.958  20.789  0.00  0.00    +0.000 OA
ENDROOT
BRANCH   1  16
ATOM     11  C   UNL     1       0.637  11.887  18.793  0.00  0.00    +0.000 A 
ATOM     12  C   UNL     1      -0.623  12.537  18.730  0.00  0.00    +0.000 A 
ATOM     13  C   UNL     1      -1.730  11.798  18.252  0.00  0.00    +0.000 A 
ATOM     14  C   UNL     1      -1.614  10.497  17.767  0.00  0.00    +0.000 A 
ATOM     15  C   UNL     1      -0.390   9.864  17.834  0.00  0.00    +0.000 A 
ATOM     16  C   UNL     1       0.709  10.533  18.393  0.00  0.00    +0.000 A 
BRANCH  12  17
ATOM     17  C   UNL     1      -0.838  13.895  19.271  0.00  0.00    +0.000 A 
ATOM     18  N   UNL     1      -0.461  15.009  18.661  0.00  0.00    +0.000 NA
ATOM     19  N   UNL     1      -0.775  16.090  19.439  0.00  0.00    +0.000 NA
ATOM     20  C   UNL     1      -1.327  15.632  20.529  0.00  0.00    +0.000 A 
ATOM     21  N   UNL     1      -1.401  14.269  20.478  0.00  0.00    +0.000 N 
ATOM     22  C   UNL     1      -2.012  13.475  21.511  0.00  0.00    +0.000 C 
ENDBRANCH  12  17
BRANCH  11  24
ATOM     23  C   UNL     1       2.742  13.278  18.193  0.00  0.00    +0.000 C 
ATOM     24  C   UNL     1       1.932  12.537  19.260  0.00  0.00    +0.000 C 
ENDBRANCH  11  24
ENDBRANCH   1  16
BRANCH   8  25
ATOM     25  C   UNL     1       4.396   6.753  16.753  0.00  0.00    +0.000 C 
ATOM     26  F   UNL     1       3.923   7.555  15.756  0.00  0.00    +0.000 F 
ATOM     27  F   UNL     1       5.608   7.269  17.096  0.00  0.00    +0.000 F 
ATOM     28  F   UNL     1       4.645   5.549  16.174  0.00  0.00    +0.000 F 
ENDBRANCH   8  25
BRANCH   6  29
ATOM     29  N   UNL     1       1.765   3.952  19.955  0.00  0.00    +0.000 N 
ATOM     30  H   UNL     1       1.998   3.237  19.274  0.00  0.00    +0.000 HD
BRANCH  29  31
ATOM     31  C   UNL     1       1.902   3.527  21.359  0.00  0.00    +0.000 C 
ATOM     32  C   UNL     1       2.770   2.343  21.681  0.00  0.00    +0.000 C 
ATOM     33  C   UNL     1       1.298   2.274  21.939  0.00  0.00    +0.000 C 
ENDBRANCH  29  31
ENDBRANCH   6  29
TORSDOF 6
ENDMDL
MODEL 3
REMARK VINA RESULT:      -7.5      0.710      1.236
REMARK  Name = 
REMARK  8 active torsions:
REMARK  status: ('A' for Active; 'I' for Inactive)
REMARK    1  A    between atoms: C_1  and  C_2
REMARK    2  A    between atoms: C_2  and  C_3
REMARK    3  A    between atoms: C_4  and  C_5
REMARK    4  A    between atoms: N_9  and  C_10
REMARK    5  A    between atoms: C_14  and  N_15
REMARK    6  A    between atoms: C_20  and  N_21
REMARK    7  A    between atoms: N_21  and  C_22
REMARK    8  A    between atoms: C_26  and  C_27
REMARK                            x       y       z     vdW  Elec       q    Type
REMARK                         _______ _______ _______ _____ _____    ______ ____
ROOT
ATOM      1  N   UNL     1       2.580   7.539  19.304  0.00  0.00    +0.000 N 
ATOM      2  C   UNL     1       1.939   7.858  20.570  0.00  0.00    +0.000 C 
ATOM      3  C   UNL     1       0.991   8.956  20.194  0.00  0.00    +0.000 A 
ATOM      4  C   UNL     1       1.225   9.321  18.877  0.00  0.00    +0.000 A 
ATOM      5  C   UNL     1       0.422  10.168  18.150  0.00  0.00    +0.000 A 
ATOM      6  C   UNL     1      -0.696  10.691  18.774  0.00  0.00    +0.000 A 
ATOM      7  C   UNL     1      -0.922  10.380  20.140  0.00  0.00    +0.000 A 
ATOM      8  C   UNL     1      -0.058   9.537  20.884  0.00  0.00    +0.000 A 
ATOM      9  C   UNL     1       2.248   8.467  18.314  0.00  0.00    +0.000 C 
ATOM     10  O   UNL     1       2.591   8.515  17.145  0.00  0.00    +0.000 OA
ENDROOT
BRANCH   1  16
ATOM     11  C   UNL     1       3.863   5.873  18.092  0.00  0.00    +0.000 A 
ATOM     12  C   UNL     1       3.786   4.757  17.219  0.00  0.00    +0.000 A 
ATOM     13  C   UNL     1       2.574   4.032  17.171  0.00  0.00    +0.000 A 
ATOM     14  C   UNL     1       1.492   4.318  18.002  0.00  0.00    +0.000 A 
ATOM     15  C   UNL     1       1.566   5.406  18.846  0.00  0.00    +0.000 A 
ATOM     16  C   UNL     1       2.717   6.207  18.849  0.00  0.00    +0.000 A 
BRANCH  12  17
ATOM     17  C   UNL     1       4.869   4.421  16.272  0.00  0.00    +0.000 A 
ATOM     18  N   UNL     1       5.480   3.247  16.223  0.00  0.00    +0.000 NA
ATOM     19  N   UNL     1       6.453   3.273  15.261  0.00  0.00    +0.000 NA
ATOM     20  C   UNL     1       6.446   4.467  14.738  0.00  0.00    +0.000 A 
ATOM     21  N   UNL     1       5.473   5.227  15.323  0.00  0.00    +0.000 N 
ATOM     22  C   UNL     1       5.181   6.577  14.919  0.00  0.00    +0.000 C 
ENDBRANCH  12  17
BRANCH  11  24
ATOM     23  C   UNL     1       6.374   6.033  18.726  0.00  0.00    +0.000 C 
ATOM     24  C   UNL     1       5.095   6.749  18.283  0.00  0.00    +0.000 C 
ENDBRANCH  11  24
ENDBRANCH   1  16
BRANCH   8  25
ATOM     25  C   UNL     1      -0.326   9.237  22.333  0.00  0.00    +0.000 C 
ATOM     26  F   UNL     1      -1.150  10.146  22.928  0.00  0.00    +0.000 F 
ATOM     27  F   UNL     1      -0.919   8.026  22.520  0.00  0.00    +0.000 F 
ATOM     28  F   UNL     1       0.811   9.223  23.076  0.00  0.00    +0.000 F 
ENDBRANCH   8  25
BRANCH   6  29
ATOM     29  N   UNL     1      -1.667  11.401  18.026  0.00  0.00    +0.000 N 
ATOM     30  H   UNL     1      -1.243  12.010  17.333  0.00  0.00    +0.000 HD
BRANCH  29  31
ATOM     31  C   UNL     1      -2.888  10.714  17.573  0.00  0.00    +0.000 C 
ATOM     32  C   UNL     1      -2.841   9.903  16.308  0.00  0.00    +0.000 C 
ATOM     33  C   UNL     1      -3.707  11.121  16.376  0.00  0.00    +0.000 C 
ENDBRANCH  29  31
ENDBRANCH   6  29
TORSDOF 6
ENDMDL
MODEL 4
REMARK VINA RESULT:      -7.5      3.549      8.024
REMARK  Name = 
REMARK  8 active torsions:
REMARK  status: ('A' for Active; 'I' for Inactive)
REMARK    1  A    between atoms: C_1  and  C_2
REMARK    2  A    between atoms: C_2  and  C_3
REMARK    3  A    between atoms: C_4  and  C_5
REMARK    4  A    between atoms: N_9  and  C_10
REMARK    5  A    between atoms: C_14  and  N_15
REMARK    6  A    between atoms: C_20  and  N_21
REMARK    7  A    between atoms: N_21  and  C_22
REMARK    8  A    between atoms: C_26  and  C_27
REMARK                            x       y       z     vdW  Elec       q    Type
REMARK                         _______ _______ _______ _____ _____    ______ ____
ROOT
ATOM      1  N   UNL     1       4.276   4.680  18.986  0.00  0.00    +0.000 N 
ATOM      2  C   UNL     1       5.385   5.622  19.010  0.00  0.00    +0.000 C 
ATOM      3  C   UNL     1       6.037   5.398  17.679  0.00  0.00    +0.000 A 
ATOM      4  C   UNL     1       5.440   4.309  17.062  0.00  0.00    +0.000 A 
ATOM      5  C   UNL     1       5.664   3.934  15.759  0.00  0.00    +0.000 A 
ATOM      6  C   UNL     1       6.542   4.696  15.010  0.00  0.00    +0.000 A 
ATOM      7  C   UNL     1       7.211   5.779  15.637  0.00  0.00    +0.000 A 
ATOM      8  C   UNL     1       6.997   6.124  16.997  0.00  0.00    +0.000 A 
ATOM      9  C   UNL     1       4.357   3.821  17.888  0.00  0.00    +0.000 C 
ATOM     10  O   UNL     1       3.610   2.920  17.547  0.00  0.00    +0.000 OA
ENDROOT
BRANCH   1  16
ATOM     11  C   UNL     1       2.685   6.438  19.501  0.00  0.00    +0.000 A 
ATOM     12  C   UNL     1       1.594   6.812  20.328  0.00  0.00    +0.000 A 
ATOM     13  C   UNL     1       0.838   5.784  20.937  0.00  0.00    +0.000 A 
ATOM     14  C   UNL     1       1.069   4.432  20.689  0.00  0.00    +0.000 A 
ATOM     15  C   UNL     1       2.132   4.070  19.889  0.00  0.00    +0.000 A 
ATOM     16  C   UNL     1       2.964   5.061  19.347  0.00  0.00    +0.000 A 
BRANCH  12  17
ATOM     17  C   UNL     1       1.318   8.220  20.680  0.00  0.00    +0.000 A 
ATOM     18  N   UNL     1       1.476   8.731  21.892  0.00  0.00    +0.000 NA
ATOM     19  N   UNL     1       1.102  10.048  21.890  0.00  0.00    +0.000 NA
ATOM     20  C   UNL     1       0.700  10.332  20.682  0.00  0.00    +0.000 A 
ATOM     21  N   UNL     1       0.820   9.232  19.880  0.00  0.00    +0.000 N 
ATOM     22  C   UNL     1       0.508   9.247  18.475  0.00  0.00    +0.000 C 
ENDBRANCH  12  17
BRANCH  11  24
ATOM     23  C   UNL     1       3.204   7.715  17.303  0.00  0.00    +0.000 C 
ATOM     24  C   UNL     1       3.587   7.412  18.754  0.00  0.00    +0.000 C 
ENDBRANCH  11  24
ENDBRANCH   1  16
BRANCH   8  25
ATOM     25  C   UNL     1       7.731   7.274  17.629  0.00  0.00    +0.000 C 
ATOM     26  F   UNL     1       8.627   7.868  16.790  0.00  0.00    +0.000 F 
ATOM     27  F   UNL     1       6.898   8.268  18.041  0.00  0.00    +0.000 F 
ATOM     28  F   UNL     1       8.441   6.894  18.723  0.00  0.00    +0.000 F 
ENDBRANCH   8  25
BRANCH   6  29
ATOM     29  N   UNL     1       6.660   4.487  13.614  0.00  0.00    +0.000 N 
ATOM     30  H   UNL     1       7.589   4.713  13.273  0.00  0.00    +0.000 HD
BRANCH  29  31
ATOM     31  C   UNL     1       6.055   3.294  12.999  0.00  0.00    +0.000 C 
ATOM     32  C   UNL     1       6.488   2.886  11.619  0.00  0.00    +0.000 C 
ATOM     33  C   UNL     1       5.076   3.322  11.853  0.00  0.00    +0.000 C 
ENDBRANCH  29  31
ENDBRANCH   6  29
TORSDOF 6
ENDMDL
MODEL 5
REMARK VINA RESULT:      -7.4      3.815      8.399
REMARK  Name = 
REMARK  8 active torsions:
REMARK  status: ('A' for Active; 'I' for Inactive)
REMARK    1  A    between atoms: C_1  and  C_2
REMARK    2  A    between atoms: C_2  and  C_3
REMARK    3  A    between atoms: C_4  and  C_5
REMARK    4  A    between atoms: N_9  and  C_10
REMARK    5  A    between atoms: C_14  and  N_15
REMARK    6  A    between atoms: C_20  and  N_21
REMARK    7  A    between atoms: N_21  and  C_22
REMARK    8  A    between atoms: C_26  and  C_27
REMARK                            x       y       z     vdW  Elec       q    Type
REMARK                         _______ _______ _______ _____ _____    ______ ____
ROOT
ATOM      1  N   UNL     1       1.738   9.604  19.057  0.00  0.00    +0.000 N 
ATOM      2  C   UNL     1       2.761   8.970  18.240  0.00  0.00    +0.000 C 
ATOM      3  C   UNL     1       2.795   7.572  18.780  0.00  0.00    +0.000 A 
ATOM      4  C   UNL     1       1.989   7.504  19.906  0.00  0.00    +0.000 A 
ATOM      5  C   UNL     1       1.645   6.337  20.547  0.00  0.00    +0.000 A 
ATOM      6  C   UNL     1       2.135   5.150  20.033  0.00  0.00    +0.000 A 
ATOM      7  C   UNL     1       3.011   5.200  18.918  0.00  0.00    +0.000 A 
ATOM      8  C   UNL     1       3.387   6.419  18.297  0.00  0.00    +0.000 A 
ATOM      9  C   UNL     1       1.348   8.783  20.118  0.00  0.00    +0.000 C 
ATOM     10  O   UNL     1       0.520   8.980  20.992  0.00  0.00    +0.000 OA
ENDROOT
BRANCH   1  16
ATOM     11  C   UNL     1       0.597  11.737  18.859  0.00  0.00    +0.000 A 
ATOM     12  C   UNL     1      -0.667  12.370  18.735  0.00  0.00    +0.000 A 
ATOM     13  C   UNL     1      -1.747  11.609  18.231  0.00  0.00    +0.000 A 
ATOM     14  C   UNL     1      -1.598  10.300  17.777  0.00  0.00    +0.000 A 
ATOM     15  C   UNL     1      -0.371   9.684  17.903  0.00  0.00    +0.000 A 
ATOM     16  C   UNL     1       0.699  10.376  18.489  0.00  0.00    +0.000 A 
BRANCH  12  17
ATOM     17  C   UNL     1      -0.917  13.736  19.241  0.00  0.00    +0.000 A 
ATOM     18  N   UNL     1      -0.468  14.840  18.662  0.00  0.00    +0.000 NA
ATOM     19  N   UNL     1      -0.845  15.931  19.396  0.00  0.00    +0.000 NA
ATOM     20  C   UNL     1      -1.507  15.491  20.430  0.00  0.00    +0.000 A 
ATOM     21  N   UNL     1      -1.592  14.128  20.383  0.00  0.00    +0.000 N 
ATOM     22  C   UNL     1      -2.312  13.352  21.358  0.00  0.00    +0.000 C 
ENDBRANCH  12  17
BRANCH  11  24
ATOM     23  C   UNL     1       2.753  13.066  18.299  0.00  0.00    +0.000 C 
ATOM     24  C   UNL     1       1.866  12.411  19.362  0.00  0.00    +0.000 C 
ENDBRANCH  11  24
ENDBRANCH   1  16
BRANCH   8  25
ATOM     25  C   UNL     1       4.325   6.432  17.122  0.00  0.00    +0.000 C 
ATOM     26  F   UNL     1       4.441   5.218  16.510  0.00  0.00    +0.000 F 
ATOM     27  F   UNL     1       3.937   7.299  16.147  0.00  0.00    +0.000 F 
ATOM     28  F   UNL     1       5.587   6.793  17.472  0.00  0.00    +0.000 F 
ENDBRANCH   8  25
BRANCH   6  29
ATOM     29  N   UNL     1       1.658   3.909  20.520  0.00  0.00    +0.000 N 
ATOM     30  H   UNL     1       0.783   4.009  21.026  0.00  0.00    +0.000 HD
BRANCH  29  31
ATOM     31  C   UNL     1       1.739   2.710  19.668  0.00  0.00    +0.000 C 
ATOM     32  C   UNL     1       1.650   2.867  18.177  0.00  0.00    +0.000 C 
ATOM     33  C   UNL     1       0.581   2.117  18.908  0.00  0.00    +0.000 C 
ENDBRANCH  29  31
ENDBRANCH   6  29
TORSDOF 6
ENDMDL
MODEL 6
REMARK VINA RESULT:      -7.4      5.482     11.064
REMARK  Name = 
REMARK  8 active torsions:
REMARK  status: ('A' for Active; 'I' for Inactive)
REMARK    1  A    between atoms: C_1  and  C_2
REMARK    2  A    between atoms: C_2  and  C_3
REMARK    3  A    between atoms: C_4  and  C_5
REMARK    4  A    between atoms: N_9  and  C_10
REMARK    5  A    between atoms: C_14  and  N_15
REMARK    6  A    between atoms: C_20  and  N_21
REMARK    7  A    between atoms: N_21  and  C_22
REMARK    8  A    between atoms: C_26  and  C_27
REMARK                            x       y       z     vdW  Elec       q    Type
REMARK                         _______ _______ _______ _____ _____    ______ ____
ROOT
ATOM      1  N   UNL     1      -2.697  13.165  20.386  0.00  0.00    +0.000 N 
ATOM      2  C   UNL     1      -3.219  12.334  19.311  0.00  0.00    +0.000 C 
ATOM      3  C   UNL     1      -1.991  11.645  18.798  0.00  0.00    +0.000 A 
ATOM      4  C   UNL     1      -0.877  12.187  19.422  0.00  0.00    +0.000 A 
ATOM      5  C   UNL     1       0.395  11.674  19.326  0.00  0.00    +0.000 A 
ATOM      6  C   UNL     1       0.576  10.538  18.558  0.00  0.00    +0.000 A 
ATOM      7  C   UNL     1      -0.538  10.001  17.861  0.00  0.00    +0.000 A 
ATOM      8  C   UNL     1      -1.835  10.571  17.940  0.00  0.00    +0.000 A 
ATOM      9  C   UNL     1      -1.300  13.172  20.394  0.00  0.00    +0.000 C 
ATOM     10  O   UNL     1      -0.528  13.746  21.144  0.00  0.00    +0.000 OA
ENDROOT
BRANCH   1  16
ATOM     11  C   UNL     1      -3.768  14.444  22.147  0.00  0.00    +0.000 A 
ATOM     12  C   UNL     1      -3.888  14.614  23.550  0.00  0.00    +0.000 A 
ATOM     13  C   UNL     1      -3.548  13.524  24.384  0.00  0.00    +0.000 A 
ATOM     14  C   UNL     1      -3.186  12.276  23.881  0.00  0.00    +0.000 A 
ATOM     15  C   UNL     1      -3.065  12.113  22.517  0.00  0.00    +0.000 A 
ATOM     16  C   UNL     1      -3.299  13.202  21.663  0.00  0.00    +0.000 A 
BRANCH  12  17
ATOM     17  C   UNL     1      -4.215  15.919  24.161  0.00  0.00    +0.000 A 
ATOM     18  N   UNL     1      -3.330  16.710  24.750  0.00  0.00    +0.000 NA
ATOM     19  N   UNL     1      -3.960  17.822  25.240  0.00  0.00    +0.000 NA
ATOM     20  C   UNL     1      -5.229  17.699  24.964  0.00  0.00    +0.000 A 
ATOM     21  N   UNL     1      -5.448  16.534  24.285  0.00  0.00    +0.000 N 
ATOM     22  C   UNL     1      -6.743  16.143  23.792  0.00  0.00    +0.000 C 
ENDBRANCH  12  17
BRANCH  11  24
ATOM     23  C   UNL     1      -5.480  15.374  20.433  0.00  0.00    +0.000 C 
ATOM     24  C   UNL     1      -4.111  15.503  21.107  0.00  0.00    +0.000 C 
ENDBRANCH  11  24
ENDBRANCH   1  16
BRANCH   8  25
ATOM     25  C   UNL     1      -2.989   9.978  17.181  0.00  0.00    +0.000 C 
ATOM     26  F   UNL     1      -3.726   9.100  17.920  0.00  0.00    +0.000 F 
ATOM     27  F   UNL     1      -3.869  10.918  16.741  0.00  0.00    +0.000 F 
ATOM     28  F   UNL     1      -2.585   9.291  16.081  0.00  0.00    +0.000 F 
ENDBRANCH   8  25
BRANCH   6  29
ATOM     29  N   UNL     1       1.812   9.847  18.582  0.00  0.00    +0.000 N 
ATOM     30  H   UNL     1       2.277   9.930  19.480  0.00  0.00    +0.000 HD
BRANCH  29  31
ATOM     31  C   UNL     1       1.919   8.517  17.959  0.00  0.00    +0.000 C 
ATOM     32  C   UNL     1       2.361   7.351  18.798  0.00  0.00    +0.000 C 
ATOM     33  C   UNL     1       3.216   7.811  17.659  0.00  0.00    +0.000 C 
ENDBRANCH  29  31
ENDBRANCH   6  29
TORSDOF 6
ENDMDL
MODEL 7
REMARK VINA RESULT:      -7.3      3.792      8.540
REMARK  Name = 
REMARK  8 active torsions:
REMARK  status: ('A' for Active; 'I' for Inactive)
REMARK    1  A    between atoms: C_1  and  C_2
REMARK    2  A    between atoms: C_2  and  C_3
REMARK    3  A    between atoms: C_4  and  C_5
REMARK    4  A    between atoms: N_9  and  C_10
REMARK    5  A    between atoms: C_14  and  N_15
REMARK    6  A    between atoms: C_20  and  N_21
REMARK    7  A    between atoms: N_21  and  C_22
REMARK    8  A    between atoms: C_26  and  C_27
REMARK                            x       y       z     vdW  Elec       q    Type
REMARK                         _______ _______ _______ _____ _____    ______ ____
ROOT
ATOM      1  N   UNL     1       1.508   9.647  19.360  0.00  0.00    +0.000 N 
ATOM      2  C   UNL     1       2.529   9.082  18.491  0.00  0.00    +0.000 C 
ATOM      3  C   UNL     1       2.611   7.660  18.958  0.00  0.00    +0.000 A 
ATOM      4  C   UNL     1       1.832   7.515  20.096  0.00  0.00    +0.000 A 
ATOM      5  C   UNL     1       1.534   6.308  20.685  0.00  0.00    +0.000 A 
ATOM      6  C   UNL     1       2.041   5.162  20.101  0.00  0.00    +0.000 A 
ATOM      7  C   UNL     1       2.891   5.291  18.972  0.00  0.00    +0.000 A 
ATOM      8  C   UNL     1       3.222   6.549  18.405  0.00  0.00    +0.000 A 
ATOM      9  C   UNL     1       1.163   8.764  20.386  0.00  0.00    +0.000 C 
ATOM     10  O   UNL     1       0.351   8.895  21.286  0.00  0.00    +0.000 OA
ENDROOT
BRANCH   1  16
ATOM     11  C   UNL     1       0.117  11.629  19.509  0.00  0.00    +0.000 A 
ATOM     12  C   UNL     1      -1.202  12.135  19.370  0.00  0.00    +0.000 A 
ATOM     13  C   UNL     1      -2.113  11.409  18.570  0.00  0.00    +0.000 A 
ATOM     14  C   UNL     1      -1.744  10.272  17.851  0.00  0.00    +0.000 A 
ATOM     15  C   UNL     1      -0.464   9.779  17.991  0.00  0.00    +0.000 A 
ATOM     16  C   UNL     1       0.438  10.418  18.854  0.00  0.00    +0.000 A 
BRANCH  12  17
ATOM     17  C   UNL     1      -1.683  13.302  20.138  0.00  0.00    +0.000 A 
ATOM     18  N   UNL     1      -2.534  13.229  21.151  0.00  0.00    +0.000 NA
ATOM     19  N   UNL     1      -2.801  14.486  21.621  0.00  0.00    +0.000 NA
ATOM     20  C   UNL     1      -2.126  15.324  20.883  0.00  0.00    +0.000 A 
ATOM     21  N   UNL     1      -1.403  14.643  19.945  0.00  0.00    +0.000 N 
ATOM     22  C   UNL     1      -0.513  15.289  19.018  0.00  0.00    +0.000 C 
ENDBRANCH  12  17
BRANCH  11  24
ATOM     23  C   UNL     1       2.259  13.092  19.512  0.00  0.00    +0.000 C 
ATOM     24  C   UNL     1       1.227  12.293  20.313  0.00  0.00    +0.000 C 
ENDBRANCH  11  24
ENDBRANCH   1  16
BRANCH   8  25
ATOM     25  C   UNL     1       4.132   6.645  17.212  0.00  0.00    +0.000 C 
ATOM     26  F   UNL     1       3.682   7.510  16.258  0.00  0.00    +0.000 F 
ATOM     27  F   UNL     1       5.382   7.074  17.537  0.00  0.00    +0.000 F 
ATOM     28  F   UNL     1       4.290   5.450  16.586  0.00  0.00    +0.000 F 
ENDBRANCH   8  25
BRANCH   6  29
ATOM     29  N   UNL     1       1.607   3.886  20.534  0.00  0.00    +0.000 N 
ATOM     30  H   UNL     1       0.717   3.930  21.020  0.00  0.00    +0.000 HD
BRANCH  29  31
ATOM     31  C   UNL     1       1.762   2.720  19.647  0.00  0.00    +0.000 C 
ATOM     32  C   UNL     1       1.592   2.904  18.165  0.00  0.00    +0.000 C 
ATOM     33  C   UNL     1       0.632   2.039  18.920  0.00  0.00    +0.000 C 
ENDBRANCH  29  31
ENDBRANCH   6  29
TORSDOF 6
ENDMDL
MODEL 8
REMARK VINA RESULT:      -7.3      5.536     11.006
REMARK  Name = 
REMARK  8 active torsions:
REMARK  status: ('A' for Active; 'I' for Inactive)
REMARK    1  A    between atoms: C_1  and  C_2
REMARK    2  A    between atoms: C_2  and  C_3
REMARK    3  A    between atoms: C_4  and  C_5
REMARK    4  A    between atoms: N_9  and  C_10
REMARK    5  A    between atoms: C_14  and  N_15
REMARK    6  A    between atoms: C_20  and  N_21
REMARK    7  A    between atoms: N_21  and  C_22
REMARK    8  A    between atoms: C_26  and  C_27
REMARK                            x       y       z     vdW  Elec       q    Type
REMARK                         _______ _______ _______ _____ _____    ______ ____
ROOT
ATOM      1  N   UNL     1      -2.785  13.281  20.481  0.00  0.00    +0.000 N 
ATOM      2  C   UNL     1      -3.320  12.442  19.419  0.00  0.00    +0.000 C 
ATOM      3  C   UNL     1      -2.098  11.752  18.895  0.00  0.00    +0.000 A 
ATOM      4  C   UNL     1      -0.977  12.300  19.500  0.00  0.00    +0.000 A 
ATOM      5  C   UNL     1       0.294  11.788  19.392  0.00  0.00    +0.000 A 
ATOM      6  C   UNL     1       0.468  10.647  18.629  0.00  0.00    +0.000 A 
ATOM      7  C   UNL     1      -0.654  10.103  17.951  0.00  0.00    +0.000 A 
ATOM      8  C   UNL     1      -1.951  10.672  18.043  0.00  0.00    +0.000 A 
ATOM      9  C   UNL     1      -1.388  13.290  20.471  0.00  0.00    +0.000 C 
ATOM     10  O   UNL     1      -0.608  13.871  21.207  0.00  0.00    +0.000 OA
ENDROOT
BRANCH   1  16
ATOM     11  C   UNL     1      -3.758  14.584  22.282  0.00  0.00    +0.000 A 
ATOM     12  C   UNL     1      -3.852  14.729  23.690  0.00  0.00    +0.000 A 
ATOM     13  C   UNL     1      -3.573  13.601  24.496  0.00  0.00    +0.000 A 
ATOM     14  C   UNL     1      -3.294  12.345  23.961  0.00  0.00    +0.000 A 
ATOM     15  C   UNL     1      -3.197  12.206  22.592  0.00  0.00    +0.000 A 
ATOM     16  C   UNL     1      -3.371  13.326  21.766  0.00  0.00    +0.000 A 
BRANCH  12  17
ATOM     17  C   UNL     1      -4.091  16.037  24.334  0.00  0.00    +0.000 A 
ATOM     18  N   UNL     1      -5.291  16.508  24.644  0.00  0.00    +0.000 NA
ATOM     19  N   UNL     1      -5.169  17.755  25.195  0.00  0.00    +0.000 NA
ATOM     20  C   UNL     1      -3.898  18.049  25.203  0.00  0.00    +0.000 A 
ATOM     21  N   UNL     1      -3.175  17.012  24.685  0.00  0.00    +0.000 N 
ATOM     22  C   UNL     1      -1.738  17.015  24.613  0.00  0.00    +0.000 C 
ENDBRANCH  12  17
BRANCH  11  24
ATOM     23  C   UNL     1      -5.471  15.746  20.718  0.00  0.00    +0.000 C 
ATOM     24  C   UNL     1      -4.044  15.686  21.269  0.00  0.00    +0.000 C 
ENDBRANCH  11  24
ENDBRANCH   1  16
BRANCH   8  25
ATOM     25  C   UNL     1      -3.114  10.072  17.303  0.00  0.00    +0.000 C 
ATOM     26  F   UNL     1      -3.812   9.163  18.042  0.00  0.00    +0.000 F 
ATOM     27  F   UNL     1      -4.025  11.002  16.908  0.00  0.00    +0.000 F 
ATOM     28  F   UNL     1      -2.727   9.417  16.177  0.00  0.00    +0.000 F 
ENDBRANCH   8  25
BRANCH   6  29
ATOM     29  N   UNL     1       1.705   9.958  18.643  0.00  0.00    +0.000 N 
ATOM     30  H   UNL     1       2.179  10.044  19.536  0.00  0.00    +0.000 HD
BRANCH  29  31
ATOM     31  C   UNL     1       1.807   8.626  18.022  0.00  0.00    +0.000 C 
ATOM     32  C   UNL     1       2.284   7.468  18.853  0.00  0.00    +0.000 C 
ATOM     33  C   UNL     1       3.103   7.931  17.690  0.00  0.00    +0.000 C 
ENDBRANCH  29  31
ENDBRANCH   6  29
TORSDOF 6
ENDMDL
MODEL 9
REMARK VINA RESULT:      -7.3      5.395     10.831
REMARK  Name = 
REMARK  8 active torsions:
REMARK  status: ('A' for Active; 'I' for Inactive)
REMARK    1  A    between atoms: C_1  and  C_2
REMARK    2  A    between atoms: C_2  and  C_3
REMARK    3  A    between atoms: C_4  and  C_5
REMARK    4  A    between atoms: N_9  and  C_10
REMARK    5  A    between atoms: C_14  and  N_15
REMARK    6  A    between atoms: C_20  and  N_21
REMARK    7  A    between atoms: N_21  and  C_22
REMARK    8  A    between atoms: C_26  and  C_27
REMARK                            x       y       z     vdW  Elec       q    Type
REMARK                         _______ _______ _______ _____ _____    ______ ____
ROOT
ATOM      1  N   UNL     1      -1.785  13.156  20.609  0.00  0.00    +0.000 N 
ATOM      2  C   UNL     1      -2.289  12.617  19.355  0.00  0.00    +0.000 C 
ATOM      3  C   UNL     1      -1.244  11.610  18.984  0.00  0.00    +0.000 A 
ATOM      4  C   UNL     1      -0.180  11.718  19.867  0.00  0.00    +0.000 A 
ATOM      5  C   UNL     1       0.869  10.832  19.933  0.00  0.00    +0.000 A 
ATOM      6  C   UNL     1       0.862   9.757  19.063  0.00  0.00    +0.000 A 
ATOM      7  C   UNL     1      -0.185   9.659  18.110  0.00  0.00    +0.000 A 
ATOM      8  C   UNL     1      -1.236  10.608  18.030  0.00  0.00    +0.000 A 
ATOM      9  C   UNL     1      -0.486  12.713  20.871  0.00  0.00    +0.000 C 
ATOM     10  O   UNL     1       0.242  12.952  21.820  0.00  0.00    +0.000 OA
ENDROOT
BRANCH   1  16
ATOM     11  C   UNL     1      -2.819  14.587  22.274  0.00  0.00    +0.000 A 
ATOM     12  C   UNL     1      -3.178  14.705  23.641  0.00  0.00    +0.000 A 
ATOM     13  C   UNL     1      -3.325  13.519  24.396  0.00  0.00    +0.000 A 
ATOM     14  C   UNL     1      -3.214  12.249  23.832  0.00  0.00    +0.000 A 
ATOM     15  C   UNL     1      -2.859  12.136  22.505  0.00  0.00    +0.000 A 
ATOM     16  C   UNL     1      -2.609  13.291  21.750  0.00  0.00    +0.000 A 
BRANCH  12  17
ATOM     17  C   UNL     1      -3.265  16.013  24.324  0.00  0.00    +0.000 A 
ATOM     18  N   UNL     1      -2.232  16.641  24.868  0.00  0.00    +0.000 NA
ATOM     19  N   UNL     1      -2.654  17.807  25.446  0.00  0.00    +0.000 NA
ATOM     20  C   UNL     1      -3.944  17.880  25.269  0.00  0.00    +0.000 A 
ATOM     21  N   UNL     1      -4.381  16.792  24.567  0.00  0.00    +0.000 N 
ATOM     22  C   UNL     1      -5.752  16.615  24.166  0.00  0.00    +0.000 C 
ENDBRANCH  12  17
BRANCH  11  24
ATOM     23  C   UNL     1      -3.923  16.367  20.744  0.00  0.00    +0.000 C 
ATOM     24  C   UNL     1      -2.640  15.756  21.314  0.00  0.00    +0.000 C 
ENDBRANCH  11  24
ENDBRANCH   1  16
BRANCH   8  25
ATOM     25  C   UNL     1      -2.323  10.474  17.000  0.00  0.00    +0.000 C 
ATOM     26  F   UNL     1      -2.121   9.442  16.132  0.00  0.00    +0.000 F 
ATOM     27  F   UNL     1      -3.548  10.255  17.552  0.00  0.00    +0.000 F 
ATOM     28  F   UNL     1      -2.446  11.587  16.231  0.00  0.00    +0.000 F 
ENDBRANCH   8  25
BRANCH   6  29
ATOM     29  N   UNL     1       1.798   8.705  19.216  0.00  0.00    +0.000 N 
ATOM     30  H   UNL     1       1.649   8.185  20.075  0.00  0.00    +0.000 HD
BRANCH  29  31
ATOM     31  C   UNL     1       2.166   7.878  18.055  0.00  0.00    +0.000 C 
ATOM     32  C   UNL     1       2.553   6.443  18.275  0.00  0.00    +0.000 C 
ATOM     33  C   UNL     1       3.564   7.410  17.742  0.00  0.00    +0.000 C 
ENDBRANCH  29  31
ENDBRANCH   6  29
TORSDOF 6
ENDMDL
