MODEL 1
REMARK VINA RESULT:      -9.5      0.000      0.000
REMARK  Name = 
REMARK  5 active torsions:
REMARK  status: ('A' for Active; 'I' for Inactive)
REMARK    1  A    between atoms: C_1  and  C_2
REMARK    2  A    between atoms: C_5  and  C_6
REMARK    3  A    between atoms: C_8  and  C_9
REMARK    4  A    between atoms: C_15  and  C_16
REMARK    5  A    between atoms: C_29  and  C_30
REMARK                            x       y       z     vdW  Elec       q    Type
REMARK                         _______ _______ _______ _____ _____    ______ ____
ROOT
ATOM      1  C   UNL     1       6.918   5.747  17.119  0.00  0.00    +0.000 C 
ATOM      2  O   UNL     1       7.431   5.221  16.132  0.00  0.00    +0.000 OA
ATOM      3  N   UNL     1       5.722   5.264  17.657  0.00  0.00    +0.000 N 
ATOM      4  C   UNL     1       5.239   3.942  17.267  0.00  0.00    +0.000 C 
ATOM      5  C   UNL     1       3.835   4.027  16.674  0.00  0.00    +0.000 C 
ATOM      6  C   UNL     1       2.866   4.733  17.627  0.00  0.00    +0.000 C 
ATOM      7  C   UNL     1       3.409   6.101  18.055  0.00  0.00    +0.000 C 
ATOM      8  C   UNL     1       4.845   5.982  18.589  0.00  0.00    +0.000 C 
ENDROOT
BRANCH   7   9
ATOM      9  C   UNL     1       2.539   6.730  19.097  0.00  0.00    +0.000 A 
ATOM     10  N   UNL     1       2.166   6.168  20.232  0.00  0.00    +0.000 NA
ATOM     11  N   UNL     1       1.415   7.074  20.940  0.00  0.00    +0.000 NA
ATOM     12  C   UNL     1       1.332   8.172  20.226  0.00  0.00    +0.000 A 
ATOM     13  C   UNL     1       0.688   9.417  20.448  0.00  0.00    +0.000 A 
ATOM     14  C   UNL     1       0.765  10.384  19.511  0.00  0.00    +0.000 A 
ATOM     15  C   UNL     1       1.503  10.180  18.271  0.00  0.00    +0.000 A 
ATOM     16  C   UNL     1       2.116   9.001  18.060  0.00  0.00    +0.000 A 
ATOM     17  N   UNL     1       2.026   8.009  19.035  0.00  0.00    +0.000 N 
ENDBRANCH   7   9
BRANCH   1  20
ATOM     18  C   UNL     1       8.424   8.862  18.346  0.00  0.00    +0.000 A 
ATOM     19  C   UNL     1       7.548   8.234  17.425  0.00  0.00    +0.000 A 
ATOM     20  C   UNL     1       7.545   6.891  17.733  0.00  0.00    +0.000 A 
ATOM     21  N   UNL     1       8.250   6.821  18.903  0.00  0.00    +0.000 N 
ATOM     22  N   UNL     1       8.863   7.971  19.247  0.00  0.00    +0.000 NA
ATOM     23  H   UNL     1       8.380   5.999  19.487  0.00  0.00    +0.000 HD
BRANCH  18  28
ATOM     24  C   UNL     1      10.137  14.366  17.836  0.00  0.00    +0.000 C 
ATOM     25  C   UNL     1       9.702  12.941  18.035  0.00  0.00    +0.000 A 
ATOM     26  C   UNL     1       8.500  12.516  17.459  0.00  0.00    +0.000 A 
ATOM     27  C   UNL     1       8.073  11.198  17.598  0.00  0.00    +0.000 A 
ATOM     28  C   UNL     1       8.840  10.265  18.309  0.00  0.00    +0.000 A 
ATOM     29  C   UNL     1      10.032  10.691  18.908  0.00  0.00    +0.000 A 
ATOM     30  C   UNL     1      10.474  12.023  18.777  0.00  0.00    +0.000 A 
ATOM     31  C   UNL     1      11.769  12.437  19.420  0.00  0.00    +0.000 C 
ENDBRANCH  18  28
ENDBRANCH   1  20
TORSDOF 3
ENDMDL
MODEL 2
REMARK VINA RESULT:      -9.5      1.316      1.604
REMARK  Name = 
REMARK  5 active torsions:
REMARK  status: ('A' for Active; 'I' for Inactive)
REMARK    1  A    between atoms: C_1  and  C_2
REMARK    2  A    between atoms: C_5  and  C_6
REMARK    3  A    between atoms: C_8  and  C_9
REMARK    4  A    between atoms: C_15  and  C_16
REMARK    5  A    between atoms: C_29  and  C_30
REMARK                            x       y       z     vdW  Elec       q    Type
REMARK                         _______ _______ _______ _____ _____    ______ ____
ROOT
ATOM      1  C   UNL     1       6.755   5.307  17.934  0.00  0.00    +0.000 C 
ATOM      2  O   UNL     1       7.293   4.418  17.274  0.00  0.00    +0.000 OA
ATOM      3  N   UNL     1       5.662   5.034  18.760  0.00  0.00    +0.000 N 
ATOM      4  C   UNL     1       5.348   3.650  19.106  0.00  0.00    +0.000 C 
ATOM      5  C   UNL     1       3.921   3.295  18.697  0.00  0.00    +0.000 C 
ATOM      6  C   UNL     1       2.907   4.277  19.289  0.00  0.00    +0.000 C 
ATOM      7  C   UNL     1       3.275   5.726  18.948  0.00  0.00    +0.000 C 
ATOM      8  C   UNL     1       4.736   6.026  19.319  0.00  0.00    +0.000 C 
ENDROOT
BRANCH   7   9
ATOM      9  C   UNL     1       2.374   6.696  19.644  0.00  0.00    +0.000 A 
ATOM     10  N   UNL     1       1.787   6.502  20.811  0.00  0.00    +0.000 NA
ATOM     11  N   UNL     1       1.082   7.634  21.137  0.00  0.00    +0.000 NA
ATOM     12  C   UNL     1       1.239   8.500  20.164  0.00  0.00    +0.000 A 
ATOM     13  C   UNL     1       0.748   9.815  19.956  0.00  0.00    +0.000 A 
ATOM     14  C   UNL     1       1.074  10.480  18.829  0.00  0.00    +0.000 A 
ATOM     15  C   UNL     1       1.929   9.876  17.815  0.00  0.00    +0.000 A 
ATOM     16  C   UNL     1       2.398   8.630  18.011  0.00  0.00    +0.000 A 
ATOM     17  N   UNL     1       2.051   7.953  19.179  0.00  0.00    +0.000 N 
ENDBRANCH   7   9
BRANCH   1  20
ATOM     18  C   UNL     1       8.194   8.681  18.076  0.00  0.00    +0.000 A 
ATOM     19  C   UNL     1       8.237   7.338  18.528  0.00  0.00    +0.000 A 
ATOM     20  C   UNL     1       7.245   6.660  17.853  0.00  0.00    +0.000 A 
ATOM     21  N   UNL     1       6.803   7.563  16.926  0.00  0.00    +0.000 N 
ATOM     22  N   UNL     1       7.290   8.809  17.093  0.00  0.00    +0.000 NA
ATOM     23  H   UNL     1       6.134   7.392  16.180  0.00  0.00    +0.000 HD
BRANCH  18  28
ATOM     24  C   UNL     1      10.970  13.231  20.331  0.00  0.00    +0.000 C 
ATOM     25  C   UNL     1      10.305  12.035  19.709  0.00  0.00    +0.000 A 
ATOM     26  C   UNL     1       9.663  11.111  20.541  0.00  0.00    +0.000 A 
ATOM     27  C   UNL     1       9.012  10.004  20.005  0.00  0.00    +0.000 A 
ATOM     28  C   UNL     1       8.977   9.792  18.620  0.00  0.00    +0.000 A 
ATOM     29  C   UNL     1       9.638  10.700  17.784  0.00  0.00    +0.000 A 
ATOM     30  C   UNL     1      10.302  11.824  18.315  0.00  0.00    +0.000 A 
ATOM     31  C   UNL     1      10.985  12.786  17.382  0.00  0.00    +0.000 C 
ENDBRANCH  18  28
ENDBRANCH   1  20
TORSDOF 3
ENDMDL
MODEL 3
REMARK VINA RESULT:      -9.3      0.413      1.287
REMARK  Name = 
REMARK  5 active torsions:
REMARK  status: ('A' for Active; 'I' for Inactive)
REMARK    1  A    between atoms: C_1  and  C_2
REMARK    2  A    between atoms: C_5  and  C_6
REMARK    3  A    between atoms: C_8  and  C_9
REMARK    4  A    between atoms: C_15  and  C_16
REMARK    5  A    between atoms: C_29  and  C_30
REMARK                            x       y       z     vdW  Elec       q    Type
REMARK                         _______ _______ _______ _____ _____    ______ ____
ROOT
ATOM      1  C   UNL     1       6.982   5.793  17.160  0.00  0.00    +0.000 C 
ATOM      2  O   UNL     1       7.504   5.215  16.208  0.00  0.00    +0.000 OA
ATOM      3  N   UNL     1       5.800   5.318  17.735  0.00  0.00    +0.000 N 
ATOM      4  C   UNL     1       5.347   3.963  17.436  0.00  0.00    +0.000 C 
ATOM      5  C   UNL     1       3.939   3.975  16.846  0.00  0.00    +0.000 C 
ATOM      6  C   UNL     1       2.958   4.719  17.755  0.00  0.00    +0.000 C 
ATOM      7  C   UNL     1       3.469   6.125  18.089  0.00  0.00    +0.000 C 
ATOM      8  C   UNL     1       4.909   6.076  18.622  0.00  0.00    +0.000 C 
ENDROOT
BRANCH   7   9
ATOM      9  C   UNL     1       2.588   6.801  19.092  0.00  0.00    +0.000 A 
ATOM     10  N   UNL     1       2.192   6.286  20.241  0.00  0.00    +0.000 NA
ATOM     11  N   UNL     1       1.437   7.224  20.901  0.00  0.00    +0.000 NA
ATOM     12  C   UNL     1       1.375   8.295  20.144  0.00  0.00    +0.000 A 
ATOM     13  C   UNL     1       0.739   9.553  20.307  0.00  0.00    +0.000 A 
ATOM     14  C   UNL     1       0.840  10.483  19.335  0.00  0.00    +0.000 A 
ATOM     15  C   UNL     1       1.596  10.225  18.116  0.00  0.00    +0.000 A 
ATOM     16  C   UNL     1       2.202   9.033  17.961  0.00  0.00    +0.000 A 
ATOM     17  N   UNL     1       2.087   8.080  18.972  0.00  0.00    +0.000 N 
ENDBRANCH   7   9
BRANCH   1  20
ATOM     18  C   UNL     1       8.433   9.012  18.164  0.00  0.00    +0.000 A 
ATOM     19  C   UNL     1       7.592   8.301  17.272  0.00  0.00    +0.000 A 
ATOM     20  C   UNL     1       7.583   6.990  17.694  0.00  0.00    +0.000 A 
ATOM     21  N   UNL     1       8.249   7.025  18.888  0.00  0.00    +0.000 N 
ATOM     22  N   UNL     1       8.846   8.205  19.152  0.00  0.00    +0.000 NA
ATOM     23  H   UNL     1       8.364   6.258  19.544  0.00  0.00    +0.000 HD
BRANCH  18  28
ATOM     24  C   UNL     1      10.127  14.542  17.963  0.00  0.00    +0.000 C 
ATOM     25  C   UNL     1       9.656  13.115  17.956  0.00  0.00    +0.000 A 
ATOM     26  C   UNL     1      10.584  12.097  18.203  0.00  0.00    +0.000 A 
ATOM     27  C   UNL     1      10.185  10.764  18.231  0.00  0.00    +0.000 A 
ATOM     28  C   UNL     1       8.845  10.410  18.020  0.00  0.00    +0.000 A 
ATOM     29  C   UNL     1       7.917  11.422  17.748  0.00  0.00    +0.000 A 
ATOM     30  C   UNL     1       8.308  12.775  17.716  0.00  0.00    +0.000 A 
ATOM     31  C   UNL     1       7.278  13.835  17.438  0.00  0.00    +0.000 C 
ENDBRANCH  18  28
ENDBRANCH   1  20
TORSDOF 3
ENDMDL
MODEL 4
REMARK VINA RESULT:      -8.9      1.412      1.631
REMARK  Name = 
REMARK  5 active torsions:
REMARK  status: ('A' for Active; 'I' for Inactive)
REMARK    1  A    between atoms: C_1  and  C_2
REMARK    2  A    between atoms: C_5  and  C_6
REMARK    3  A    between atoms: C_8  and  C_9
REMARK    4  A    between atoms: C_15  and  C_16
REMARK    5  A    between atoms: C_29  and  C_30
REMARK                            x       y       z     vdW  Elec       q    Type
REMARK                         _______ _______ _______ _____ _____    ______ ____
ROOT
ATOM      1  C   UNL     1       6.901   5.352  18.030  0.00  0.00    +0.000 C 
ATOM      2  O   UNL     1       7.478   4.465  17.402  0.00  0.00    +0.000 OA
ATOM      3  N   UNL     1       5.808   5.065  18.850  0.00  0.00    +0.000 N 
ATOM      4  C   UNL     1       5.538   3.682  19.233  0.00  0.00    +0.000 C 
ATOM      5  C   UNL     1       4.129   3.265  18.818  0.00  0.00    +0.000 C 
ATOM      6  C   UNL     1       3.074   4.228  19.369  0.00  0.00    +0.000 C 
ATOM      7  C   UNL     1       3.396   5.678  18.990  0.00  0.00    +0.000 C 
ATOM      8  C   UNL     1       4.841   6.040  19.369  0.00  0.00    +0.000 C 
ENDROOT
BRANCH   7   9
ATOM      9  C   UNL     1       2.452   6.635  19.646  0.00  0.00    +0.000 A 
ATOM     10  N   UNL     1       1.842   6.446  20.802  0.00  0.00    +0.000 NA
ATOM     11  N   UNL     1       1.099   7.564  21.090  0.00  0.00    +0.000 NA
ATOM     12  C   UNL     1       1.258   8.417  20.105  0.00  0.00    +0.000 A 
ATOM     13  C   UNL     1       0.737   9.715  19.863  0.00  0.00    +0.000 A 
ATOM     14  C   UNL     1       1.073  10.368  18.732  0.00  0.00    +0.000 A 
ATOM     15  C   UNL     1       1.968   9.770  17.750  0.00  0.00    +0.000 A 
ATOM     16  C   UNL     1       2.466   8.541  17.979  0.00  0.00    +0.000 A 
ATOM     17  N   UNL     1       2.108   7.875  19.151  0.00  0.00    +0.000 N 
ENDBRANCH   7   9
BRANCH   1  20
ATOM     18  C   UNL     1       8.222   8.777  18.087  0.00  0.00    +0.000 A 
ATOM     19  C   UNL     1       8.310   7.449  18.575  0.00  0.00    +0.000 A 
ATOM     20  C   UNL     1       7.345   6.719  17.915  0.00  0.00    +0.000 A 
ATOM     21  N   UNL     1       6.875   7.582  16.963  0.00  0.00    +0.000 N 
ATOM     22  N   UNL     1       7.318   8.848  17.099  0.00  0.00    +0.000 NA
ATOM     23  H   UNL     1       6.215   7.369  16.220  0.00  0.00    +0.000 HD
BRANCH  18  28
ATOM     24  C   UNL     1      11.469  13.123  20.103  0.00  0.00    +0.000 C 
ATOM     25  C   UNL     1      10.571  12.025  19.606  0.00  0.00    +0.000 A 
ATOM     26  C   UNL     1      10.666  11.630  18.267  0.00  0.00    +0.000 A 
ATOM     27  C   UNL     1       9.871  10.600  17.772  0.00  0.00    +0.000 A 
ATOM     28  C   UNL     1       8.965   9.928  18.604  0.00  0.00    +0.000 A 
ATOM     29  C   UNL     1       8.849  10.335  19.938  0.00  0.00    +0.000 A 
ATOM     30  C   UNL     1       9.646  11.378  20.451  0.00  0.00    +0.000 A 
ATOM     31  C   UNL     1       9.505  11.773  21.895  0.00  0.00    +0.000 C 
ENDBRANCH  18  28
ENDBRANCH   1  20
TORSDOF 3
ENDMDL
MODEL 5
REMARK VINA RESULT:      -8.9      0.978      1.080
REMARK  Name = 
REMARK  5 active torsions:
REMARK  status: ('A' for Active; 'I' for Inactive)
REMARK    1  A    between atoms: C_1  and  C_2
REMARK    2  A    between atoms: C_5  and  C_6
REMARK    3  A    between atoms: C_8  and  C_9
REMARK    4  A    between atoms: C_15  and  C_16
REMARK    5  A    between atoms: C_29  and  C_30
REMARK                            x       y       z     vdW  Elec       q    Type
REMARK                         _______ _______ _______ _____ _____    ______ ____
ROOT
ATOM      1  C   UNL     1       7.104   5.983  16.788  0.00  0.00    +0.000 C 
ATOM      2  O   UNL     1       7.585   5.741  15.681  0.00  0.00    +0.000 OA
ATOM      3  N   UNL     1       5.990   5.286  17.261  0.00  0.00    +0.000 N 
ATOM      4  C   UNL     1       5.581   4.049  16.603  0.00  0.00    +0.000 C 
ATOM      5  C   UNL     1       4.136   4.138  16.120  0.00  0.00    +0.000 C 
ATOM      6  C   UNL     1       3.187   4.522  17.258  0.00  0.00    +0.000 C 
ATOM      7  C   UNL     1       3.654   5.801  17.961  0.00  0.00    +0.000 C 
ATOM      8  C   UNL     1       5.130   5.695  18.378  0.00  0.00    +0.000 C 
ENDROOT
BRANCH   7   9
ATOM      9  C   UNL     1       2.816   6.099  19.163  0.00  0.00    +0.000 A 
ATOM     10  N   UNL     1       2.607   5.283  20.180  0.00  0.00    +0.000 NA
ATOM     11  N   UNL     1       1.826   5.930  21.105  0.00  0.00    +0.000 NA
ATOM     12  C   UNL     1       1.561   7.128  20.640  0.00  0.00    +0.000 A 
ATOM     13  C   UNL     1       0.807   8.215  21.154  0.00  0.00    +0.000 A 
ATOM     14  C   UNL     1       0.695   9.350  20.433  0.00  0.00    +0.000 A 
ATOM     15  C   UNL     1       1.339   9.487  19.133  0.00  0.00    +0.000 A 
ATOM     16  C   UNL     1       2.057   8.459  18.646  0.00  0.00    +0.000 A 
ATOM     17  N   UNL     1       2.162   7.291  19.399  0.00  0.00    +0.000 N 
ENDBRANCH   7   9
BRANCH   1  20
ATOM     18  C   UNL     1       8.551   8.845  18.576  0.00  0.00    +0.000 A 
ATOM     19  C   UNL     1       7.790   8.378  17.475  0.00  0.00    +0.000 A 
ATOM     20  C   UNL     1       7.685   7.011  17.615  0.00  0.00    +0.000 A 
ATOM     21  N   UNL     1       8.212   6.768  18.854  0.00  0.00    +0.000 N 
ATOM     22  N   UNL     1       8.818   7.833  19.415  0.00  0.00    +0.000 NA
ATOM     23  H   UNL     1       8.222   5.879  19.347  0.00  0.00    +0.000 HD
BRANCH  18  28
ATOM     24  C   UNL     1      10.774  14.149  19.220  0.00  0.00    +0.000 C 
ATOM     25  C   UNL     1      10.145  12.790  19.092  0.00  0.00    +0.000 A 
ATOM     26  C   UNL     1       9.988  12.236  17.817  0.00  0.00    +0.000 A 
ATOM     27  C   UNL     1       9.433  10.970  17.656  0.00  0.00    +0.000 A 
ATOM     28  C   UNL     1       9.028  10.216  18.766  0.00  0.00    +0.000 A 
ATOM     29  C   UNL     1       9.160  10.775  20.042  0.00  0.00    +0.000 A 
ATOM     30  C   UNL     1       9.718  12.057  20.219  0.00  0.00    +0.000 A 
ATOM     31  C   UNL     1       9.860  12.615  21.608  0.00  0.00    +0.000 C 
ENDBRANCH  18  28
ENDBRANCH   1  20
TORSDOF 3
ENDMDL
MODEL 6
REMARK VINA RESULT:      -8.4      1.453      2.144
REMARK  Name = 
REMARK  5 active torsions:
REMARK  status: ('A' for Active; 'I' for Inactive)
REMARK    1  A    between atoms: C_1  and  C_2
REMARK    2  A    between atoms: C_5  and  C_6
REMARK    3  A    between atoms: C_8  and  C_9
REMARK    4  A    between atoms: C_15  and  C_16
REMARK    5  A    between atoms: C_29  and  C_30
REMARK                            x       y       z     vdW  Elec       q    Type
REMARK                         _______ _______ _______ _____ _____    ______ ____
ROOT
ATOM      1  C   UNL     1       6.710   5.619  18.278  0.00  0.00    +0.000 C 
ATOM      2  O   UNL     1       7.258   4.550  18.010  0.00  0.00    +0.000 OA
ATOM      3  N   UNL     1       5.401   5.659  18.764  0.00  0.00    +0.000 N 
ATOM      4  C   UNL     1       4.782   4.437  19.268  0.00  0.00    +0.000 C 
ATOM      5  C   UNL     1       3.487   4.131  18.520  0.00  0.00    +0.000 C 
ATOM      6  C   UNL     1       2.523   5.319  18.559  0.00  0.00    +0.000 C 
ATOM      7  C   UNL     1       3.203   6.600  18.063  0.00  0.00    +0.000 C 
ATOM      8  C   UNL     1       4.531   6.840  18.797  0.00  0.00    +0.000 C 
ENDROOT
BRANCH   7   9
ATOM      9  C   UNL     1       2.314   7.791  18.236  0.00  0.00    +0.000 A 
ATOM     10  N   UNL     1       1.975   8.645  17.287  0.00  0.00    +0.000 NA
ATOM     11  N   UNL     1       1.113   9.570  17.822  0.00  0.00    +0.000 NA
ATOM     12  C   UNL     1       0.942   9.275  19.090  0.00  0.00    +0.000 A 
ATOM     13  C   UNL     1       0.177   9.876  20.123  0.00  0.00    +0.000 A 
ATOM     14  C   UNL     1       0.202   9.349  21.364  0.00  0.00    +0.000 A 
ATOM     15  C   UNL     1       0.998   8.167  21.669  0.00  0.00    +0.000 A 
ATOM     16  C   UNL     1       1.722   7.595  20.690  0.00  0.00    +0.000 A 
ATOM     17  N   UNL     1       1.690   8.151  19.412  0.00  0.00    +0.000 N 
ENDBRANCH   7   9
BRANCH   1  20
ATOM     18  C   UNL     1       8.547   8.795  18.177  0.00  0.00    +0.000 A 
ATOM     19  C   UNL     1       8.195   7.636  18.912  0.00  0.00    +0.000 A 
ATOM     20  C   UNL     1       7.417   6.859  18.081  0.00  0.00    +0.000 A 
ATOM     21  N   UNL     1       7.502   7.489  16.870  0.00  0.00    +0.000 N 
ATOM     22  N   UNL     1       8.098   8.697  16.916  0.00  0.00    +0.000 NA
ATOM     23  H   UNL     1       7.131   7.157  15.984  0.00  0.00    +0.000 HD
BRANCH  18  28
ATOM     24  C   UNL     1      11.014  13.551  20.365  0.00  0.00    +0.000 C 
ATOM     25  C   UNL     1      10.431  12.304  19.763  0.00  0.00    +0.000 A 
ATOM     26  C   UNL     1       9.816  11.371  20.605  0.00  0.00    +0.000 A 
ATOM     27  C   UNL     1       9.241  10.215  20.085  0.00  0.00    +0.000 A 
ATOM     28  C   UNL     1       9.255   9.962  18.707  0.00  0.00    +0.000 A 
ATOM     29  C   UNL     1       9.889  10.880  17.862  0.00  0.00    +0.000 A 
ATOM     30  C   UNL     1      10.478  12.053  18.375  0.00  0.00    +0.000 A 
ATOM     31  C   UNL     1      11.134  13.024  17.432  0.00  0.00    +0.000 C 
ENDBRANCH  18  28
ENDBRANCH   1  20
TORSDOF 3
ENDMDL
MODEL 7
REMARK VINA RESULT:      -8.3      4.040      8.532
REMARK  Name = 
REMARK  5 active torsions:
REMARK  status: ('A' for Active; 'I' for Inactive)
REMARK    1  A    between atoms: C_1  and  C_2
REMARK    2  A    between atoms: C_5  and  C_6
REMARK    3  A    between atoms: C_8  and  C_9
REMARK    4  A    between atoms: C_15  and  C_16
REMARK    5  A    between atoms: C_29  and  C_30
REMARK                            x       y       z     vdW  Elec       q    Type
REMARK                         _______ _______ _______ _____ _____    ______ ____
ROOT
ATOM      1  C   UNL     1      -0.113  10.746  18.668  0.00  0.00    +0.000 C 
ATOM      2  O   UNL     1      -1.078  10.645  17.910  0.00  0.00    +0.000 OA
ATOM      3  N   UNL     1       0.121  11.919  19.390  0.00  0.00    +0.000 N 
ATOM      4  C   UNL     1      -0.941  12.913  19.512  0.00  0.00    +0.000 C 
ATOM      5  C   UNL     1      -0.482  14.271  18.986  0.00  0.00    +0.000 C 
ATOM      6  C   UNL     1       0.811  14.727  19.666  0.00  0.00    +0.000 C 
ATOM      7  C   UNL     1       1.901  13.654  19.561  0.00  0.00    +0.000 C 
ATOM      8  C   UNL     1       1.381  12.291  20.043  0.00  0.00    +0.000 C 
ENDROOT
BRANCH   7   9
ATOM      9  C   UNL     1       3.116  14.032  20.348  0.00  0.00    +0.000 A 
ATOM     10  N   UNL     1       3.263  13.894  21.653  0.00  0.00    +0.000 NA
ATOM     11  N   UNL     1       4.527  14.307  21.995  0.00  0.00    +0.000 NA
ATOM     12  C   UNL     1       5.132  14.700  20.898  0.00  0.00    +0.000 A 
ATOM     13  C   UNL     1       6.428  15.222  20.647  0.00  0.00    +0.000 A 
ATOM     14  C   UNL     1       6.780  15.557  19.390  0.00  0.00    +0.000 A 
ATOM     15  C   UNL     1       5.857  15.390  18.275  0.00  0.00    +0.000 A 
ATOM     16  C   UNL     1       4.629  14.892  18.509  0.00  0.00    +0.000 A 
ATOM     17  N   UNL     1       4.276  14.552  19.814  0.00  0.00    +0.000 N 
ENDBRANCH   7   9
BRANCH   1  20
ATOM     18  C   UNL     1       2.233   7.923  18.631  0.00  0.00    +0.000 A 
ATOM     19  C   UNL     1       1.629   8.991  17.921  0.00  0.00    +0.000 A 
ATOM     20  C   UNL     1       0.806   9.645  18.811  0.00  0.00    +0.000 A 
ATOM     21  N   UNL     1       1.099   9.065  20.015  0.00  0.00    +0.000 N 
ATOM     22  N   UNL     1       1.883   7.973  19.925  0.00  0.00    +0.000 NA
ATOM     23  H   UNL     1       0.755   9.351  20.928  0.00  0.00    +0.000 HD
BRANCH  18  28
ATOM     24  C   UNL     1       5.479   3.923  15.995  0.00  0.00    +0.000 C 
ATOM     25  C   UNL     1       4.638   4.924  16.736  0.00  0.00    +0.000 A 
ATOM     26  C   UNL     1       5.007   6.273  16.703  0.00  0.00    +0.000 A 
ATOM     27  C   UNL     1       4.242   7.236  17.353  0.00  0.00    +0.000 A 
ATOM     28  C   UNL     1       3.078   6.879  18.050  0.00  0.00    +0.000 A 
ATOM     29  C   UNL     1       2.717   5.528  18.107  0.00  0.00    +0.000 A 
ATOM     30  C   UNL     1       3.485   4.543  17.454  0.00  0.00    +0.000 A 
ATOM     31  C   UNL     1       3.053   3.104  17.524  0.00  0.00    +0.000 C 
ENDBRANCH  18  28
ENDBRANCH   1  20
TORSDOF 3
ENDMDL
MODEL 8
REMARK VINA RESULT:      -8.1      6.142      9.687
REMARK  Name = 
REMARK  5 active torsions:
REMARK  status: ('A' for Active; 'I' for Inactive)
REMARK    1  A    between atoms: C_1  and  C_2
REMARK    2  A    between atoms: C_5  and  C_6
REMARK    3  A    between atoms: C_8  and  C_9
REMARK    4  A    between atoms: C_15  and  C_16
REMARK    5  A    between atoms: C_29  and  C_30
REMARK                            x       y       z     vdW  Elec       q    Type
REMARK                         _______ _______ _______ _____ _____    ______ ____
ROOT
ATOM      1  C   UNL     1      -1.338  11.910  22.363  0.00  0.00    +0.000 C 
ATOM      2  O   UNL     1      -1.256  11.888  23.591  0.00  0.00    +0.000 OA
ATOM      3  N   UNL     1      -2.382  12.578  21.719  0.00  0.00    +0.000 N 
ATOM      4  C   UNL     1      -3.199  13.528  22.468  0.00  0.00    +0.000 C 
ATOM      5  C   UNL     1      -4.675  13.143  22.412  0.00  0.00    +0.000 C 
ATOM      6  C   UNL     1      -5.159  12.984  20.968  0.00  0.00    +0.000 C 
ATOM      7  C   UNL     1      -4.266  12.013  20.188  0.00  0.00    +0.000 C 
ATOM      8  C   UNL     1      -2.784  12.400  20.319  0.00  0.00    +0.000 C 
ENDROOT
BRANCH   7   9
ATOM      9  C   UNL     1      -4.644  11.966  18.742  0.00  0.00    +0.000 A 
ATOM     10  N   UNL     1      -5.669  12.592  18.192  0.00  0.00    +0.000 NA
ATOM     11  N   UNL     1      -5.658  12.344  16.842  0.00  0.00    +0.000 NA
ATOM     12  C   UNL     1      -4.634  11.563  16.585  0.00  0.00    +0.000 A 
ATOM     13  C   UNL     1      -4.139  10.988  15.386  0.00  0.00    +0.000 A 
ATOM     14  C   UNL     1      -3.046  10.199  15.426  0.00  0.00    +0.000 A 
ATOM     15  C   UNL     1      -2.355   9.926  16.679  0.00  0.00    +0.000 A 
ATOM     16  C   UNL     1      -2.820  10.473  17.817  0.00  0.00    +0.000 A 
ATOM     17  N   UNL     1      -3.953  11.284  17.762  0.00  0.00    +0.000 N 
ENDBRANCH   7   9
BRANCH   1  20
ATOM     18  C   UNL     1       0.987   9.827  20.431  0.00  0.00    +0.000 A 
ATOM     19  C   UNL     1      -0.268   9.939  21.079  0.00  0.00    +0.000 A 
ATOM     20  C   UNL     1      -0.352  11.226  21.564  0.00  0.00    +0.000 A 
ATOM     21  N   UNL     1       0.745  11.848  21.033  0.00  0.00    +0.000 N 
ATOM     22  N   UNL     1       1.611  11.014  20.424  0.00  0.00    +0.000 NA
ATOM     23  H   UNL     1       0.973  12.837  21.093  0.00  0.00    +0.000 HD
BRANCH  18  28
ATOM     24  C   UNL     1       2.964   4.938  18.046  0.00  0.00    +0.000 C 
ATOM     25  C   UNL     1       2.491   6.196  18.719  0.00  0.00    +0.000 A 
ATOM     26  C   UNL     1       2.487   7.391  17.990  0.00  0.00    +0.000 A 
ATOM     27  C   UNL     1       2.033   8.573  18.566  0.00  0.00    +0.000 A 
ATOM     28  C   UNL     1       1.561   8.595  19.886  0.00  0.00    +0.000 A 
ATOM     29  C   UNL     1       1.586   7.408  20.628  0.00  0.00    +0.000 A 
ATOM     30  C   UNL     1       2.045   6.205  20.057  0.00  0.00    +0.000 A 
ATOM     31  C   UNL     1       2.039   4.947  20.881  0.00  0.00    +0.000 C 
ENDBRANCH  18  28
ENDBRANCH   1  20
TORSDOF 3
ENDMDL
MODEL 9
REMARK VINA RESULT:      -8.0      5.927      9.365
REMARK  Name = 
REMARK  5 active torsions:
REMARK  status: ('A' for Active; 'I' for Inactive)
REMARK    1  A    between atoms: C_1  and  C_2
REMARK    2  A    between atoms: C_5  and  C_6
REMARK    3  A    between atoms: C_8  and  C_9
REMARK    4  A    between atoms: C_15  and  C_16
REMARK    5  A    between atoms: C_29  and  C_30
REMARK                            x       y       z     vdW  Elec       q    Type
REMARK                         _______ _______ _______ _____ _____    ______ ____
ROOT
ATOM      1  C   UNL     1      -0.515  11.237  21.906  0.00  0.00    +0.000 C 
ATOM      2  O   UNL     1      -0.287  11.251  23.115  0.00  0.00    +0.000 OA
ATOM      3  N   UNL     1      -1.478  12.076  21.341  0.00  0.00    +0.000 N 
ATOM      4  C   UNL     1      -1.994  13.203  22.113  0.00  0.00    +0.000 C 
ATOM      5  C   UNL     1      -3.512  13.124  22.250  0.00  0.00    +0.000 C 
ATOM      6  C   UNL     1      -4.193  13.007  20.885  0.00  0.00    +0.000 C 
ATOM      7  C   UNL     1      -3.612  11.843  20.074  0.00  0.00    +0.000 C 
ATOM      8  C   UNL     1      -2.079  11.925  20.011  0.00  0.00    +0.000 C 
ENDROOT
BRANCH   7   9
ATOM      9  C   UNL     1      -4.168  11.813  18.686  0.00  0.00    +0.000 A 
ATOM     10  N   UNL     1      -5.248  12.453  18.274  0.00  0.00    +0.000 NA
ATOM     11  N   UNL     1      -5.408  12.218  16.931  0.00  0.00    +0.000 NA
ATOM     12  C   UNL     1      -4.431  11.432  16.541  0.00  0.00    +0.000 A 
ATOM     13  C   UNL     1      -4.096  10.865  15.285  0.00  0.00    +0.000 A 
ATOM     14  C   UNL     1      -3.013  10.067  15.180  0.00  0.00    +0.000 A 
ATOM     15  C   UNL     1      -2.173   9.777  16.335  0.00  0.00    +0.000 A 
ATOM     16  C   UNL     1      -2.488  10.316  17.527  0.00  0.00    +0.000 A 
ATOM     17  N   UNL     1      -3.611  11.136  17.622  0.00  0.00    +0.000 N 
ENDBRANCH   7   9
BRANCH   1  20
ATOM     18  C   UNL     1       1.316   8.673  20.022  0.00  0.00    +0.000 A 
ATOM     19  C   UNL     1       0.466   8.982  21.113  0.00  0.00    +0.000 A 
ATOM     20  C   UNL     1       0.211  10.335  21.047  0.00  0.00    +0.000 A 
ATOM     21  N   UNL     1       0.752  10.712  19.849  0.00  0.00    +0.000 N 
ATOM     22  N   UNL     1       1.497   9.759  19.255  0.00  0.00    +0.000 NA
ATOM     23  H   UNL     1       0.679  11.626  19.409  0.00  0.00    +0.000 HD
BRANCH  18  28
ATOM     24  C   UNL     1       3.604   3.510  18.757  0.00  0.00    +0.000 C 
ATOM     25  C   UNL     1       3.037   4.846  19.147  0.00  0.00    +0.000 A 
ATOM     26  C   UNL     1       3.236   5.939  18.296  0.00  0.00    +0.000 A 
ATOM     27  C   UNL     1       2.706   7.187  18.607  0.00  0.00    +0.000 A 
ATOM     28  C   UNL     1       1.954   7.379  19.774  0.00  0.00    +0.000 A 
ATOM     29  C   UNL     1       1.773   6.296  20.642  0.00  0.00    +0.000 A 
ATOM     30  C   UNL     1       2.305   5.027  20.340  0.00  0.00    +0.000 A 
ATOM     31  C   UNL     1       2.073   3.883  21.289  0.00  0.00    +0.000 C 
ENDBRANCH  18  28
ENDBRANCH   1  20
TORSDOF 3
ENDMDL
