MODEL 1
REMARK VINA RESULT:      -9.7      0.000      0.000
REMARK  Name = 
REMARK  9 active torsions:
REMARK  status: ('A' for Active; 'I' for Inactive)
REMARK    1  A    between atoms: C_1  and  C_2
REMARK    2  A    between atoms: C_4  and  N_5
REMARK    3  A    between atoms: N_5  and  S_6
REMARK    4  A    between atoms: S_6  and  C_9
REMARK    5  A    between atoms: C_12  and  N_13
REMARK    6  A    between atoms: C_14  and  C_16
REMARK    7  A    between atoms: C_16  and  C_17
REMARK    8  A    between atoms: C_16  and  N_18
REMARK    9  A    between atoms: C_32  and  C_33
REMARK                            x       y       z     vdW  Elec       q    Type
REMARK                         _______ _______ _______ _____ _____    ______ ____
ROOT
ATOM      1  C   UNL     1       1.211   9.250  19.854  0.00  0.00    +0.000 A 
ATOM      2  C   UNL     1       1.504   8.078  20.555  0.00  0.00    +0.000 A 
ATOM      3  C   UNL     1       2.209   7.046  19.918  0.00  0.00    +0.000 A 
ATOM      4  C   UNL     1       2.619   7.168  18.586  0.00  0.00    +0.000 A 
ATOM      5  C   UNL     1       2.305   8.350  17.896  0.00  0.00    +0.000 A 
ATOM      6  C   UNL     1       1.608   9.391  18.526  0.00  0.00    +0.000 A 
ENDROOT
BRANCH   4   7
ATOM      7  N   UNL     1       3.323   6.163  17.872  0.00  0.00    +0.000 N 
ATOM      8  C   UNL     1       4.453   5.458  18.285  0.00  0.00    +0.000 C 
ATOM      9  O   UNL     1       5.029   5.623  19.359  0.00  0.00    +0.000 OA
ATOM     10  H   UNL     1       2.890   5.866  16.999  0.00  0.00    +0.000 HD
BRANCH   8  11
ATOM     11  C   UNL     1       4.835   4.264  17.341  0.00  0.00    +0.000 C 
ATOM     12  C   UNL     1       6.350   4.167  17.218  0.00  0.00    +0.000 C 
BRANCH  11  13
ATOM     13  N   UNL     1       4.177   3.072  17.895  0.00  0.00    +0.000 N 
ATOM     14  C   UNL     1       2.855   2.938  17.550  0.00  0.00    +0.000 C 
ATOM     15  O   UNL     1       2.346   3.085  16.454  0.00  0.00    +0.000 OA
ATOM     16  C   UNL     1       2.116   2.918  18.809  0.00  0.00    +0.000 A 
ATOM     17  C   UNL     1       0.863   3.452  19.036  0.00  0.00    +0.000 A 
ATOM     18  C   UNL     1       0.534   3.760  20.357  0.00  0.00    +0.000 A 
ATOM     19  C   UNL     1       1.438   3.499  21.408  0.00  0.00    +0.000 A 
ATOM     20  C   UNL     1       2.713   2.981  21.151  0.00  0.00    +0.000 A 
ATOM     21  C   UNL     1       3.032   2.739  19.828  0.00  0.00    +0.000 A 
ATOM     22  C   UNL     1       4.359   2.707  19.212  0.00  0.00    +0.000 C 
ATOM     23  O   UNL     1       5.385   2.436  19.803  0.00  0.00    +0.000 OA
ENDBRANCH  11  13
ENDBRANCH   8  11
ENDBRANCH   4   7
BRANCH   1  24
ATOM     24  S   UNL     1       0.311  10.554  20.657  0.00  0.00    +0.000 S 
ATOM     25  O   UNL     1       1.241  11.265  21.509  0.00  0.00    +0.000 OA
ATOM     26  O   UNL     1      -0.916  10.009  21.209  0.00  0.00    +0.000 OA
BRANCH  24  27
ATOM     27  N   UNL     1      -0.100  11.619  19.427  0.00  0.00    +0.000 N 
ATOM     28  H   UNL     1       0.323  12.544  19.542  0.00  0.00    +0.000 HD
BRANCH  27  32
ATOM     29  C   UNL     1      -4.948  12.580  19.576  0.00  0.00    +0.000 C 
ATOM     30  C   UNL     1      -3.706  11.974  18.996  0.00  0.00    +0.000 A 
ATOM     31  C   UNL     1      -2.470  12.170  19.574  0.00  0.00    +0.000 A 
ATOM     32  C   UNL     1      -1.421  11.542  18.947  0.00  0.00    +0.000 A 
ATOM     33  N   UNL     1      -1.536  10.773  17.860  0.00  0.00    +0.000 NA
ATOM     34  C   UNL     1      -2.771  10.643  17.365  0.00  0.00    +0.000 A 
ATOM     35  C   UNL     1      -2.942   9.791  16.150  0.00  0.00    +0.000 C 
ATOM     36  N   UNL     1      -3.869  11.219  17.890  0.00  0.00    +0.000 NA
ENDBRANCH  27  32
ENDBRANCH  24  27
ENDBRANCH   1  24
TORSDOF 6
ENDMDL
MODEL 2
REMARK VINA RESULT:      -9.4      0.751      1.515
REMARK  Name = 
REMARK  9 active torsions:
REMARK  status: ('A' for Active; 'I' for Inactive)
REMARK    1  A    between atoms: C_1  and  C_2
REMARK    2  A    between atoms: C_4  and  N_5
REMARK    3  A    between atoms: N_5  and  S_6
REMARK    4  A    between atoms: S_6  and  C_9
REMARK    5  A    between atoms: C_12  and  N_13
REMARK    6  A    between atoms: C_14  and  C_16
REMARK    7  A    between atoms: C_16  and  C_17
REMARK    8  A    between atoms: C_16  and  N_18
REMARK    9  A    between atoms: C_32  and  C_33
REMARK                            x       y       z     vdW  Elec       q    Type
REMARK                         _______ _______ _______ _____ _____    ______ ____
ROOT
ATOM      1  C   UNL     1       1.168   9.148  19.980  0.00  0.00    +0.000 A 
ATOM      2  C   UNL     1       1.512   7.983  20.667  0.00  0.00    +0.000 A 
ATOM      3  C   UNL     1       2.213   6.966  20.003  0.00  0.00    +0.000 A 
ATOM      4  C   UNL     1       2.570   7.097  18.657  0.00  0.00    +0.000 A 
ATOM      5  C   UNL     1       2.205   8.272  17.980  0.00  0.00    +0.000 A 
ATOM      6  C   UNL     1       1.511   9.298  18.638  0.00  0.00    +0.000 A 
ENDROOT
BRANCH   4   7
ATOM      7  N   UNL     1       3.267   6.108  17.916  0.00  0.00    +0.000 N 
ATOM      8  C   UNL     1       4.427   5.426  18.286  0.00  0.00    +0.000 C 
ATOM      9  O   UNL     1       5.039   5.602  19.337  0.00  0.00    +0.000 OA
ATOM     10  H   UNL     1       2.809   5.802  17.059  0.00  0.00    +0.000 HD
BRANCH   8  11
ATOM     11  C   UNL     1       4.798   4.240  17.326  0.00  0.00    +0.000 C 
ATOM     12  C   UNL     1       6.312   4.150  17.180  0.00  0.00    +0.000 C 
BRANCH  11  13
ATOM     13  N   UNL     1       4.153   3.043  17.881  0.00  0.00    +0.000 N 
ATOM     14  C   UNL     1       2.831   2.895  17.538  0.00  0.00    +0.000 C 
ATOM     15  O   UNL     1       2.320   3.037  16.443  0.00  0.00    +0.000 OA
ATOM     16  C   UNL     1       2.095   2.868  18.797  0.00  0.00    +0.000 A 
ATOM     17  C   UNL     1       0.837   3.389  19.026  0.00  0.00    +0.000 A 
ATOM     18  C   UNL     1       0.506   3.695  20.348  0.00  0.00    +0.000 A 
ATOM     19  C   UNL     1       1.414   3.442  21.398  0.00  0.00    +0.000 A 
ATOM     20  C   UNL     1       2.694   2.937  21.139  0.00  0.00    +0.000 A 
ATOM     21  C   UNL     1       3.014   2.698  19.816  0.00  0.00    +0.000 A 
ATOM     22  C   UNL     1       4.340   2.679  19.197  0.00  0.00    +0.000 C 
ATOM     23  O   UNL     1       5.369   2.418  19.787  0.00  0.00    +0.000 OA
ENDBRANCH  11  13
ENDBRANCH   8  11
ENDBRANCH   4   7
BRANCH   1  24
ATOM     24  S   UNL     1       0.270  10.433  20.816  0.00  0.00    +0.000 S 
ATOM     25  O   UNL     1       1.209  11.139  21.663  0.00  0.00    +0.000 OA
ATOM     26  O   UNL     1      -0.942   9.870  21.382  0.00  0.00    +0.000 OA
BRANCH  24  27
ATOM     27  N   UNL     1      -0.170  11.513  19.610  0.00  0.00    +0.000 N 
ATOM     28  H   UNL     1       0.431  12.341  19.577  0.00  0.00    +0.000 HD
BRANCH  27  32
ATOM     29  C   UNL     1      -4.367  10.929  17.062  0.00  0.00    +0.000 C 
ATOM     30  C   UNL     1      -3.538  11.423  18.209  0.00  0.00    +0.000 A 
ATOM     31  C   UNL     1      -2.190  11.148  18.295  0.00  0.00    +0.000 A 
ATOM     32  C   UNL     1      -1.551  11.677  19.390  0.00  0.00    +0.000 A 
ATOM     33  N   UNL     1      -2.142  12.423  20.329  0.00  0.00    +0.000 NA
ATOM     34  C   UNL     1      -3.452  12.634  20.167  0.00  0.00    +0.000 A 
ATOM     35  C   UNL     1      -4.150  13.464  21.194  0.00  0.00    +0.000 C 
ATOM     36  N   UNL     1      -4.181  12.158  19.140  0.00  0.00    +0.000 NA
ENDBRANCH  27  32
ENDBRANCH  24  27
ENDBRANCH   1  24
TORSDOF 6
ENDMDL
MODEL 3
REMARK VINA RESULT:      -9.3      2.947      9.230
REMARK  Name = 
REMARK  9 active torsions:
REMARK  status: ('A' for Active; 'I' for Inactive)
REMARK    1  A    between atoms: C_1  and  C_2
REMARK    2  A    between atoms: C_4  and  N_5
REMARK    3  A    between atoms: N_5  and  S_6
REMARK    4  A    between atoms: S_6  and  C_9
REMARK    5  A    between atoms: C_12  and  N_13
REMARK    6  A    between atoms: C_14  and  C_16
REMARK    7  A    between atoms: C_16  and  C_17
REMARK    8  A    between atoms: C_16  and  N_18
REMARK    9  A    between atoms: C_32  and  C_33
REMARK                            x       y       z     vdW  Elec       q    Type
REMARK                         _______ _______ _______ _____ _____    ______ ____
ROOT
ATOM      1  C   UNL     1       3.428   4.952  18.928  0.00  0.00    +0.000 A 
ATOM      2  C   UNL     1       3.296   5.810  17.835  0.00  0.00    +0.000 A 
ATOM      3  C   UNL     1       2.645   7.043  17.994  0.00  0.00    +0.000 A 
ATOM      4  C   UNL     1       2.119   7.426  19.233  0.00  0.00    +0.000 A 
ATOM      5  C   UNL     1       2.253   6.544  20.316  0.00  0.00    +0.000 A 
ATOM      6  C   UNL     1       2.909   5.313  20.170  0.00  0.00    +0.000 A 
ENDROOT
BRANCH   4   7
ATOM      7  N   UNL     1       1.438   8.649  19.467  0.00  0.00    +0.000 N 
ATOM      8  C   UNL     1       1.433   9.789  18.663  0.00  0.00    +0.000 C 
ATOM      9  O   UNL     1       2.052   9.905  17.607  0.00  0.00    +0.000 OA
ATOM     10  H   UNL     1       0.811   8.650  20.270  0.00  0.00    +0.000 HD
BRANCH   8  11
ATOM     11  C   UNL     1       0.394  10.876  19.113  0.00  0.00    +0.000 C 
ATOM     12  C   UNL     1      -1.018  10.318  18.999  0.00  0.00    +0.000 C 
BRANCH  11  13
ATOM     13  N   UNL     1       0.792  11.294  20.464  0.00  0.00    +0.000 N 
ATOM     14  C   UNL     1       0.097  10.682  21.479  0.00  0.00    +0.000 C 
ATOM     15  O   UNL     1      -0.180   9.502  21.594  0.00  0.00    +0.000 OA
ATOM     16  C   UNL     1      -0.542  11.759  22.228  0.00  0.00    +0.000 A 
ATOM     17  C   UNL     1      -1.780  11.714  22.839  0.00  0.00    +0.000 A 
ATOM     18  C   UNL     1      -2.414  12.934  23.079  0.00  0.00    +0.000 A 
ATOM     19  C   UNL     1      -1.791  14.153  22.740  0.00  0.00    +0.000 A 
ATOM     20  C   UNL     1      -0.547  14.173  22.098  0.00  0.00    +0.000 A 
ATOM     21  C   UNL     1       0.031  12.949  21.821  0.00  0.00    +0.000 A 
ATOM     22  C   UNL     1       0.994  12.623  20.768  0.00  0.00    +0.000 C 
ATOM     23  O   UNL     1       1.769  13.418  20.276  0.00  0.00    +0.000 OA
ENDBRANCH  11  13
ENDBRANCH   8  11
ENDBRANCH   4   7
BRANCH   1  24
ATOM     24  S   UNL     1       4.243   3.386  18.726  0.00  0.00    +0.000 S 
ATOM     25  O   UNL     1       4.072   2.982  17.346  0.00  0.00    +0.000 OA
ATOM     26  O   UNL     1       3.837   2.502  19.802  0.00  0.00    +0.000 OA
BRANCH  24  27
ATOM     27  N   UNL     1       5.876   3.719  18.913  0.00  0.00    +0.000 N 
ATOM     28  H   UNL     1       6.171   3.734  19.892  0.00  0.00    +0.000 HD
BRANCH  27  32
ATOM     29  C   UNL     1       7.898   8.089  17.787  0.00  0.00    +0.000 C 
ATOM     30  C   UNL     1       7.374   6.720  17.475  0.00  0.00    +0.000 A 
ATOM     31  C   UNL     1       6.892   5.890  18.463  0.00  0.00    +0.000 A 
ATOM     32  C   UNL     1       6.427   4.671  18.033  0.00  0.00    +0.000 A 
ATOM     33  N   UNL     1       6.407   4.272  16.757  0.00  0.00    +0.000 NA
ATOM     34  C   UNL     1       6.898   5.140  15.867  0.00  0.00    +0.000 A 
ATOM     35  C   UNL     1       6.893   4.733  14.430  0.00  0.00    +0.000 C 
ATOM     36  N   UNL     1       7.388   6.356  16.175  0.00  0.00    +0.000 NA
ENDBRANCH  27  32
ENDBRANCH  24  27
ENDBRANCH   1  24
TORSDOF 6
ENDMDL
MODEL 4
REMARK VINA RESULT:      -9.0      3.062      9.445
REMARK  Name = 
REMARK  9 active torsions:
REMARK  status: ('A' for Active; 'I' for Inactive)
REMARK    1  A    between atoms: C_1  and  C_2
REMARK    2  A    between atoms: C_4  and  N_5
REMARK    3  A    between atoms: N_5  and  S_6
REMARK    4  A    between atoms: S_6  and  C_9
REMARK    5  A    between atoms: C_12  and  N_13
REMARK    6  A    between atoms: C_14  and  C_16
REMARK    7  A    between atoms: C_16  and  C_17
REMARK    8  A    between atoms: C_16  and  N_18
REMARK    9  A    between atoms: C_32  and  C_33
REMARK                            x       y       z     vdW  Elec       q    Type
REMARK                         _______ _______ _______ _____ _____    ______ ____
ROOT
ATOM      1  C   UNL     1       3.369   4.925  18.945  0.00  0.00    +0.000 A 
ATOM      2  C   UNL     1       2.888   5.300  20.201  0.00  0.00    +0.000 A 
ATOM      3  C   UNL     1       2.249   6.539  20.360  0.00  0.00    +0.000 A 
ATOM      4  C   UNL     1       2.089   7.411  19.277  0.00  0.00    +0.000 A 
ATOM      5  C   UNL     1       2.589   7.020  18.025  0.00  0.00    +0.000 A 
ATOM      6  C   UNL     1       3.223   5.780  17.855  0.00  0.00    +0.000 A 
ENDROOT
BRANCH   4   7
ATOM      7  N   UNL     1       1.466   8.683  19.362  0.00  0.00    +0.000 N 
ATOM      8  C   UNL     1       1.526   9.724  18.436  0.00  0.00    +0.000 C 
ATOM      9  O   UNL     1       2.161   9.692  17.384  0.00  0.00    +0.000 OA
ATOM     10  H   UNL     1       0.831   8.804  20.149  0.00  0.00    +0.000 HD
BRANCH   8  11
ATOM     11  C   UNL     1       0.536  10.903  18.743  0.00  0.00    +0.000 C 
ATOM     12  C   UNL     1      -0.712  10.362  19.429  0.00  0.00    +0.000 C 
BRANCH  11  13
ATOM     13  N   UNL     1       1.297  11.889  19.523  0.00  0.00    +0.000 N 
ATOM     14  C   UNL     1       1.053  11.860  20.874  0.00  0.00    +0.000 C 
ATOM     15  O   UNL     1       0.979  10.888  21.603  0.00  0.00    +0.000 OA
ATOM     16  C   UNL     1       0.563  13.191  21.218  0.00  0.00    +0.000 A 
ATOM     17  C   UNL     1      -0.391  13.496  22.168  0.00  0.00    +0.000 A 
ATOM     18  C   UNL     1      -1.060  14.713  22.028  0.00  0.00    +0.000 A 
ATOM     19  C   UNL     1      -0.739  15.599  20.978  0.00  0.00    +0.000 A 
ATOM     20  C   UNL     1       0.214  15.257  20.011  0.00  0.00    +0.000 A 
ATOM     21  C   UNL     1       0.819  14.021  20.143  0.00  0.00    +0.000 A 
ATOM     22  C   UNL     1       1.419  13.194  19.095  0.00  0.00    +0.000 C 
ATOM     23  O   UNL     1       1.885  13.627  18.060  0.00  0.00    +0.000 OA
ENDBRANCH  11  13
ENDBRANCH   8  11
ENDBRANCH   4   7
BRANCH   1  24
ATOM     24  S   UNL     1       4.188   3.361  18.745  0.00  0.00    +0.000 S 
ATOM     25  O   UNL     1       4.020   2.955  17.366  0.00  0.00    +0.000 OA
ATOM     26  O   UNL     1       3.782   2.476  19.822  0.00  0.00    +0.000 OA
BRANCH  24  27
ATOM     27  N   UNL     1       5.820   3.698  18.935  0.00  0.00    +0.000 N 
ATOM     28  H   UNL     1       6.110   3.729  19.915  0.00  0.00    +0.000 HD
BRANCH  27  32
ATOM     29  C   UNL     1       7.858   8.044  17.749  0.00  0.00    +0.000 C 
ATOM     30  C   UNL     1       7.329   6.673  17.456  0.00  0.00    +0.000 A 
ATOM     31  C   UNL     1       6.843   5.858  18.455  0.00  0.00    +0.000 A 
ATOM     32  C   UNL     1       6.374   4.635  18.042  0.00  0.00    +0.000 A 
ATOM     33  N   UNL     1       6.354   4.218  16.772  0.00  0.00    +0.000 NA
ATOM     34  C   UNL     1       6.849   5.072  15.870  0.00  0.00    +0.000 A 
ATOM     35  C   UNL     1       6.843   4.645  14.438  0.00  0.00    +0.000 C 
ATOM     36  N   UNL     1       7.342   6.291  16.161  0.00  0.00    +0.000 NA
ENDBRANCH  27  32
ENDBRANCH  24  27
ENDBRANCH   1  24
TORSDOF 6
ENDMDL
MODEL 5
REMARK VINA RESULT:      -9.0      2.346      2.921
REMARK  Name = 
REMARK  9 active torsions:
REMARK  status: ('A' for Active; 'I' for Inactive)
REMARK    1  A    between atoms: C_1  and  C_2
REMARK    2  A    between atoms: C_4  and  N_5
REMARK    3  A    between atoms: N_5  and  S_6
REMARK    4  A    between atoms: S_6  and  C_9
REMARK    5  A    between atoms: C_12  and  N_13
REMARK    6  A    between atoms: C_14  and  C_16
REMARK    7  A    between atoms: C_16  and  C_17
REMARK    8  A    between atoms: C_16  and  N_18
REMARK    9  A    between atoms: C_32  and  C_33
REMARK                            x       y       z     vdW  Elec       q    Type
REMARK                         _______ _______ _______ _____ _____    ______ ____
ROOT
ATOM      1  C   UNL     1       1.194   9.259  20.016  0.00  0.00    +0.000 A 
ATOM      2  C   UNL     1       1.556   8.066  20.643  0.00  0.00    +0.000 A 
ATOM      3  C   UNL     1       2.152   7.040  19.895  0.00  0.00    +0.000 A 
ATOM      4  C   UNL     1       2.387   7.190  18.524  0.00  0.00    +0.000 A 
ATOM      5  C   UNL     1       2.006   8.394  17.910  0.00  0.00    +0.000 A 
ATOM      6  C   UNL     1       1.416   9.429  18.651  0.00  0.00    +0.000 A 
ENDROOT
BRANCH   4   7
ATOM      7  N   UNL     1       2.973   6.195  17.701  0.00  0.00    +0.000 N 
ATOM      8  C   UNL     1       4.281   5.712  17.748  0.00  0.00    +0.000 C 
ATOM      9  O   UNL     1       5.146   6.104  18.529  0.00  0.00    +0.000 OA
ATOM     10  H   UNL     1       2.331   5.720  17.068  0.00  0.00    +0.000 HD
BRANCH   8  11
ATOM     11  C   UNL     1       4.525   4.454  16.841  0.00  0.00    +0.000 C 
ATOM     12  C   UNL     1       5.957   4.462  16.322  0.00  0.00    +0.000 C 
BRANCH  11  13
ATOM     13  N   UNL     1       4.163   3.283  17.652  0.00  0.00    +0.000 N 
ATOM     14  C   UNL     1       2.878   2.834  17.465  0.00  0.00    +0.000 C 
ATOM     15  O   UNL     1       2.286   2.672  16.414  0.00  0.00    +0.000 OA
ATOM     16  C   UNL     1       2.237   2.908  18.773  0.00  0.00    +0.000 A 
ATOM     17  C   UNL     1       0.916   3.222  19.025  0.00  0.00    +0.000 A 
ATOM     18  C   UNL     1       0.610   3.704  20.300  0.00  0.00    +0.000 A 
ATOM     19  C   UNL     1       1.610   3.823  21.288  0.00  0.00    +0.000 A 
ATOM     20  C   UNL     1       2.947   3.522  21.001  0.00  0.00    +0.000 A 
ATOM     21  C   UNL     1       3.229   3.103  19.715  0.00  0.00    +0.000 A 
ATOM     22  C   UNL     1       4.495   3.213  18.988  0.00  0.00    +0.000 C 
ATOM     23  O   UNL     1       5.588   3.260  19.515  0.00  0.00    +0.000 OA
ENDBRANCH  11  13
ENDBRANCH   8  11
ENDBRANCH   4   7
BRANCH   1  24
ATOM     24  S   UNL     1       0.429  10.556  20.960  0.00  0.00    +0.000 S 
ATOM     25  O   UNL     1       0.598  10.231  22.361  0.00  0.00    +0.000 OA
ATOM     26  O   UNL     1      -0.895  10.810  20.423  0.00  0.00    +0.000 OA
BRANCH  24  27
ATOM     27  N   UNL     1       1.374  11.913  20.680  0.00  0.00    +0.000 N 
ATOM     28  H   UNL     1       2.305  11.844  21.100  0.00  0.00    +0.000 HD
BRANCH  27  32
ATOM     29  C   UNL     1      -0.325  16.105  18.683  0.00  0.00    +0.000 C 
ATOM     30  C   UNL     1      -0.092  15.137  19.804  0.00  0.00    +0.000 A 
ATOM     31  C   UNL     1       0.552  13.937  19.597  0.00  0.00    +0.000 A 
ATOM     32  C   UNL     1       0.713  13.155  20.716  0.00  0.00    +0.000 A 
ATOM     33  N   UNL     1       0.306  13.492  21.944  0.00  0.00    +0.000 NA
ATOM     34  C   UNL     1      -0.313  14.673  22.049  0.00  0.00    +0.000 A 
ATOM     35  C   UNL     1      -0.783  15.087  23.405  0.00  0.00    +0.000 C 
ATOM     36  N   UNL     1      -0.534  15.515  21.022  0.00  0.00    +0.000 NA
ENDBRANCH  27  32
ENDBRANCH  24  27
ENDBRANCH   1  24
TORSDOF 6
ENDMDL
MODEL 6
REMARK VINA RESULT:      -9.0      2.987      9.554
REMARK  Name = 
REMARK  9 active torsions:
REMARK  status: ('A' for Active; 'I' for Inactive)
REMARK    1  A    between atoms: C_1  and  C_2
REMARK    2  A    between atoms: C_4  and  N_5
REMARK    3  A    between atoms: N_5  and  S_6
REMARK    4  A    between atoms: S_6  and  C_9
REMARK    5  A    between atoms: C_12  and  N_13
REMARK    6  A    between atoms: C_14  and  C_16
REMARK    7  A    between atoms: C_16  and  C_17
REMARK    8  A    between atoms: C_16  and  N_18
REMARK    9  A    between atoms: C_32  and  C_33
REMARK                            x       y       z     vdW  Elec       q    Type
REMARK                         _______ _______ _______ _____ _____    ______ ____
ROOT
ATOM      1  C   UNL     1       3.391   5.015  19.036  0.00  0.00    +0.000 A 
ATOM      2  C   UNL     1       3.251   5.783  17.879  0.00  0.00    +0.000 A 
ATOM      3  C   UNL     1       2.586   7.017  17.939  0.00  0.00    +0.000 A 
ATOM      4  C   UNL     1       2.054   7.490  19.144  0.00  0.00    +0.000 A 
ATOM      5  C   UNL     1       2.196   6.698  20.294  0.00  0.00    +0.000 A 
ATOM      6  C   UNL     1       2.866   5.466  20.245  0.00  0.00    +0.000 A 
ENDROOT
BRANCH   4   7
ATOM      7  N   UNL     1       1.359   8.720  19.281  0.00  0.00    +0.000 N 
ATOM      8  C   UNL     1       1.471   9.855  18.478  0.00  0.00    +0.000 C 
ATOM      9  O   UNL     1       2.223   9.960  17.512  0.00  0.00    +0.000 OA
ATOM     10  H   UNL     1       0.632   8.731  19.994  0.00  0.00    +0.000 HD
BRANCH   8  11
ATOM     11  C   UNL     1       0.391  10.954  18.781  0.00  0.00    +0.000 C 
ATOM     12  C   UNL     1      -0.848  10.306  19.387  0.00  0.00    +0.000 C 
BRANCH  11  13
ATOM     13  N   UNL     1       1.049  11.956  19.632  0.00  0.00    +0.000 N 
ATOM     14  C   UNL     1       0.888  11.754  20.981  0.00  0.00    +0.000 C 
ATOM     15  O   UNL     1       0.992  10.712  21.601  0.00  0.00    +0.000 OA
ATOM     16  C   UNL     1       0.236  12.957  21.488  0.00  0.00    +0.000 A 
ATOM     17  C   UNL     1      -0.696  13.021  22.503  0.00  0.00    +0.000 A 
ATOM     18  C   UNL     1      -1.537  14.136  22.524  0.00  0.00    +0.000 A 
ATOM     19  C   UNL     1      -1.403  15.162  21.565  0.00  0.00    +0.000 A 
ATOM     20  C   UNL     1      -0.467  15.062  20.529  0.00  0.00    +0.000 A 
ATOM     21  C   UNL     1       0.312  13.921  20.500  0.00  0.00    +0.000 A 
ATOM     22  C   UNL     1       0.962  13.301  19.344  0.00  0.00    +0.000 C 
ATOM     23  O   UNL     1       1.304  13.900  18.345  0.00  0.00    +0.000 OA
ENDBRANCH  11  13
ENDBRANCH   8  11
ENDBRANCH   4   7
BRANCH   1  24
ATOM     24  S   UNL     1       4.224   3.448  18.958  0.00  0.00    +0.000 S 
ATOM     25  O   UNL     1       3.972   2.886  17.648  0.00  0.00    +0.000 OA
ATOM     26  O   UNL     1       3.907   2.686  20.153  0.00  0.00    +0.000 OA
BRANCH  24  27
ATOM     27  N   UNL     1       5.858   3.821  18.997  0.00  0.00    +0.000 N 
ATOM     28  H   UNL     1       6.205   3.999  19.943  0.00  0.00    +0.000 HD
BRANCH  27  32
ATOM     29  C   UNL     1       6.977   4.753  14.271  0.00  0.00    +0.000 C 
ATOM     30  C   UNL     1       6.884   5.083  15.730  0.00  0.00    +0.000 A 
ATOM     31  C   UNL     1       6.350   4.195  16.638  0.00  0.00    +0.000 A 
ATOM     32  C   UNL     1       6.343   4.621  17.944  0.00  0.00    +0.000 A 
ATOM     33  N   UNL     1       6.820   5.798  18.362  0.00  0.00    +0.000 NA
ATOM     34  C   UNL     1       7.314   6.597  17.412  0.00  0.00    +0.000 A 
ATOM     35  C   UNL     1       7.858   7.922  17.838  0.00  0.00    +0.000 C 
ATOM     36  N   UNL     1       7.364   6.288  16.102  0.00  0.00    +0.000 NA
ENDBRANCH  27  32
ENDBRANCH  24  27
ENDBRANCH   1  24
TORSDOF 6
ENDMDL
MODEL 7
REMARK VINA RESULT:      -8.9      1.633      2.491
REMARK  Name = 
REMARK  9 active torsions:
REMARK  status: ('A' for Active; 'I' for Inactive)
REMARK    1  A    between atoms: C_1  and  C_2
REMARK    2  A    between atoms: C_4  and  N_5
REMARK    3  A    between atoms: N_5  and  S_6
REMARK    4  A    between atoms: S_6  and  C_9
REMARK    5  A    between atoms: C_12  and  N_13
REMARK    6  A    between atoms: C_14  and  C_16
REMARK    7  A    between atoms: C_16  and  C_17
REMARK    8  A    between atoms: C_16  and  N_18
REMARK    9  A    between atoms: C_32  and  C_33
REMARK                            x       y       z     vdW  Elec       q    Type
REMARK                         _______ _______ _______ _____ _____    ______ ____
ROOT
ATOM      1  C   UNL     1       1.000   8.996  20.340  0.00  0.00    +0.000 A 
ATOM      2  C   UNL     1       1.333   9.337  19.028  0.00  0.00    +0.000 A 
ATOM      3  C   UNL     1       2.060   8.434  18.238  0.00  0.00    +0.000 A 
ATOM      4  C   UNL     1       2.464   7.194  18.747  0.00  0.00    +0.000 A 
ATOM      5  C   UNL     1       2.128   6.875  20.072  0.00  0.00    +0.000 A 
ATOM      6  C   UNL     1       1.395   7.769  20.867  0.00  0.00    +0.000 A 
ENDROOT
BRANCH   4   7
ATOM      7  N   UNL     1       3.210   6.236  18.014  0.00  0.00    +0.000 N 
ATOM      8  C   UNL     1       4.325   5.515  18.444  0.00  0.00    +0.000 C 
ATOM      9  O   UNL     1       4.845   5.622  19.553  0.00  0.00    +0.000 OA
ATOM     10  H   UNL     1       2.825   5.986  17.105  0.00  0.00    +0.000 HD
BRANCH   8  11
ATOM     11  C   UNL     1       4.763   4.377  17.455  0.00  0.00    +0.000 C 
ATOM     12  C   UNL     1       6.282   4.348  17.344  0.00  0.00    +0.000 C 
BRANCH  11  13
ATOM     13  N   UNL     1       4.151   3.138  17.953  0.00  0.00    +0.000 N 
ATOM     14  C   UNL     1       2.835   2.969  17.596  0.00  0.00    +0.000 C 
ATOM     15  O   UNL     1       2.324   3.145  16.506  0.00  0.00    +0.000 OA
ATOM     16  C   UNL     1       2.094   2.864  18.849  0.00  0.00    +0.000 A 
ATOM     17  C   UNL     1       0.821   3.339  19.094  0.00  0.00    +0.000 A 
ATOM     18  C   UNL     1       0.477   3.575  20.427  0.00  0.00    +0.000 A 
ATOM     19  C   UNL     1       1.388   3.302  21.469  0.00  0.00    +0.000 A 
ATOM     20  C   UNL     1       2.682   2.846  21.194  0.00  0.00    +0.000 A 
ATOM     21  C   UNL     1       3.014   2.675  19.864  0.00  0.00    +0.000 A 
ATOM     22  C   UNL     1       4.343   2.722  19.252  0.00  0.00    +0.000 C 
ATOM     23  O   UNL     1       5.377   2.464  19.835  0.00  0.00    +0.000 OA
ENDBRANCH  11  13
ENDBRANCH   8  11
ENDBRANCH   4   7
BRANCH   1  24
ATOM     24  S   UNL     1       0.089  10.144  21.345  0.00  0.00    +0.000 S 
ATOM     25  O   UNL     1       0.977  11.240  21.669  0.00  0.00    +0.000 OA
ATOM     26  O   UNL     1      -0.585   9.412  22.402  0.00  0.00    +0.000 OA
BRANCH  24  27
ATOM     27  N   UNL     1      -1.081  10.781  20.325  0.00  0.00    +0.000 N 
ATOM     28  H   UNL     1      -1.160  10.271  19.441  0.00  0.00    +0.000 HD
BRANCH  27  32
ATOM     29  C   UNL     1       0.192  15.322  18.840  0.00  0.00    +0.000 C 
ATOM     30  C   UNL     1      -0.613  14.331  19.625  0.00  0.00    +0.000 A 
ATOM     31  C   UNL     1      -0.397  12.975  19.512  0.00  0.00    +0.000 A 
ATOM     32  C   UNL     1      -1.195  12.184  20.302  0.00  0.00    +0.000 A 
ATOM     33  N   UNL     1      -2.122  12.644  21.148  0.00  0.00    +0.000 NA
ATOM     34  C   UNL     1      -2.266  13.972  21.189  0.00  0.00    +0.000 A 
ATOM     35  C   UNL     1      -3.292  14.527  22.123  0.00  0.00    +0.000 C 
ATOM     36  N   UNL     1      -1.547  14.842  20.455  0.00  0.00    +0.000 NA
ENDBRANCH  27  32
ENDBRANCH  24  27
ENDBRANCH   1  24
TORSDOF 6
ENDMDL
MODEL 8
REMARK VINA RESULT:      -8.9      0.880      1.348
REMARK  Name = 
REMARK  9 active torsions:
REMARK  status: ('A' for Active; 'I' for Inactive)
REMARK    1  A    between atoms: C_1  and  C_2
REMARK    2  A    between atoms: C_4  and  N_5
REMARK    3  A    between atoms: N_5  and  S_6
REMARK    4  A    between atoms: S_6  and  C_9
REMARK    5  A    between atoms: C_12  and  N_13
REMARK    6  A    between atoms: C_14  and  C_16
REMARK    7  A    between atoms: C_16  and  C_17
REMARK    8  A    between atoms: C_16  and  N_18
REMARK    9  A    between atoms: C_32  and  C_33
REMARK                            x       y       z     vdW  Elec       q    Type
REMARK                         _______ _______ _______ _____ _____    ______ ____
ROOT
ATOM      1  C   UNL     1       1.098   9.769  19.750  0.00  0.00    +0.000 A 
ATOM      2  C   UNL     1       1.570   9.873  18.440  0.00  0.00    +0.000 A 
ATOM      3  C   UNL     1       2.286   8.809  17.873  0.00  0.00    +0.000 A 
ATOM      4  C   UNL     1       2.541   7.642  18.601  0.00  0.00    +0.000 A 
ATOM      5  C   UNL     1       2.067   7.561  19.920  0.00  0.00    +0.000 A 
ATOM      6  C   UNL     1       1.343   8.617  20.494  0.00  0.00    +0.000 A 
ENDROOT
BRANCH   4   7
ATOM      7  N   UNL     1       3.268   6.530  18.101  0.00  0.00    +0.000 N 
ATOM      8  C   UNL     1       2.756   5.324  17.622  0.00  0.00    +0.000 C 
ATOM      9  O   UNL     1       1.561   5.037  17.578  0.00  0.00    +0.000 OA
ATOM     10  H   UNL     1       4.270   6.677  17.997  0.00  0.00    +0.000 HD
BRANCH   8  11
ATOM     11  C   UNL     1       3.831   4.407  16.938  0.00  0.00    +0.000 C 
ATOM     12  C   UNL     1       5.084   5.218  16.636  0.00  0.00    +0.000 C 
BRANCH  11  13
ATOM     13  N   UNL     1       4.032   3.263  17.839  0.00  0.00    +0.000 N 
ATOM     14  C   UNL     1       2.986   2.373  17.872  0.00  0.00    +0.000 C 
ATOM     15  O   UNL     1       2.360   1.915  16.934  0.00  0.00    +0.000 OA
ATOM     16  C   UNL     1       2.541   2.333  19.261  0.00  0.00    +0.000 A 
ATOM     17  C   UNL     1       1.243   2.181  19.705  0.00  0.00    +0.000 A 
ATOM     18  C   UNL     1       0.955   2.637  20.993  0.00  0.00    +0.000 A 
ATOM     19  C   UNL     1       1.964   3.193  21.807  0.00  0.00    +0.000 A 
ATOM     20  C   UNL     1       3.267   3.361  21.326  0.00  0.00    +0.000 A 
ATOM     21  C   UNL     1       3.510   2.954  20.028  0.00  0.00    +0.000 A 
ATOM     22  C   UNL     1       4.540   3.438  19.108  0.00  0.00    +0.000 C 
ATOM     23  O   UNL     1       5.600   3.919  19.455  0.00  0.00    +0.000 OA
ENDBRANCH  11  13
ENDBRANCH   8  11
ENDBRANCH   4   7
BRANCH   1  24
ATOM     24  S   UNL     1       0.199  11.120  20.473  0.00  0.00    +0.000 S 
ATOM     25  O   UNL     1       1.154  11.949  21.178  0.00  0.00    +0.000 OA
ATOM     26  O   UNL     1      -0.964  10.595  21.165  0.00  0.00    +0.000 OA
BRANCH  24  27
ATOM     27  N   UNL     1      -0.336  12.033  19.172  0.00  0.00    +0.000 N 
ATOM     28  H   UNL     1      -0.026  13.007  19.213  0.00  0.00    +0.000 HD
BRANCH  27  32
ATOM     29  C   UNL     1      -5.270  12.278  19.392  0.00  0.00    +0.000 C 
ATOM     30  C   UNL     1      -3.961  11.858  18.794  0.00  0.00    +0.000 A 
ATOM     31  C   UNL     1      -2.759  12.233  19.353  0.00  0.00    +0.000 A 
ATOM     32  C   UNL     1      -1.639  11.763  18.711  0.00  0.00    +0.000 A 
ATOM     33  N   UNL     1      -1.656  10.983  17.626  0.00  0.00    +0.000 NA
ATOM     34  C   UNL     1      -2.866  10.674  17.149  0.00  0.00    +0.000 A 
ATOM     35  C   UNL     1      -2.929   9.803  15.937  0.00  0.00    +0.000 C 
ATOM     36  N   UNL     1      -4.029  11.084  17.690  0.00  0.00    +0.000 NA
ENDBRANCH  27  32
ENDBRANCH  24  27
ENDBRANCH   1  24
TORSDOF 6
ENDMDL
MODEL 9
REMARK VINA RESULT:      -8.9      1.787      3.780
REMARK  Name = 
REMARK  9 active torsions:
REMARK  status: ('A' for Active; 'I' for Inactive)
REMARK    1  A    between atoms: C_1  and  C_2
REMARK    2  A    between atoms: C_4  and  N_5
REMARK    3  A    between atoms: N_5  and  S_6
REMARK    4  A    between atoms: S_6  and  C_9
REMARK    5  A    between atoms: C_12  and  N_13
REMARK    6  A    between atoms: C_14  and  C_16
REMARK    7  A    between atoms: C_16  and  C_17
REMARK    8  A    between atoms: C_16  and  N_18
REMARK    9  A    between atoms: C_32  and  C_33
REMARK                            x       y       z     vdW  Elec       q    Type
REMARK                         _______ _______ _______ _____ _____    ______ ____
ROOT
ATOM      1  C   UNL     1       0.530  10.221  19.716  0.00  0.00    +0.000 A 
ATOM      2  C   UNL     1       1.241   9.623  18.675  0.00  0.00    +0.000 A 
ATOM      3  C   UNL     1       1.872   8.388  18.883  0.00  0.00    +0.000 A 
ATOM      4  C   UNL     1       1.806   7.745  20.124  0.00  0.00    +0.000 A 
ATOM      5  C   UNL     1       1.095   8.368  21.162  0.00  0.00    +0.000 A 
ATOM      6  C   UNL     1       0.454   9.600  20.961  0.00  0.00    +0.000 A 
ENDROOT
BRANCH   4   7
ATOM      7  N   UNL     1       2.428   6.503  20.414  0.00  0.00    +0.000 N 
ATOM      8  C   UNL     1       1.817   5.257  20.554  0.00  0.00    +0.000 C 
ATOM      9  O   UNL     1       0.609   5.053  20.456  0.00  0.00    +0.000 OA
ATOM     10  H   UNL     1       3.446   6.519  20.429  0.00  0.00    +0.000 HD
BRANCH   8  11
ATOM     11  C   UNL     1       2.831   4.062  20.651  0.00  0.00    +0.000 C 
ATOM     12  C   UNL     1       2.173   2.883  21.356  0.00  0.00    +0.000 C 
BRANCH  11  13
ATOM     13  N   UNL     1       3.285   3.793  19.280  0.00  0.00    +0.000 N 
ATOM     14  C   UNL     1       4.609   3.443  19.175  0.00  0.00    +0.000 C 
ATOM     15  O   UNL     1       5.234   2.656  19.863  0.00  0.00    +0.000 OA
ATOM     16  C   UNL     1       5.217   4.440  18.301  0.00  0.00    +0.000 A 
ATOM     17  C   UNL     1       6.497   4.948  18.396  0.00  0.00    +0.000 A 
ATOM     18  C   UNL     1       6.733   6.191  17.807  0.00  0.00    +0.000 A 
ATOM     19  C   UNL     1       5.708   6.871  17.116  0.00  0.00    +0.000 A 
ATOM     20  C   UNL     1       4.411   6.349  17.054  0.00  0.00    +0.000 A 
ATOM     21  C   UNL     1       4.193   5.144  17.696  0.00  0.00    +0.000 A 
ATOM     22  C   UNL     1       2.936   4.626  18.239  0.00  0.00    +0.000 C 
ATOM     23  O   UNL     1       1.834   4.931  17.831  0.00  0.00    +0.000 OA
ENDBRANCH  11  13
ENDBRANCH   8  11
ENDBRANCH   4   7
BRANCH   1  24
ATOM     24  S   UNL     1      -0.262  11.790  19.456  0.00  0.00    +0.000 S 
ATOM     25  O   UNL     1      -0.109  12.128  18.057  0.00  0.00    +0.000 OA
ATOM     26  O   UNL     1       0.179  12.716  20.484  0.00  0.00    +0.000 OA
BRANCH  24  27
ATOM     27  N   UNL     1      -1.897  11.496  19.687  0.00  0.00    +0.000 N 
ATOM     28  H   UNL     1      -2.085  10.896  20.494  0.00  0.00    +0.000 HD
BRANCH  27  32
ATOM     29  C   UNL     1      -2.725   9.809  15.113  0.00  0.00    +0.000 C 
ATOM     30  C   UNL     1      -3.084  10.540  16.371  0.00  0.00    +0.000 A 
ATOM     31  C   UNL     1      -2.219  10.599  17.443  0.00  0.00    +0.000 A 
ATOM     32  C   UNL     1      -2.671  11.316  18.524  0.00  0.00    +0.000 A 
ATOM     33  N   UNL     1      -3.850  11.943  18.582  0.00  0.00    +0.000 NA
ATOM     34  C   UNL     1      -4.625  11.827  17.499  0.00  0.00    +0.000 A 
ATOM     35  C   UNL     1      -5.952  12.515  17.523  0.00  0.00    +0.000 C 
ATOM     36  N   UNL     1      -4.291  11.144  16.389  0.00  0.00    +0.000 NA
ENDBRANCH  27  32
ENDBRANCH  24  27
ENDBRANCH   1  24
TORSDOF 6
ENDMDL
