MODEL 1
REMARK VINA RESULT:      -8.6      0.000      0.000
REMARK  Name = 
REMARK  7 active torsions:
REMARK  status: ('A' for Active; 'I' for Inactive)
REMARK    1  A    between atoms: C_1  and  C_2
REMARK    2  A    between atoms: C_3  and  C_4
REMARK    3  A    between atoms: C_4  and  N_5
REMARK    4  A    between atoms: N_5  and  C_6
REMARK    5  A    between atoms: C_10  and  C_11
REMARK    6  A    between atoms: N_17  and  C_18
REMARK    7  A    between atoms: C_22  and  C_23
REMARK                            x       y       z     vdW  Elec       q    Type
REMARK                         _______ _______ _______ _____ _____    ______ ____
ROOT
ATOM      1  C   UNL     1       4.919   3.888  16.782  0.00  0.00    +0.000 A 
ATOM      2  C   UNL     1       4.791   5.252  17.014  0.00  0.00    +0.000 A 
ATOM      3  C   UNL     1       3.815   5.705  17.906  0.00  0.00    +0.000 A 
ATOM      4  C   UNL     1       2.960   4.879  18.625  0.00  0.00    +0.000 A 
ATOM      5  C   UNL     1       3.092   3.503  18.503  0.00  0.00    +0.000 A 
ATOM      6  C   UNL     1       4.104   3.025  17.599  0.00  0.00    +0.000 A 
ATOM      7  C   UNL     1       1.995   5.717  19.421  0.00  0.00    +0.000 C 
ATOM      8  N   UNL     1       2.370   7.082  19.081  0.00  0.00    +0.000 N 
ATOM      9  C   UNL     1       3.455   7.090  18.206  0.00  0.00    +0.000 C 
ATOM     10  O   UNL     1       4.079   8.009  17.719  0.00  0.00    +0.000 OA
ENDROOT
BRANCH   8  11
ATOM     11  C   UNL     1       1.636   8.227  19.530  0.00  0.00    +0.000 A 
ATOM     12  C   UNL     1       1.289   9.250  18.635  0.00  0.00    +0.000 A 
ATOM     13  C   UNL     1       0.545  10.365  19.055  0.00  0.00    +0.000 A 
ATOM     14  C   UNL     1       0.141  10.481  20.379  0.00  0.00    +0.000 A 
ATOM     15  C   UNL     1       0.479   9.486  21.305  0.00  0.00    +0.000 A 
ATOM     16  C   UNL     1       0.069   9.635  22.739  0.00  0.00    +0.000 C 
ATOM     17  C   UNL     1       1.213   8.353  20.869  0.00  0.00    +0.000 A 
ENDBRANCH   8  11
BRANCH   5  18
ATOM     18  C   UNL     1       2.167   2.575  19.264  0.00  0.00    +0.000 C 
ATOM     19  F   UNL     1       2.276   2.694  20.624  0.00  0.00    +0.000 F 
ATOM     20  F   UNL     1       0.851   2.801  18.997  0.00  0.00    +0.000 F 
ATOM     21  F   UNL     1       2.389   1.257  19.009  0.00  0.00    +0.000 F 
ENDBRANCH   5  18
BRANCH   1  22
ATOM     22  N   UNL     1       5.870   3.360  15.883  0.00  0.00    +0.000 N 
ATOM     23  H   UNL     1       6.724   3.129  16.401  0.00  0.00    +0.000 HD
BRANCH  22  24
ATOM     24  C   UNL     1       6.276   3.997  14.503  0.00  0.00    +0.000 C 
BRANCH  24  27
ATOM     25  C   UNL     1       3.901   3.149  11.054  0.00  0.00    +0.000 C 
ATOM     26  C   UNL     1       5.212   3.281  11.813  0.00  0.00    +0.000 C 
ATOM     27  C   UNL     1       5.366   3.695  13.206  0.00  0.00    +0.000 C 
ATOM     28  O   UNL     1       6.436   3.404  12.521  0.00  0.00    +0.000 OA
ENDBRANCH  24  27
ENDBRANCH  22  24
ENDBRANCH   1  22
TORSDOF 5
ENDMDL
MODEL 2
REMARK VINA RESULT:      -8.6      2.172      2.922
REMARK  Name = 
REMARK  7 active torsions:
REMARK  status: ('A' for Active; 'I' for Inactive)
REMARK    1  A    between atoms: C_1  and  C_2
REMARK    2  A    between atoms: C_3  and  C_4
REMARK    3  A    between atoms: C_4  and  N_5
REMARK    4  A    between atoms: N_5  and  C_6
REMARK    5  A    between atoms: C_10  and  C_11
REMARK    6  A    between atoms: N_17  and  C_18
REMARK    7  A    between atoms: C_22  and  C_23
REMARK                            x       y       z     vdW  Elec       q    Type
REMARK                         _______ _______ _______ _____ _____    ______ ____
ROOT
ATOM      1  C   UNL     1       4.127   4.335  17.787  0.00  0.00    +0.000 A 
ATOM      2  C   UNL     1       3.854   5.695  17.728  0.00  0.00    +0.000 A 
ATOM      3  C   UNL     1       3.030   6.269  18.702  0.00  0.00    +0.000 A 
ATOM      4  C   UNL     1       2.475   5.578  19.771  0.00  0.00    +0.000 A 
ATOM      5  C   UNL     1       2.778   4.234  19.936  0.00  0.00    +0.000 A 
ATOM      6  C   UNL     1       3.638   3.636  18.949  0.00  0.00    +0.000 A 
ATOM      7  C   UNL     1       1.586   6.499  20.564  0.00  0.00    +0.000 C 
ATOM      8  N   UNL     1       1.678   7.762  19.846  0.00  0.00    +0.000 N 
ATOM      9  C   UNL     1       2.543   7.646  18.759  0.00  0.00    +0.000 C 
ATOM     10  O   UNL     1       2.910   8.465  17.942  0.00  0.00    +0.000 OA
ENDROOT
BRANCH   8  11
ATOM     11  C   UNL     1       0.895   8.912  20.187  0.00  0.00    +0.000 A 
ATOM     12  C   UNL     1       0.598   9.886  19.222  0.00  0.00    +0.000 A 
ATOM     13  C   UNL     1      -0.192  11.005  19.534  0.00  0.00    +0.000 A 
ATOM     14  C   UNL     1      -0.693  11.173  20.819  0.00  0.00    +0.000 A 
ATOM     15  C   UNL     1      -0.407  10.228  21.813  0.00  0.00    +0.000 A 
ATOM     16  C   UNL     1      -0.922  10.435  23.205  0.00  0.00    +0.000 C 
ATOM     17  C   UNL     1       0.375   9.091  21.484  0.00  0.00    +0.000 A 
ENDBRANCH   8  11
BRANCH   5  18
ATOM     18  C   UNL     1       2.179   3.449  21.085  0.00  0.00    +0.000 C 
ATOM     19  F   UNL     1       2.427   4.005  22.312  0.00  0.00    +0.000 F 
ATOM     20  F   UNL     1       0.823   3.353  21.012  0.00  0.00    +0.000 F 
ATOM     21  F   UNL     1       2.648   2.175  21.176  0.00  0.00    +0.000 F 
ENDBRANCH   5  18
BRANCH   1  22
ATOM     22  N   UNL     1       4.936   3.684  16.830  0.00  0.00    +0.000 N 
ATOM     23  H   UNL     1       5.000   2.690  17.071  0.00  0.00    +0.000 HD
BRANCH  22  24
ATOM     24  C   UNL     1       6.349   4.175  16.343  0.00  0.00    +0.000 C 
BRANCH  24  27
ATOM     25  C   UNL     1       8.153   7.505  18.322  0.00  0.00    +0.000 C 
ATOM     26  C   UNL     1       7.455   6.820  17.159  0.00  0.00    +0.000 C 
ATOM     27  C   UNL     1       7.046   5.419  17.099  0.00  0.00    +0.000 C 
ATOM     28  O   UNL     1       6.803   6.182  16.070  0.00  0.00    +0.000 OA
ENDBRANCH  24  27
ENDBRANCH  22  24
ENDBRANCH   1  22
TORSDOF 5
ENDMDL
MODEL 3
REMARK VINA RESULT:      -8.6      2.240      3.274
REMARK  Name = 
REMARK  7 active torsions:
REMARK  status: ('A' for Active; 'I' for Inactive)
REMARK    1  A    between atoms: C_1  and  C_2
REMARK    2  A    between atoms: C_3  and  C_4
REMARK    3  A    between atoms: C_4  and  N_5
REMARK    4  A    between atoms: N_5  and  C_6
REMARK    5  A    between atoms: C_10  and  C_11
REMARK    6  A    between atoms: N_17  and  C_18
REMARK    7  A    between atoms: C_22  and  C_23
REMARK                            x       y       z     vdW  Elec       q    Type
REMARK                         _______ _______ _______ _____ _____    ______ ____
ROOT
ATOM      1  C   UNL     1       3.768   4.655  17.614  0.00  0.00    +0.000 A 
ATOM      2  C   UNL     1       3.489   6.010  17.740  0.00  0.00    +0.000 A 
ATOM      3  C   UNL     1       2.746   6.455  18.838  0.00  0.00    +0.000 A 
ATOM      4  C   UNL     1       2.280   5.636  19.858  0.00  0.00    +0.000 A 
ATOM      5  C   UNL     1       2.596   4.286  19.837  0.00  0.00    +0.000 A 
ATOM      6  C   UNL     1       3.374   3.818  18.719  0.00  0.00    +0.000 A 
ATOM      7  C   UNL     1       1.457   6.448  20.824  0.00  0.00    +0.000 C 
ATOM      8  N   UNL     1       1.490   7.788  20.257  0.00  0.00    +0.000 N 
ATOM      9  C   UNL     1       2.265   7.811  19.098  0.00  0.00    +0.000 C 
ATOM     10  O   UNL     1       2.565   8.724  18.358  0.00  0.00    +0.000 OA
ENDROOT
BRANCH   8  11
ATOM     11  C   UNL     1       0.737   8.881  20.794  0.00  0.00    +0.000 A 
ATOM     12  C   UNL     1       0.603   9.044  22.181  0.00  0.00    +0.000 A 
ATOM     13  C   UNL     1      -0.109  10.127  22.723  0.00  0.00    +0.000 A 
ATOM     14  C   UNL     1      -0.707  11.061  21.887  0.00  0.00    +0.000 A 
ATOM     15  C   UNL     1      -0.606  10.925  20.497  0.00  0.00    +0.000 A 
ATOM     16  C   UNL     1      -1.283  11.920  19.602  0.00  0.00    +0.000 C 
ATOM     17  C   UNL     1       0.132   9.841  19.958  0.00  0.00    +0.000 A 
ENDBRANCH   8  11
BRANCH   5  18
ATOM     18  C   UNL     1       2.092   3.364  20.928  0.00  0.00    +0.000 C 
ATOM     19  F   UNL     1       2.392   3.801  22.191  0.00  0.00    +0.000 F 
ATOM     20  F   UNL     1       0.738   3.221  20.919  0.00  0.00    +0.000 F 
ATOM     21  F   UNL     1       2.609   2.107  20.860  0.00  0.00    +0.000 F 
ENDBRANCH   5  18
BRANCH   1  22
ATOM     22  N   UNL     1       4.497   4.131  16.525  0.00  0.00    +0.000 N 
ATOM     23  H   UNL     1       4.341   3.119  16.478  0.00  0.00    +0.000 HD
BRANCH  22  24
ATOM     24  C   UNL     1       6.012   4.422  16.216  0.00  0.00    +0.000 C 
BRANCH  24  27
ATOM     25  C   UNL     1       7.807   8.016  17.671  0.00  0.00    +0.000 C 
ATOM     26  C   UNL     1       7.498   6.528  17.712  0.00  0.00    +0.000 C 
ATOM     27  C   UNL     1       6.671   5.790  16.760  0.00  0.00    +0.000 C 
ATOM     28  O   UNL     1       7.210   5.138  17.752  0.00  0.00    +0.000 OA
ENDBRANCH  24  27
ENDBRANCH  22  24
ENDBRANCH   1  22
TORSDOF 5
ENDMDL
MODEL 4
REMARK VINA RESULT:      -8.4      1.404      2.092
REMARK  Name = 
REMARK  7 active torsions:
REMARK  status: ('A' for Active; 'I' for Inactive)
REMARK    1  A    between atoms: C_1  and  C_2
REMARK    2  A    between atoms: C_3  and  C_4
REMARK    3  A    between atoms: C_4  and  N_5
REMARK    4  A    between atoms: N_5  and  C_6
REMARK    5  A    between atoms: C_10  and  C_11
REMARK    6  A    between atoms: N_17  and  C_18
REMARK    7  A    between atoms: C_22  and  C_23
REMARK                            x       y       z     vdW  Elec       q    Type
REMARK                         _______ _______ _______ _____ _____    ______ ____
ROOT
ATOM      1  C   UNL     1       4.215   4.291  17.878  0.00  0.00    +0.000 A 
ATOM      2  C   UNL     1       3.966   5.654  17.791  0.00  0.00    +0.000 A 
ATOM      3  C   UNL     1       3.127   6.257  18.733  0.00  0.00    +0.000 A 
ATOM      4  C   UNL     1       2.533   5.592  19.798  0.00  0.00    +0.000 A 
ATOM      5  C   UNL     1       2.809   4.247  19.992  0.00  0.00    +0.000 A 
ATOM      6  C   UNL     1       3.684   3.619  19.037  0.00  0.00    +0.000 A 
ATOM      7  C   UNL     1       1.639   6.541  20.553  0.00  0.00    +0.000 C 
ATOM      8  N   UNL     1       1.770   7.790  19.818  0.00  0.00    +0.000 N 
ATOM      9  C   UNL     1       2.661   7.642  18.755  0.00  0.00    +0.000 C 
ATOM     10  O   UNL     1       3.063   8.441  17.936  0.00  0.00    +0.000 OA
ENDROOT
BRANCH   8  11
ATOM     11  C   UNL     1       0.998   8.957  20.120  0.00  0.00    +0.000 A 
ATOM     12  C   UNL     1       0.897   9.426  21.438  0.00  0.00    +0.000 A 
ATOM     13  C   UNL     1       0.167  10.586  21.746  0.00  0.00    +0.000 A 
ATOM     14  C   UNL     1      -0.483  11.293  20.741  0.00  0.00    +0.000 A 
ATOM     15  C   UNL     1      -0.416  10.848  19.415  0.00  0.00    +0.000 A 
ATOM     16  C   UNL     1      -1.148  11.598  18.342  0.00  0.00    +0.000 C 
ATOM     17  C   UNL     1       0.341   9.688  19.110  0.00  0.00    +0.000 A 
ENDBRANCH   8  11
BRANCH   5  18
ATOM     18  C   UNL     1       2.168   3.490  21.137  0.00  0.00    +0.000 C 
ATOM     19  F   UNL     1       2.428   4.038  22.365  0.00  0.00    +0.000 F 
ATOM     20  F   UNL     1       0.809   3.450  21.052  0.00  0.00    +0.000 F 
ATOM     21  F   UNL     1       2.583   2.198  21.236  0.00  0.00    +0.000 F 
ENDBRANCH   5  18
BRANCH   1  22
ATOM     22  N   UNL     1       5.038   3.611  16.953  0.00  0.00    +0.000 N 
ATOM     23  H   UNL     1       5.328   2.717  17.361  0.00  0.00    +0.000 HD
BRANCH  22  24
ATOM     24  C   UNL     1       6.264   4.237  16.190  0.00  0.00    +0.000 C 
BRANCH  24  27
ATOM     25  C   UNL     1       6.714   3.460  12.013  0.00  0.00    +0.000 C 
ATOM     26  C   UNL     1       5.937   3.884  13.248  0.00  0.00    +0.000 C 
ATOM     27  C   UNL     1       6.446   3.925  14.617  0.00  0.00    +0.000 C 
ATOM     28  O   UNL     1       5.210   4.280  14.402  0.00  0.00    +0.000 OA
ENDBRANCH  24  27
ENDBRANCH  22  24
ENDBRANCH   1  22
TORSDOF 5
ENDMDL
MODEL 5
REMARK VINA RESULT:      -8.4      2.022      8.077
REMARK  Name = 
REMARK  7 active torsions:
REMARK  status: ('A' for Active; 'I' for Inactive)
REMARK    1  A    between atoms: C_1  and  C_2
REMARK    2  A    between atoms: C_3  and  C_4
REMARK    3  A    between atoms: C_4  and  N_5
REMARK    4  A    between atoms: N_5  and  C_6
REMARK    5  A    between atoms: C_10  and  C_11
REMARK    6  A    between atoms: N_17  and  C_18
REMARK    7  A    between atoms: C_22  and  C_23
REMARK                            x       y       z     vdW  Elec       q    Type
REMARK                         _______ _______ _______ _____ _____    ______ ____
ROOT
ATOM      1  C   UNL     1       1.604   6.612  20.644  0.00  0.00    +0.000 A 
ATOM      2  C   UNL     1       2.250   7.013  19.481  0.00  0.00    +0.000 A 
ATOM      3  C   UNL     1       2.964   6.069  18.737  0.00  0.00    +0.000 A 
ATOM      4  C   UNL     1       3.054   4.719  19.055  0.00  0.00    +0.000 A 
ATOM      5  C   UNL     1       2.362   4.239  20.156  0.00  0.00    +0.000 A 
ATOM      6  C   UNL     1       1.610   5.198  20.922  0.00  0.00    +0.000 A 
ATOM      7  C   UNL     1       3.965   4.028  18.075  0.00  0.00    +0.000 C 
ATOM      8  N   UNL     1       4.389   5.101  17.188  0.00  0.00    +0.000 N 
ATOM      9  C   UNL     1       3.789   6.305  17.553  0.00  0.00    +0.000 C 
ATOM     10  O   UNL     1       3.853   7.410  17.057  0.00  0.00    +0.000 OA
ENDROOT
BRANCH   8  11
ATOM     11  C   UNL     1       5.364   4.920  16.155  0.00  0.00    +0.000 A 
ATOM     12  C   UNL     1       6.689   5.344  16.341  0.00  0.00    +0.000 A 
ATOM     13  C   UNL     1       7.663   5.147  15.348  0.00  0.00    +0.000 A 
ATOM     14  C   UNL     1       7.328   4.531  14.149  0.00  0.00    +0.000 A 
ATOM     15  C   UNL     1       6.013   4.105  13.922  0.00  0.00    +0.000 A 
ATOM     16  C   UNL     1       5.653   3.472  12.612  0.00  0.00    +0.000 C 
ATOM     17  C   UNL     1       5.040   4.289  14.938  0.00  0.00    +0.000 A 
ENDBRANCH   8  11
BRANCH   5  18
ATOM     18  C   UNL     1       2.449   2.775  20.537  0.00  0.00    +0.000 C 
ATOM     19  F   UNL     1       1.954   1.932  19.577  0.00  0.00    +0.000 F 
ATOM     20  F   UNL     1       3.728   2.356  20.744  0.00  0.00    +0.000 F 
ATOM     21  F   UNL     1       1.757   2.464  21.666  0.00  0.00    +0.000 F 
ENDBRANCH   5  18
BRANCH   1  22
ATOM     22  N   UNL     1       0.879   7.513  21.455  0.00  0.00    +0.000 N 
ATOM     23  H   UNL     1      -0.084   7.570  21.108  0.00  0.00    +0.000 HD
BRANCH  22  24
ATOM     24  C   UNL     1       1.352   8.956  21.865  0.00  0.00    +0.000 C 
BRANCH  24  27
ATOM     25  C   UNL     1      -1.575  11.880  22.934  0.00  0.00    +0.000 C 
ATOM     26  C   UNL     1      -0.821  10.572  23.111  0.00  0.00    +0.000 C 
ATOM     27  C   UNL     1       0.242  10.063  22.247  0.00  0.00    +0.000 C 
ATOM     28  O   UNL     1      -0.117   9.350  23.278  0.00  0.00    +0.000 OA
ENDBRANCH  24  27
ENDBRANCH  22  24
ENDBRANCH   1  22
TORSDOF 5
ENDMDL
MODEL 6
REMARK VINA RESULT:      -8.4      1.634      1.908
REMARK  Name = 
REMARK  7 active torsions:
REMARK  status: ('A' for Active; 'I' for Inactive)
REMARK    1  A    between atoms: C_1  and  C_2
REMARK    2  A    between atoms: C_3  and  C_4
REMARK    3  A    between atoms: C_4  and  N_5
REMARK    4  A    between atoms: N_5  and  C_6
REMARK    5  A    between atoms: C_10  and  C_11
REMARK    6  A    between atoms: N_17  and  C_18
REMARK    7  A    between atoms: C_22  and  C_23
REMARK                            x       y       z     vdW  Elec       q    Type
REMARK                         _______ _______ _______ _____ _____    ______ ____
ROOT
ATOM      1  C   UNL     1       3.900   4.560  17.554  0.00  0.00    +0.000 A 
ATOM      2  C   UNL     1       3.667   5.929  17.520  0.00  0.00    +0.000 A 
ATOM      3  C   UNL     1       2.915   6.519  18.542  0.00  0.00    +0.000 A 
ATOM      4  C   UNL     1       2.398   5.835  19.635  0.00  0.00    +0.000 A 
ATOM      5  C   UNL     1       2.666   4.481  19.772  0.00  0.00    +0.000 A 
ATOM      6  C   UNL     1       3.452   3.866  18.735  0.00  0.00    +0.000 A 
ATOM      7  C   UNL     1       1.583   6.777  20.482  0.00  0.00    +0.000 C 
ATOM      8  N   UNL     1       1.676   8.043  19.769  0.00  0.00    +0.000 N 
ATOM      9  C   UNL     1       2.476   7.910  18.636  0.00  0.00    +0.000 C 
ATOM     10  O   UNL     1       2.824   8.724  17.807  0.00  0.00    +0.000 OA
ENDROOT
BRANCH   8  11
ATOM     11  C   UNL     1       0.949   9.213  20.161  0.00  0.00    +0.000 A 
ATOM     12  C   UNL     1       0.810  10.296  19.280  0.00  0.00    +0.000 A 
ATOM     13  C   UNL     1       0.076  11.439  19.640  0.00  0.00    +0.000 A 
ATOM     14  C   UNL     1      -0.524  11.522  20.890  0.00  0.00    +0.000 A 
ATOM     15  C   UNL     1      -0.396  10.466  21.802  0.00  0.00    +0.000 A 
ATOM     16  C   UNL     1      -1.018  10.579  23.161  0.00  0.00    +0.000 C 
ATOM     17  C   UNL     1       0.329   9.307  21.423  0.00  0.00    +0.000 A 
ENDBRANCH   8  11
BRANCH   5  18
ATOM     18  C   UNL     1       2.106   3.705  20.946  0.00  0.00    +0.000 C 
ATOM     19  F   UNL     1       2.415   4.257  22.161  0.00  0.00    +0.000 F 
ATOM     20  F   UNL     1       0.747   3.628  20.932  0.00  0.00    +0.000 F 
ATOM     21  F   UNL     1       2.561   2.424  21.018  0.00  0.00    +0.000 F 
ENDBRANCH   5  18
BRANCH   1  22
ATOM     22  N   UNL     1       4.635   3.893  16.549  0.00  0.00    +0.000 N 
ATOM     23  H   UNL     1       4.493   2.883  16.650  0.00  0.00    +0.000 HD
BRANCH  22  24
ATOM     24  C   UNL     1       6.144   4.157  16.195  0.00  0.00    +0.000 C 
BRANCH  24  27
ATOM     25  C   UNL     1       7.325   4.549  12.107  0.00  0.00    +0.000 C 
ATOM     26  C   UNL     1       7.364   4.914  13.582  0.00  0.00    +0.000 C 
ATOM     27  C   UNL     1       6.569   4.302  14.645  0.00  0.00    +0.000 C 
ATOM     28  O   UNL     1       7.400   5.256  14.960  0.00  0.00    +0.000 OA
ENDBRANCH  24  27
ENDBRANCH  22  24
ENDBRANCH   1  22
TORSDOF 5
ENDMDL
MODEL 7
REMARK VINA RESULT:      -8.3      0.347      1.485
REMARK  Name = 
REMARK  7 active torsions:
REMARK  status: ('A' for Active; 'I' for Inactive)
REMARK    1  A    between atoms: C_1  and  C_2
REMARK    2  A    between atoms: C_3  and  C_4
REMARK    3  A    between atoms: C_4  and  N_5
REMARK    4  A    between atoms: N_5  and  C_6
REMARK    5  A    between atoms: C_10  and  C_11
REMARK    6  A    between atoms: N_17  and  C_18
REMARK    7  A    between atoms: C_22  and  C_23
REMARK                            x       y       z     vdW  Elec       q    Type
REMARK                         _______ _______ _______ _____ _____    ______ ____
ROOT
ATOM      1  C   UNL     1       4.883   3.913  16.736  0.00  0.00    +0.000 A 
ATOM      2  C   UNL     1       4.728   5.268  17.003  0.00  0.00    +0.000 A 
ATOM      3  C   UNL     1       3.797   5.672  17.965  0.00  0.00    +0.000 A 
ATOM      4  C   UNL     1       3.017   4.806  18.720  0.00  0.00    +0.000 A 
ATOM      5  C   UNL     1       3.184   3.438  18.563  0.00  0.00    +0.000 A 
ATOM      6  C   UNL     1       4.150   3.009  17.587  0.00  0.00    +0.000 A 
ATOM      7  C   UNL     1       2.080   5.598  19.593  0.00  0.00    +0.000 C 
ATOM      8  N   UNL     1       2.389   6.980  19.258  0.00  0.00    +0.000 N 
ATOM      9  C   UNL     1       3.415   7.039  18.316  0.00  0.00    +0.000 C 
ATOM     10  O   UNL     1       3.977   7.987  17.808  0.00  0.00    +0.000 OA
ENDROOT
BRANCH   8  11
ATOM     11  C   UNL     1       1.650   8.092  19.776  0.00  0.00    +0.000 A 
ATOM     12  C   UNL     1       1.373   8.189  21.148  0.00  0.00    +0.000 A 
ATOM     13  C   UNL     1       0.673   9.288  21.675  0.00  0.00    +0.000 A 
ATOM     14  C   UNL     1       0.233  10.305  20.838  0.00  0.00    +0.000 A 
ATOM     15  C   UNL     1       0.479  10.237  19.461  0.00  0.00    +0.000 A 
ATOM     16  C   UNL     1      -0.030  11.323  18.560  0.00  0.00    +0.000 C 
ATOM     17  C   UNL     1       1.204   9.135  18.940  0.00  0.00    +0.000 A 
ENDBRANCH   8  11
BRANCH   5  18
ATOM     18  C   UNL     1       2.340   2.467  19.363  0.00  0.00    +0.000 C 
ATOM     19  F   UNL     1       2.576   1.154  19.049  0.00  0.00    +0.000 F 
ATOM     20  F   UNL     1       2.561   2.551  20.704  0.00  0.00    +0.000 F 
ATOM     21  F   UNL     1       1.002   2.634  19.185  0.00  0.00    +0.000 F 
ENDBRANCH   5  18
BRANCH   1  22
ATOM     22  N   UNL     1       5.790   3.432  15.767  0.00  0.00    +0.000 N 
ATOM     23  H   UNL     1       6.667   3.177  16.232  0.00  0.00    +0.000 HD
BRANCH  22  24
ATOM     24  C   UNL     1       6.131   4.140  14.404  0.00  0.00    +0.000 C 
BRANCH  24  27
ATOM     25  C   UNL     1       3.798   3.184  10.955  0.00  0.00    +0.000 C 
ATOM     26  C   UNL     1       5.083   3.233  11.766  0.00  0.00    +0.000 C 
ATOM     27  C   UNL     1       5.239   3.799  13.104  0.00  0.00    +0.000 C 
ATOM     28  O   UNL     1       6.283   3.279  12.522  0.00  0.00    +0.000 OA
ENDBRANCH  24  27
ENDBRANCH  22  24
ENDBRANCH   1  22
TORSDOF 5
ENDMDL
MODEL 8
REMARK VINA RESULT:      -8.3      0.916      1.627
REMARK  Name = 
REMARK  7 active torsions:
REMARK  status: ('A' for Active; 'I' for Inactive)
REMARK    1  A    between atoms: C_1  and  C_2
REMARK    2  A    between atoms: C_3  and  C_4
REMARK    3  A    between atoms: C_4  and  N_5
REMARK    4  A    between atoms: N_5  and  C_6
REMARK    5  A    between atoms: C_10  and  C_11
REMARK    6  A    between atoms: N_17  and  C_18
REMARK    7  A    between atoms: C_22  and  C_23
REMARK                            x       y       z     vdW  Elec       q    Type
REMARK                         _______ _______ _______ _____ _____    ______ ____
ROOT
ATOM      1  C   UNL     1       4.740   4.027  17.419  0.00  0.00    +0.000 A 
ATOM      2  C   UNL     1       4.395   5.373  17.426  0.00  0.00    +0.000 A 
ATOM      3  C   UNL     1       3.570   5.861  18.444  0.00  0.00    +0.000 A 
ATOM      4  C   UNL     1       3.081   5.097  19.497  0.00  0.00    +0.000 A 
ATOM      5  C   UNL     1       3.458   3.766  19.595  0.00  0.00    +0.000 A 
ATOM      6  C   UNL     1       4.320   3.256  18.561  0.00  0.00    +0.000 A 
ATOM      7  C   UNL     1       2.169   5.937  20.351  0.00  0.00    +0.000 C 
ATOM      8  N   UNL     1       2.175   7.231  19.686  0.00  0.00    +0.000 N 
ATOM      9  C   UNL     1       3.015   7.207  18.573  0.00  0.00    +0.000 C 
ATOM     10  O   UNL     1       3.316   8.077  17.784  0.00  0.00    +0.000 OA
ENDROOT
BRANCH   8  11
ATOM     11  C   UNL     1       1.344   8.323  20.097  0.00  0.00    +0.000 A 
ATOM     12  C   UNL     1       0.886   8.414  21.420  0.00  0.00    +0.000 A 
ATOM     13  C   UNL     1       0.093   9.494  21.844  0.00  0.00    +0.000 A 
ATOM     14  C   UNL     1      -0.262  10.497  20.950  0.00  0.00    +0.000 A 
ATOM     15  C   UNL     1       0.166  10.433  19.618  0.00  0.00    +0.000 A 
ATOM     16  C   UNL     1      -0.250  11.502  18.653  0.00  0.00    +0.000 C 
ATOM     17  C   UNL     1       0.983   9.351  19.203  0.00  0.00    +0.000 A 
ENDBRANCH   8  11
BRANCH   5  18
ATOM     18  C   UNL     1       2.933   2.903  20.724  0.00  0.00    +0.000 C 
ATOM     19  F   UNL     1       2.471   3.625  21.792  0.00  0.00    +0.000 F 
ATOM     20  F   UNL     1       1.882   2.121  20.350  0.00  0.00    +0.000 F 
ATOM     21  F   UNL     1       3.867   2.063  21.247  0.00  0.00    +0.000 F 
ENDBRANCH   5  18
BRANCH   1  22
ATOM     22  N   UNL     1       5.555   3.461  16.414  0.00  0.00    +0.000 N 
ATOM     23  H   UNL     1       6.350   2.992  16.858  0.00  0.00    +0.000 HD
BRANCH  22  24
ATOM     24  C   UNL     1       6.064   4.204  15.125  0.00  0.00    +0.000 C 
BRANCH  24  27
ATOM     25  C   UNL     1       4.310   3.231  11.352  0.00  0.00    +0.000 C 
ATOM     26  C   UNL     1       5.475   3.420  12.310  0.00  0.00    +0.000 C 
ATOM     27  C   UNL     1       5.387   3.854  13.703  0.00  0.00    +0.000 C 
ATOM     28  O   UNL     1       6.564   3.596  13.204  0.00  0.00    +0.000 OA
ENDBRANCH  24  27
ENDBRANCH  22  24
ENDBRANCH   1  22
TORSDOF 5
ENDMDL
MODEL 9
REMARK VINA RESULT:      -8.3      1.802      7.504
REMARK  Name = 
REMARK  7 active torsions:
REMARK  status: ('A' for Active; 'I' for Inactive)
REMARK    1  A    between atoms: C_1  and  C_2
REMARK    2  A    between atoms: C_3  and  C_4
REMARK    3  A    between atoms: C_4  and  N_5
REMARK    4  A    between atoms: N_5  and  C_6
REMARK    5  A    between atoms: C_10  and  C_11
REMARK    6  A    between atoms: N_17  and  C_18
REMARK    7  A    between atoms: C_22  and  C_23
REMARK                            x       y       z     vdW  Elec       q    Type
REMARK                         _______ _______ _______ _____ _____    ______ ____
ROOT
ATOM      1  C   UNL     1       1.805   6.498  20.458  0.00  0.00    +0.000 A 
ATOM      2  C   UNL     1       2.597   6.939  19.406  0.00  0.00    +0.000 A 
ATOM      3  C   UNL     1       3.086   6.009  18.483  0.00  0.00    +0.000 A 
ATOM      4  C   UNL     1       2.811   4.648  18.515  0.00  0.00    +0.000 A 
ATOM      5  C   UNL     1       1.958   4.156  19.491  0.00  0.00    +0.000 A 
ATOM      6  C   UNL     1       1.435   5.106  20.438  0.00  0.00    +0.000 A 
ATOM      7  C   UNL     1       3.568   3.952  17.415  0.00  0.00    +0.000 C 
ATOM      8  N   UNL     1       4.301   5.031  16.770  0.00  0.00    +0.000 N 
ATOM      9  C   UNL     1       4.009   6.253  17.376  0.00  0.00    +0.000 C 
ATOM     10  O   UNL     1       4.382   7.378  17.120  0.00  0.00    +0.000 OA
ENDROOT
BRANCH   8  11
ATOM     11  C   UNL     1       5.254   4.811  15.724  0.00  0.00    +0.000 A 
ATOM     12  C   UNL     1       6.586   5.229  15.871  0.00  0.00    +0.000 A 
ATOM     13  C   UNL     1       7.538   4.995  14.865  0.00  0.00    +0.000 A 
ATOM     14  C   UNL     1       7.175   4.345  13.693  0.00  0.00    +0.000 A 
ATOM     15  C   UNL     1       5.852   3.924  13.505  0.00  0.00    +0.000 A 
ATOM     16  C   UNL     1       5.461   3.253  12.222  0.00  0.00    +0.000 C 
ATOM     17  C   UNL     1       4.901   4.146  14.533  0.00  0.00    +0.000 A 
ENDBRANCH   8  11
BRANCH   5  18
ATOM     18  C   UNL     1       1.647   2.675  19.561  0.00  0.00    +0.000 C 
ATOM     19  F   UNL     1       0.757   2.260  18.605  0.00  0.00    +0.000 F 
ATOM     20  F   UNL     1       2.746   1.892  19.379  0.00  0.00    +0.000 F 
ATOM     21  F   UNL     1       1.095   2.289  20.743  0.00  0.00    +0.000 F 
ENDBRANCH   5  18
BRANCH   1  22
ATOM     22  N   UNL     1       1.291   7.377  21.437  0.00  0.00    +0.000 N 
ATOM     23  H   UNL     1       0.395   7.010  21.774  0.00  0.00    +0.000 HD
BRANCH  22  24
ATOM     24  C   UNL     1       1.171   8.939  21.289  0.00  0.00    +0.000 C 
BRANCH  24  27
ATOM     25  C   UNL     1      -1.283  10.594  18.208  0.00  0.00    +0.000 C 
ATOM     26  C   UNL     1      -0.768  10.483  19.634  0.00  0.00    +0.000 C 
ATOM     27  C   UNL     1       0.241   9.543  20.118  0.00  0.00    +0.000 C 
ATOM     28  O   UNL     1      -0.288  10.379  20.966  0.00  0.00    +0.000 OA
ENDBRANCH  24  27
ENDBRANCH  22  24
ENDBRANCH   1  22
TORSDOF 5
ENDMDL
