MODEL 1
REMARK VINA RESULT:      -8.9      0.000      0.000
REMARK  Name = 
REMARK  5 active torsions:
REMARK  status: ('A' for Active; 'I' for Inactive)
REMARK    1  A    between atoms: C_1  and  N_2
REMARK    2  A    between atoms: C_9  and  C_10
REMARK    3  A    between atoms: C_10  and  N_11
REMARK    4  A    between atoms: N_11  and  C_12
REMARK    5  A    between atoms: C_16  and  N_17
REMARK                            x       y       z     vdW  Elec       q    Type
REMARK                         _______ _______ _______ _____ _____    ______ ____
ROOT
ATOM      1  N   UNL     1       1.749   6.626  20.869  0.00  0.00    +0.000 N 
ATOM      2  H   UNL     1       1.952   6.817  21.849  0.00  0.00    +0.000 HD
ENDROOT
BRANCH   1   3
ATOM      3  C   UNL     1       2.331   5.410  20.500  0.00  0.00    +0.000 A 
ATOM      4  C   UNL     1       1.859   4.152  20.878  0.00  0.00    +0.000 A 
ATOM      5  C   UNL     1       2.482   2.986  20.420  0.00  0.00    +0.000 A 
ATOM      6  C   UNL     1       3.590   3.061  19.576  0.00  0.00    +0.000 A 
ATOM      7  C   UNL     1       4.059   4.303  19.148  0.00  0.00    +0.000 A 
ATOM      8  C   UNL     1       3.422   5.462  19.621  0.00  0.00    +0.000 A 
BRANCH   7   9
ATOM      9  N   UNL     1       5.100   4.392  18.171  0.00  0.00    +0.000 N 
ATOM     10  C   UNL     1       4.690   4.255  16.771  0.00  0.00    +0.000 C 
ATOM     11  C   UNL     1       5.814   3.775  15.873  0.00  0.00    +0.000 C 
ATOM     12  C   UNL     1       6.974   4.735  16.028  0.00  0.00    +0.000 C 
ATOM     13  C   UNL     1       7.469   4.705  17.461  0.00  0.00    +0.000 C 
ATOM     14  C   UNL     1       6.395   4.756  18.540  0.00  0.00    +0.000 C 
ATOM     15  O   UNL     1       6.732   5.058  19.688  0.00  0.00    +0.000 OA
ENDBRANCH   7   9
ENDBRANCH   1   3
BRANCH   1  16
ATOM     16  C   UNL     1       1.950   7.814  20.051  0.00  0.00    +0.000 C 
BRANCH  16  25
ATOM     17  C   UNL     1      -1.866  12.267  23.147  0.00  0.00    +0.000 C 
ATOM     18  N   UNL     1      -1.722  11.940  21.738  0.00  0.00    +0.000 N 
ATOM     19  C   UNL     1      -2.480  12.649  20.809  0.00  0.00    +0.000 C 
ATOM     20  O   UNL     1      -3.261  13.553  21.116  0.00  0.00    +0.000 OA
ATOM     21  C   UNL     1      -2.396  12.180  19.376  0.00  0.00    +0.000 C 
ATOM     22  C   UNL     1      -0.978  11.805  19.009  0.00  0.00    +0.000 C 
ATOM     23  C   UNL     1      -0.456  10.797  19.990  0.00  0.00    +0.000 A 
ATOM     24  C   UNL     1       0.448   9.803  19.578  0.00  0.00    +0.000 A 
ATOM     25  C   UNL     1       0.992   8.898  20.498  0.00  0.00    +0.000 A 
ATOM     26  C   UNL     1       0.641   9.023  21.847  0.00  0.00    +0.000 A 
ATOM     27  C   UNL     1      -0.243  10.026  22.265  0.00  0.00    +0.000 A 
ATOM     28  C   UNL     1      -0.808  10.913  21.343  0.00  0.00    +0.000 A 
ENDBRANCH  16  25
ENDBRANCH   1  16
TORSDOF 4
ENDMDL
MODEL 2
REMARK VINA RESULT:      -8.9      1.504      1.869
REMARK  Name = 
REMARK  5 active torsions:
REMARK  status: ('A' for Active; 'I' for Inactive)
REMARK    1  A    between atoms: C_1  and  N_2
REMARK    2  A    between atoms: C_9  and  C_10
REMARK    3  A    between atoms: C_10  and  N_11
REMARK    4  A    between atoms: N_11  and  C_12
REMARK    5  A    between atoms: C_16  and  N_17
REMARK                            x       y       z     vdW  Elec       q    Type
REMARK                         _______ _______ _______ _____ _____    ______ ____
ROOT
ATOM      1  N   UNL     1       1.831   7.535  20.299  0.00  0.00    +0.000 N 
ATOM      2  H   UNL     1       2.163   7.907  21.188  0.00  0.00    +0.000 HD
ENDROOT
BRANCH   1   3
ATOM      3  C   UNL     1       2.325   6.240  20.122  0.00  0.00    +0.000 A 
ATOM      4  C   UNL     1       1.736   5.084  20.637  0.00  0.00    +0.000 A 
ATOM      5  C   UNL     1       2.279   3.823  20.368  0.00  0.00    +0.000 A 
ATOM      6  C   UNL     1       3.422   3.698  19.577  0.00  0.00    +0.000 A 
ATOM      7  C   UNL     1       4.007   4.833  19.014  0.00  0.00    +0.000 A 
ATOM      8  C   UNL     1       3.450   6.090  19.299  0.00  0.00    +0.000 A 
BRANCH   7   9
ATOM      9  N   UNL     1       5.089   4.710  18.087  0.00  0.00    +0.000 N 
ATOM     10  C   UNL     1       4.723   4.589  16.674  0.00  0.00    +0.000 C 
ATOM     11  C   UNL     1       5.789   3.896  15.847  0.00  0.00    +0.000 C 
ATOM     12  C   UNL     1       7.085   4.654  16.029  0.00  0.00    +0.000 C 
ATOM     13  C   UNL     1       7.506   4.597  17.485  0.00  0.00    +0.000 C 
ATOM     14  C   UNL     1       6.410   4.868  18.508  0.00  0.00    +0.000 C 
ATOM     15  O   UNL     1       6.744   5.153  19.661  0.00  0.00    +0.000 OA
ENDBRANCH   7   9
ENDBRANCH   1   3
BRANCH   1  16
ATOM     16  C   UNL     1       1.960   8.522  19.237  0.00  0.00    +0.000 C 
BRANCH  16  25
ATOM     17  C   UNL     1      -3.059  12.784  20.030  0.00  0.00    +0.000 C 
ATOM     18  N   UNL     1      -2.828  11.744  19.039  0.00  0.00    +0.000 N 
ATOM     19  C   UNL     1      -3.781  11.553  18.042  0.00  0.00    +0.000 C 
ATOM     20  O   UNL     1      -4.809  12.228  17.943  0.00  0.00    +0.000 OA
ATOM     21  C   UNL     1      -3.563  10.375  17.122  0.00  0.00    +0.000 C 
ATOM     22  C   UNL     1      -2.103  10.235  16.756  0.00  0.00    +0.000 C 
ATOM     23  C   UNL     1      -1.277  10.167  18.007  0.00  0.00    +0.000 A 
ATOM     24  C   UNL     1      -0.104   9.392  18.046  0.00  0.00    +0.000 A 
ATOM     25  C   UNL     1       0.708   9.372  19.186  0.00  0.00    +0.000 A 
ATOM     26  C   UNL     1       0.346  10.167  20.279  0.00  0.00    +0.000 A 
ATOM     27  C   UNL     1      -0.809  10.958  20.236  0.00  0.00    +0.000 A 
ATOM     28  C   UNL     1      -1.636  10.957  19.109  0.00  0.00    +0.000 A 
ENDBRANCH  16  25
ENDBRANCH   1  16
TORSDOF 4
ENDMDL
MODEL 3
REMARK VINA RESULT:      -8.9      0.626      1.692
REMARK  Name = 
REMARK  5 active torsions:
REMARK  status: ('A' for Active; 'I' for Inactive)
REMARK    1  A    between atoms: C_1  and  N_2
REMARK    2  A    between atoms: C_9  and  C_10
REMARK    3  A    between atoms: C_10  and  N_11
REMARK    4  A    between atoms: N_11  and  C_12
REMARK    5  A    between atoms: C_16  and  N_17
REMARK                            x       y       z     vdW  Elec       q    Type
REMARK                         _______ _______ _______ _____ _____    ______ ____
ROOT
ATOM      1  N   UNL     1       1.712   6.981  20.698  0.00  0.00    +0.000 N 
ATOM      2  H   UNL     1       1.949   7.166  21.672  0.00  0.00    +0.000 HD
ENDROOT
BRANCH   1   3
ATOM      3  C   UNL     1       2.203   5.725  20.329  0.00  0.00    +0.000 A 
ATOM      4  C   UNL     1       1.603   4.507  20.653  0.00  0.00    +0.000 A 
ATOM      5  C   UNL     1       2.146   3.300  20.199  0.00  0.00    +0.000 A 
ATOM      6  C   UNL     1       3.298   3.292  19.413  0.00  0.00    +0.000 A 
ATOM      7  C   UNL     1       3.895   4.496  19.039  0.00  0.00    +0.000 A 
ATOM      8  C   UNL     1       3.339   5.698  19.507  0.00  0.00    +0.000 A 
BRANCH   7   9
ATOM      9  N   UNL     1       4.989   4.512  18.117  0.00  0.00    +0.000 N 
ATOM     10  C   UNL     1       4.643   4.408  16.698  0.00  0.00    +0.000 C 
ATOM     11  C   UNL     1       5.775   3.851  15.856  0.00  0.00    +0.000 C 
ATOM     12  C   UNL     1       6.991   4.723  16.076  0.00  0.00    +0.000 C 
ATOM     13  C   UNL     1       7.408   4.653  17.533  0.00  0.00    +0.000 C 
ATOM     14  C   UNL     1       6.287   4.779  18.555  0.00  0.00    +0.000 C 
ATOM     15  O   UNL     1       6.585   5.053  19.721  0.00  0.00    +0.000 OA
ENDBRANCH   7   9
ENDBRANCH   1   3
BRANCH   1  16
ATOM     16  C   UNL     1       1.973   8.145  19.865  0.00  0.00    +0.000 C 
BRANCH  16  25
ATOM     17  C   UNL     1      -2.902  12.639  19.726  0.00  0.00    +0.000 C 
ATOM     18  N   UNL     1      -2.089  12.137  20.822  0.00  0.00    +0.000 N 
ATOM     19  C   UNL     1      -2.320  12.632  22.103  0.00  0.00    +0.000 C 
ATOM     20  O   UNL     1      -3.189  13.468  22.363  0.00  0.00    +0.000 OA
ATOM     21  C   UNL     1      -1.362  12.182  23.180  0.00  0.00    +0.000 C 
ATOM     22  C   UNL     1      -1.023  10.717  23.028  0.00  0.00    +0.000 C 
ATOM     23  C   UNL     1      -0.512  10.462  21.640  0.00  0.00    +0.000 A 
ATOM     24  C   UNL     1       0.467   9.479  21.410  0.00  0.00    +0.000 A 
ATOM     25  C   UNL     1       0.905   9.189  20.112  0.00  0.00    +0.000 A 
ATOM     26  C   UNL     1       0.322   9.875  19.040  0.00  0.00    +0.000 A 
ATOM     27  C   UNL     1      -0.670  10.838  19.264  0.00  0.00    +0.000 A 
ATOM     28  C   UNL     1      -1.087  11.149  20.561  0.00  0.00    +0.000 A 
ENDBRANCH  16  25
ENDBRANCH   1  16
TORSDOF 4
ENDMDL
MODEL 4
REMARK VINA RESULT:      -8.5      1.093      1.135
REMARK  Name = 
REMARK  5 active torsions:
REMARK  status: ('A' for Active; 'I' for Inactive)
REMARK    1  A    between atoms: C_1  and  N_2
REMARK    2  A    between atoms: C_9  and  C_10
REMARK    3  A    between atoms: C_10  and  N_11
REMARK    4  A    between atoms: N_11  and  C_12
REMARK    5  A    between atoms: C_16  and  N_17
REMARK                            x       y       z     vdW  Elec       q    Type
REMARK                         _______ _______ _______ _____ _____    ______ ____
ROOT
ATOM      1  N   UNL     1       1.838   7.313  20.501  0.00  0.00    +0.000 N 
ATOM      2  H   UNL     1       1.715   7.833  19.634  0.00  0.00    +0.000 HD
ENDROOT
BRANCH   1   3
ATOM      3  C   UNL     1       2.307   6.028  20.212  0.00  0.00    +0.000 A 
ATOM      4  C   UNL     1       1.686   4.844  20.612  0.00  0.00    +0.000 A 
ATOM      5  C   UNL     1       2.206   3.601  20.234  0.00  0.00    +0.000 A 
ATOM      6  C   UNL     1       3.357   3.523  19.449  0.00  0.00    +0.000 A 
ATOM      7  C   UNL     1       3.974   4.691  19.000  0.00  0.00    +0.000 A 
ATOM      8  C   UNL     1       3.440   5.929  19.392  0.00  0.00    +0.000 A 
BRANCH   7   9
ATOM      9  N   UNL     1       5.066   4.629  18.078  0.00  0.00    +0.000 N 
ATOM     10  C   UNL     1       4.715   4.514  16.661  0.00  0.00    +0.000 C 
ATOM     11  C   UNL     1       5.814   3.880  15.831  0.00  0.00    +0.000 C 
ATOM     12  C   UNL     1       7.075   4.691  16.033  0.00  0.00    +0.000 C 
ATOM     13  C   UNL     1       7.489   4.629  17.491  0.00  0.00    +0.000 C 
ATOM     14  C   UNL     1       6.377   4.836  18.510  0.00  0.00    +0.000 C 
ATOM     15  O   UNL     1       6.690   5.118  19.670  0.00  0.00    +0.000 OA
ENDBRANCH   7   9
ENDBRANCH   1   3
BRANCH   1  16
ATOM     16  C   UNL     1       0.699   7.496  21.389  0.00  0.00    +0.000 C 
BRANCH  16  25
ATOM     17  C   UNL     1      -1.011  13.753  22.768  0.00  0.00    +0.000 C 
ATOM     18  N   UNL     1      -0.755  13.084  21.503  0.00  0.00    +0.000 N 
ATOM     19  C   UNL     1      -0.858  13.822  20.327  0.00  0.00    +0.000 C 
ATOM     20  O   UNL     1      -1.144  15.022  20.298  0.00  0.00    +0.000 OA
ATOM     21  C   UNL     1      -0.717  13.052  19.035  0.00  0.00    +0.000 C 
ATOM     22  C   UNL     1       0.379  12.015  19.138  0.00  0.00    +0.000 C 
ATOM     23  C   UNL     1       0.126  11.134  20.326  0.00  0.00    +0.000 A 
ATOM     24  C   UNL     1       0.494   9.778  20.299  0.00  0.00    +0.000 A 
ATOM     25  C   UNL     1       0.322   8.962  21.424  0.00  0.00    +0.000 A 
ATOM     26  C   UNL     1      -0.196   9.534  22.591  0.00  0.00    +0.000 A 
ATOM     27  C   UNL     1      -0.544  10.890  22.629  0.00  0.00    +0.000 A 
ATOM     28  C   UNL     1      -0.398  11.699  21.498  0.00  0.00    +0.000 A 
ENDBRANCH  16  25
ENDBRANCH   1  16
TORSDOF 4
ENDMDL
MODEL 5
REMARK VINA RESULT:      -8.5      1.128      1.942
REMARK  Name = 
REMARK  5 active torsions:
REMARK  status: ('A' for Active; 'I' for Inactive)
REMARK    1  A    between atoms: C_1  and  N_2
REMARK    2  A    between atoms: C_9  and  C_10
REMARK    3  A    between atoms: C_10  and  N_11
REMARK    4  A    between atoms: N_11  and  C_12
REMARK    5  A    between atoms: C_16  and  N_17
REMARK                            x       y       z     vdW  Elec       q    Type
REMARK                         _______ _______ _______ _____ _____    ______ ____
ROOT
ATOM      1  N   UNL     1       1.827   7.605  20.268  0.00  0.00    +0.000 N 
ATOM      2  H   UNL     1       1.430   7.919  19.383  0.00  0.00    +0.000 HD
ENDROOT
BRANCH   1   3
ATOM      3  C   UNL     1       2.323   6.307  20.122  0.00  0.00    +0.000 A 
ATOM      4  C   UNL     1       1.739   5.163  20.669  0.00  0.00    +0.000 A 
ATOM      5  C   UNL     1       2.284   3.897  20.429  0.00  0.00    +0.000 A 
ATOM      6  C   UNL     1       3.424   3.755  19.638  0.00  0.00    +0.000 A 
ATOM      7  C   UNL     1       4.005   4.876  19.044  0.00  0.00    +0.000 A 
ATOM      8  C   UNL     1       3.446   6.139  19.299  0.00  0.00    +0.000 A 
BRANCH   7   9
ATOM      9  N   UNL     1       5.084   4.732  18.116  0.00  0.00    +0.000 N 
ATOM     10  C   UNL     1       4.714   4.591  16.706  0.00  0.00    +0.000 C 
ATOM     11  C   UNL     1       5.773   3.878  15.888  0.00  0.00    +0.000 C 
ATOM     12  C   UNL     1       7.074   4.632  16.054  0.00  0.00    +0.000 C 
ATOM     13  C   UNL     1       7.498   4.595  17.510  0.00  0.00    +0.000 C 
ATOM     14  C   UNL     1       6.407   4.888  18.531  0.00  0.00    +0.000 C 
ATOM     15  O   UNL     1       6.745   5.190  19.679  0.00  0.00    +0.000 OA
ENDBRANCH   7   9
ENDBRANCH   1   3
BRANCH   1  16
ATOM     16  C   UNL     1       0.949   7.935  21.382  0.00  0.00    +0.000 C 
BRANCH  16  25
ATOM     17  C   UNL     1      -0.753  14.088  19.586  0.00  0.00    +0.000 C 
ATOM     18  N   UNL     1      -0.849  13.398  20.862  0.00  0.00    +0.000 N 
ATOM     19  C   UNL     1      -1.391  14.081  21.948  0.00  0.00    +0.000 C 
ATOM     20  O   UNL     1      -1.809  15.240  21.884  0.00  0.00    +0.000 OA
ATOM     21  C   UNL     1      -1.342  13.371  23.281  0.00  0.00    +0.000 C 
ATOM     22  C   UNL     1      -1.662  11.902  23.125  0.00  0.00    +0.000 C 
ATOM     23  C   UNL     1      -0.749  11.296  22.100  0.00  0.00    +0.000 A 
ATOM     24  C   UNL     1      -0.325   9.961  22.223  0.00  0.00    +0.000 A 
ATOM     25  C   UNL     1       0.475   9.366  21.240  0.00  0.00    +0.000 A 
ATOM     26  C   UNL     1       0.819  10.118  20.111  0.00  0.00    +0.000 A 
ATOM     27  C   UNL     1       0.380  11.442  19.974  0.00  0.00    +0.000 A 
ATOM     28  C   UNL     1      -0.395  12.046  20.968  0.00  0.00    +0.000 A 
ENDBRANCH  16  25
ENDBRANCH   1  16
TORSDOF 4
ENDMDL
MODEL 6
REMARK VINA RESULT:      -8.5      5.623      8.296
REMARK  Name = 
REMARK  5 active torsions:
REMARK  status: ('A' for Active; 'I' for Inactive)
REMARK    1  A    between atoms: C_1  and  N_2
REMARK    2  A    between atoms: C_9  and  C_10
REMARK    3  A    between atoms: C_10  and  N_11
REMARK    4  A    between atoms: N_11  and  C_12
REMARK    5  A    between atoms: C_16  and  N_17
REMARK                            x       y       z     vdW  Elec       q    Type
REMARK                         _______ _______ _______ _____ _____    ______ ____
ROOT
ATOM      1  N   UNL     1       6.748   7.781  17.419  0.00  0.00    +0.000 N 
ATOM      2  H   UNL     1       6.054   8.325  17.932  0.00  0.00    +0.000 HD
ENDROOT
BRANCH   1   3
ATOM      3  C   UNL     1       6.214   6.531  17.095  0.00  0.00    +0.000 A 
ATOM      4  C   UNL     1       6.682   5.704  16.074  0.00  0.00    +0.000 A 
ATOM      5  C   UNL     1       6.111   4.446  15.853  0.00  0.00    +0.000 A 
ATOM      6  C   UNL     1       5.061   3.994  16.653  0.00  0.00    +0.000 A 
ATOM      7  C   UNL     1       4.600   4.782  17.709  0.00  0.00    +0.000 A 
ATOM      8  C   UNL     1       5.183   6.044  17.912  0.00  0.00    +0.000 A 
BRANCH   7   9
ATOM      9  N   UNL     1       3.626   4.275  18.624  0.00  0.00    +0.000 N 
ATOM     10  C   UNL     1       2.231   4.628  18.351  0.00  0.00    +0.000 C 
ATOM     11  C   UNL     1       1.360   4.590  19.591  0.00  0.00    +0.000 C 
ATOM     12  C   UNL     1       1.480   3.211  20.202  0.00  0.00    +0.000 C 
ATOM     13  C   UNL     1       2.916   2.968  20.626  0.00  0.00    +0.000 C 
ATOM     14  C   UNL     1       3.986   3.361  19.616  0.00  0.00    +0.000 C 
ATOM     15  O   UNL     1       5.123   2.901  19.757  0.00  0.00    +0.000 OA
ENDBRANCH   7   9
ENDBRANCH   1   3
BRANCH   1  16
ATOM     16  C   UNL     1       8.058   7.880  18.046  0.00  0.00    +0.000 C 
BRANCH  16  25
ATOM     17  C   UNL     1       8.674  14.483  18.086  0.00  0.00    +0.000 C 
ATOM     18  N   UNL     1       9.459  13.441  18.727  0.00  0.00    +0.000 N 
ATOM     19  C   UNL     1      10.546  13.816  19.513  0.00  0.00    +0.000 C 
ATOM     20  O   UNL     1      10.874  14.989  19.708  0.00  0.00    +0.000 OA
ATOM     21  C   UNL     1      11.409  12.696  20.044  0.00  0.00    +0.000 C 
ATOM     22  C   UNL     1      10.564  11.527  20.498  0.00  0.00    +0.000 C 
ATOM     23  C   UNL     1       9.661  11.097  19.379  0.00  0.00    +0.000 A 
ATOM     24  C   UNL     1       9.312   9.744  19.226  0.00  0.00    +0.000 A 
ATOM     25  C   UNL     1       8.419   9.339  18.225  0.00  0.00    +0.000 A 
ATOM     26  C   UNL     1       7.854  10.317  17.398  0.00  0.00    +0.000 A 
ATOM     27  C   UNL     1       8.183  11.669  17.562  0.00  0.00    +0.000 A 
ATOM     28  C   UNL     1       9.095  12.070  18.543  0.00  0.00    +0.000 A 
ENDBRANCH  16  25
ENDBRANCH   1  16
TORSDOF 4
ENDMDL
MODEL 7
REMARK VINA RESULT:      -8.4      5.757      8.422
REMARK  Name = 
REMARK  5 active torsions:
REMARK  status: ('A' for Active; 'I' for Inactive)
REMARK    1  A    between atoms: C_1  and  N_2
REMARK    2  A    between atoms: C_9  and  C_10
REMARK    3  A    between atoms: C_10  and  N_11
REMARK    4  A    between atoms: N_11  and  C_12
REMARK    5  A    between atoms: C_16  and  N_17
REMARK                            x       y       z     vdW  Elec       q    Type
REMARK                         _______ _______ _______ _____ _____    ______ ____
ROOT
ATOM      1  N   UNL     1       7.065   7.829  17.216  0.00  0.00    +0.000 N 
ATOM      2  H   UNL     1       6.336   8.521  17.384  0.00  0.00    +0.000 HD
ENDROOT
BRANCH   1   3
ATOM      3  C   UNL     1       6.479   6.580  16.989  0.00  0.00    +0.000 A 
ATOM      4  C   UNL     1       6.894   5.670  16.016  0.00  0.00    +0.000 A 
ATOM      5  C   UNL     1       6.274   4.422  15.893  0.00  0.00    +0.000 A 
ATOM      6  C   UNL     1       5.227   4.064  16.744  0.00  0.00    +0.000 A 
ATOM      7  C   UNL     1       4.820   4.937  17.753  0.00  0.00    +0.000 A 
ATOM      8  C   UNL     1       5.452   6.187  17.858  0.00  0.00    +0.000 A 
BRANCH   7   9
ATOM      9  N   UNL     1       3.850   4.529  18.722  0.00  0.00    +0.000 N 
ATOM     10  C   UNL     1       4.305   3.569  19.731  0.00  0.00    +0.000 C 
ATOM     11  C   UNL     1       3.171   2.754  20.321  0.00  0.00    +0.000 C 
ATOM     12  C   UNL     1       2.148   3.718  20.882  0.00  0.00    +0.000 C 
ATOM     13  C   UNL     1       1.584   4.568  19.760  0.00  0.00    +0.000 C 
ATOM     14  C   UNL     1       2.601   5.146  18.785  0.00  0.00    +0.000 C 
ATOM     15  O   UNL     1       2.253   6.086  18.065  0.00  0.00    +0.000 OA
ENDBRANCH   7   9
ENDBRANCH   1   3
BRANCH   1  16
ATOM     16  C   UNL     1       8.149   7.967  18.178  0.00  0.00    +0.000 C 
BRANCH  16  25
ATOM     17  C   UNL     1       8.738  14.572  18.078  0.00  0.00    +0.000 C 
ATOM     18  N   UNL     1       9.539  13.546  18.726  0.00  0.00    +0.000 N 
ATOM     19  C   UNL     1      10.638  13.940  19.485  0.00  0.00    +0.000 C 
ATOM     20  O   UNL     1      10.964  15.118  19.651  0.00  0.00    +0.000 OA
ATOM     21  C   UNL     1      11.515  12.834  20.023  0.00  0.00    +0.000 C 
ATOM     22  C   UNL     1      10.682  11.671  20.514  0.00  0.00    +0.000 C 
ATOM     23  C   UNL     1       9.762  11.216  19.420  0.00  0.00    +0.000 A 
ATOM     24  C   UNL     1       9.416   9.858  19.299  0.00  0.00    +0.000 A 
ATOM     25  C   UNL     1       8.508   9.431  18.322  0.00  0.00    +0.000 A 
ATOM     26  C   UNL     1       7.924  10.390  17.486  0.00  0.00    +0.000 A 
ATOM     27  C   UNL     1       8.250  11.746  17.618  0.00  0.00    +0.000 A 
ATOM     28  C   UNL     1       9.177  12.170  18.575  0.00  0.00    +0.000 A 
ENDBRANCH  16  25
ENDBRANCH   1  16
TORSDOF 4
ENDMDL
MODEL 8
REMARK VINA RESULT:      -8.4      0.940      1.342
REMARK  Name = 
REMARK  5 active torsions:
REMARK  status: ('A' for Active; 'I' for Inactive)
REMARK    1  A    between atoms: C_1  and  N_2
REMARK    2  A    between atoms: C_9  and  C_10
REMARK    3  A    between atoms: C_10  and  N_11
REMARK    4  A    between atoms: N_11  and  C_12
REMARK    5  A    between atoms: C_16  and  N_17
REMARK                            x       y       z     vdW  Elec       q    Type
REMARK                         _______ _______ _______ _____ _____    ______ ____
ROOT
ATOM      1  N   UNL     1       1.600   6.533  20.929  0.00  0.00    +0.000 N 
ATOM      2  H   UNL     1       1.614   6.707  21.934  0.00  0.00    +0.000 HD
ENDROOT
BRANCH   1   3
ATOM      3  C   UNL     1       2.296   5.353  20.650  0.00  0.00    +0.000 A 
ATOM      4  C   UNL     1       2.004   4.105  21.203  0.00  0.00    +0.000 A 
ATOM      5  C   UNL     1       2.729   2.969  20.828  0.00  0.00    +0.000 A 
ATOM      6  C   UNL     1       3.759   3.064  19.891  0.00  0.00    +0.000 A 
ATOM      7  C   UNL     1       4.045   4.290  19.291  0.00  0.00    +0.000 A 
ATOM      8  C   UNL     1       3.309   5.420  19.683  0.00  0.00    +0.000 A 
BRANCH   7   9
ATOM      9  N   UNL     1       4.997   4.376  18.227  0.00  0.00    +0.000 N 
ATOM     10  C   UNL     1       6.377   4.679  18.614  0.00  0.00    +0.000 C 
ATOM     11  C   UNL     1       7.175   5.321  17.495  0.00  0.00    +0.000 C 
ATOM     12  C   UNL     1       7.116   4.401  16.295  0.00  0.00    +0.000 C 
ATOM     13  C   UNL     1       5.678   4.263  15.832  0.00  0.00    +0.000 C 
ATOM     14  C   UNL     1       4.644   4.024  16.924  0.00  0.00    +0.000 C 
ATOM     15  O   UNL     1       3.537   3.589  16.597  0.00  0.00    +0.000 OA
ENDBRANCH   7   9
ENDBRANCH   1   3
BRANCH   1  16
ATOM     16  C   UNL     1       1.888   7.749  20.183  0.00  0.00    +0.000 C 
BRANCH  16  25
ATOM     17  C   UNL     1      -1.913  12.211  23.284  0.00  0.00    +0.000 C 
ATOM     18  N   UNL     1      -1.722  11.929  21.871  0.00  0.00    +0.000 N 
ATOM     19  C   UNL     1      -2.419  12.694  20.939  0.00  0.00    +0.000 C 
ATOM     20  O   UNL     1      -3.185  13.611  21.247  0.00  0.00    +0.000 OA
ATOM     21  C   UNL     1      -2.292  12.273  19.494  0.00  0.00    +0.000 C 
ATOM     22  C   UNL     1      -0.872  11.866  19.170  0.00  0.00    +0.000 C 
ATOM     23  C   UNL     1      -0.421  10.808  20.135  0.00  0.00    +0.000 A 
ATOM     24  C   UNL     1       0.468   9.801  19.723  0.00  0.00    +0.000 A 
ATOM     25  C   UNL     1       0.946   8.847  20.630  0.00  0.00    +0.000 A 
ATOM     26  C   UNL     1       0.544   8.936  21.967  0.00  0.00    +0.000 A 
ATOM     27  C   UNL     1      -0.325   9.952  22.386  0.00  0.00    +0.000 A 
ATOM     28  C   UNL     1      -0.824  10.888  21.476  0.00  0.00    +0.000 A 
ENDBRANCH  16  25
ENDBRANCH   1  16
TORSDOF 4
ENDMDL
MODEL 9
REMARK VINA RESULT:      -8.3      1.204      2.057
REMARK  Name = 
REMARK  5 active torsions:
REMARK  status: ('A' for Active; 'I' for Inactive)
REMARK    1  A    between atoms: C_1  and  N_2
REMARK    2  A    between atoms: C_9  and  C_10
REMARK    3  A    between atoms: C_10  and  N_11
REMARK    4  A    between atoms: N_11  and  C_12
REMARK    5  A    between atoms: C_16  and  N_17
REMARK                            x       y       z     vdW  Elec       q    Type
REMARK                         _______ _______ _______ _____ _____    ______ ____
ROOT
ATOM      1  N   UNL     1       1.325   5.533  20.141  0.00  0.00    +0.000 N 
ATOM      2  H   UNL     1       0.650   5.169  20.813  0.00  0.00    +0.000 HD
ENDROOT
BRANCH   1   3
ATOM      3  C   UNL     1       1.926   4.471  19.461  0.00  0.00    +0.000 A 
ATOM      4  C   UNL     1       1.360   3.206  19.296  0.00  0.00    +0.000 A 
ATOM      5  C   UNL     1       2.019   2.217  18.558  0.00  0.00    +0.000 A 
ATOM      6  C   UNL     1       3.258   2.479  17.972  0.00  0.00    +0.000 A 
ATOM      7  C   UNL     1       3.829   3.747  18.085  0.00  0.00    +0.000 A 
ATOM      8  C   UNL     1       3.154   4.725  18.833  0.00  0.00    +0.000 A 
BRANCH   7   9
ATOM      9  N   UNL     1       5.026   4.073  17.373  0.00  0.00    +0.000 N 
ATOM     10  C   UNL     1       4.914   4.144  15.914  0.00  0.00    +0.000 C 
ATOM     11  C   UNL     1       6.235   3.904  15.210  0.00  0.00    +0.000 C 
ATOM     12  C   UNL     1       7.235   4.905  15.745  0.00  0.00    +0.000 C 
ATOM     13  C   UNL     1       7.442   4.670  17.230  0.00  0.00    +0.000 C 
ATOM     14  C   UNL     1       6.179   4.462  18.055  0.00  0.00    +0.000 C 
ATOM     15  O   UNL     1       6.252   4.590  19.280  0.00  0.00    +0.000 OA
ENDBRANCH   7   9
ENDBRANCH   1   3
BRANCH   1  16
ATOM     16  C   UNL     1       2.142   6.581  20.735  0.00  0.00    +0.000 C 
BRANCH  16  25
ATOM     17  C   UNL     1      -0.566  12.253  18.618  0.00  0.00    +0.000 C 
ATOM     18  N   UNL     1      -0.414  11.701  19.955  0.00  0.00    +0.000 N 
ATOM     19  C   UNL     1      -0.906  12.429  21.035  0.00  0.00    +0.000 C 
ATOM     20  O   UNL     1      -1.479  13.516  20.920  0.00  0.00    +0.000 OA
ATOM     21  C   UNL     1      -0.603  11.880  22.409  0.00  0.00    +0.000 C 
ATOM     22  C   UNL     1      -0.741  10.375  22.436  0.00  0.00    +0.000 C 
ATOM     23  C   UNL     1       0.113   9.774  21.358  0.00  0.00    +0.000 A 
ATOM     24  C   UNL     1       0.722   8.521  21.548  0.00  0.00    +0.000 A 
ATOM     25  C   UNL     1       1.469   7.921  20.526  0.00  0.00    +0.000 A 
ATOM     26  C   UNL     1       1.570   8.581  19.296  0.00  0.00    +0.000 A 
ATOM     27  C   UNL     1       0.946   9.820  19.096  0.00  0.00    +0.000 A 
ATOM     28  C   UNL     1       0.224  10.432  20.125  0.00  0.00    +0.000 A 
ENDBRANCH  16  25
ENDBRANCH   1  16
TORSDOF 4
ENDMDL
