MODEL 1
REMARK VINA RESULT:      -8.7      0.000      0.000
REMARK  Name = 
REMARK  5 active torsions:
REMARK  status: ('A' for Active; 'I' for Inactive)
REMARK    1  A    between atoms: C_2  and  C_3
REMARK    2  A    between atoms: C_3  and  C_4
REMARK    3  A    between atoms: N_13  and  C_14
REMARK    4  A    between atoms: C_14  and  C_15
REMARK    5  A    between atoms: C_15  and  C_16
REMARK                            x       y       z     vdW  Elec       q    Type
REMARK                         _______ _______ _______ _____ _____    ______ ____
ROOT
ATOM      1  O   UNL     1       2.405  10.146  17.628  0.00  0.00    +0.000 OA
ATOM      2  C   UNL     1       1.551   9.292  17.842  0.00  0.00    +0.000 C 
ATOM      3  N   UNL     1       1.847   7.964  18.059  0.00  0.00    +0.000 N 
ATOM      4  H   UNL     1       1.058   7.331  18.051  0.00  0.00    +0.000 HD
ENDROOT
BRANCH   2   5
ATOM      5  C   UNL     1       0.059   9.599  17.930  0.00  0.00    +0.000 C 
BRANCH   5   6
ATOM      6  C   UNL     1      -0.280  10.545  19.042  0.00  0.00    +0.000 A 
ATOM      7  C   UNL     1      -0.618  11.881  18.918  0.00  0.00    +0.000 A 
ATOM      8  N   UNL     1      -0.901  12.374  20.166  0.00  0.00    +0.000 N 
ATOM      9  C   UNL     1      -0.758  11.387  21.111  0.00  0.00    +0.000 A 
ATOM     10  C   UNL     1      -0.946  11.431  22.498  0.00  0.00    +0.000 A 
ATOM     11  C   UNL     1      -0.736  10.251  23.218  0.00  0.00    +0.000 A 
ATOM     12  C   UNL     1      -0.355   9.076  22.574  0.00  0.00    +0.000 A 
ATOM     13  C   UNL     1      -0.174   9.051  21.187  0.00  0.00    +0.000 A 
ATOM     14  C   UNL     1      -0.374  10.226  20.436  0.00  0.00    +0.000 A 
ATOM     15  H   UNL     1      -1.193  13.321  20.370  0.00  0.00    +0.000 HD
ENDBRANCH   5   6
ENDBRANCH   2   5
BRANCH   3  16
ATOM     16  C   UNL     1       3.199   7.419  17.972  0.00  0.00    +0.000 C 
BRANCH  16  17
ATOM     17  C   UNL     1       3.288   5.903  18.339  0.00  0.00    +0.000 C 
ATOM     18  C   UNL     1       2.092   5.144  17.680  0.00  0.00    +0.000 C 
ATOM     19  C   UNL     1       1.957   3.719  18.199  0.00  0.00    +0.000 C 
ATOM     20  O   UNL     1       1.793   3.725  19.616  0.00  0.00    +0.000 OA
ATOM     21  C   UNL     1       2.924   4.281  20.283  0.00  0.00    +0.000 C 
ATOM     22  C   UNL     1       3.106   5.740  19.881  0.00  0.00    +0.000 C 
BRANCH  17  23
ATOM     23  C   UNL     1       4.662   5.363  17.846  0.00  0.00    +0.000 A 
ATOM     24  C   UNL     1       5.844   5.547  18.594  0.00  0.00    +0.000 A 
ATOM     25  C   UNL     1       7.094   5.112  18.128  0.00  0.00    +0.000 A 
ATOM     26  C   UNL     1       7.194   4.458  16.906  0.00  0.00    +0.000 A 
ATOM     27  C   UNL     1       6.041   4.229  16.174  0.00  0.00    +0.000 A 
ATOM     28  F   UNL     1       6.125   3.592  14.998  0.00  0.00    +0.000 F 
ATOM     29  C   UNL     1       4.793   4.658  16.633  0.00  0.00    +0.000 A 
ENDBRANCH  17  23
ENDBRANCH  16  17
ENDBRANCH   3  16
TORSDOF 5
ENDMDL
MODEL 2
REMARK VINA RESULT:      -8.7      0.894      1.282
REMARK  Name = 
REMARK  5 active torsions:
REMARK  status: ('A' for Active; 'I' for Inactive)
REMARK    1  A    between atoms: C_2  and  C_3
REMARK    2  A    between atoms: C_3  and  C_4
REMARK    3  A    between atoms: N_13  and  C_14
REMARK    4  A    between atoms: C_14  and  C_15
REMARK    5  A    between atoms: C_15  and  C_16
REMARK                            x       y       z     vdW  Elec       q    Type
REMARK                         _______ _______ _______ _____ _____    ______ ____
ROOT
ATOM      1  O   UNL     1       2.369  10.203  17.643  0.00  0.00    +0.000 OA
ATOM      2  C   UNL     1       1.531   9.337  17.869  0.00  0.00    +0.000 C 
ATOM      3  N   UNL     1       1.851   8.022  18.126  0.00  0.00    +0.000 N 
ATOM      4  H   UNL     1       1.076   7.373  18.125  0.00  0.00    +0.000 HD
ENDROOT
BRANCH   2   5
ATOM      5  C   UNL     1       0.031   9.615  17.930  0.00  0.00    +0.000 C 
BRANCH   5   6
ATOM      6  C   UNL     1      -0.346  10.559  19.031  0.00  0.00    +0.000 A 
ATOM      7  C   UNL     1      -0.739  11.878  18.891  0.00  0.00    +0.000 A 
ATOM      8  N   UNL     1      -1.042  12.374  20.133  0.00  0.00    +0.000 N 
ATOM      9  C   UNL     1      -0.856  11.406  21.090  0.00  0.00    +0.000 A 
ATOM     10  C   UNL     1      -1.044  11.459  22.477  0.00  0.00    +0.000 A 
ATOM     11  C   UNL     1      -0.785  10.298  23.211  0.00  0.00    +0.000 A 
ATOM     12  C   UNL     1      -0.355   9.132  22.581  0.00  0.00    +0.000 A 
ATOM     13  C   UNL     1      -0.176   9.097  21.194  0.00  0.00    +0.000 A 
ATOM     14  C   UNL     1      -0.425  10.254  20.429  0.00  0.00    +0.000 A 
ATOM     15  H   UNL     1      -1.372  13.310  20.326  0.00  0.00    +0.000 HD
ENDBRANCH   5   6
ENDBRANCH   2   5
BRANCH   3  16
ATOM     16  C   UNL     1       3.215   7.504  18.071  0.00  0.00    +0.000 C 
BRANCH  16  17
ATOM     17  C   UNL     1       3.312   5.967  18.338  0.00  0.00    +0.000 C 
ATOM     18  C   UNL     1       2.108   5.249  17.649  0.00  0.00    +0.000 C 
ATOM     19  C   UNL     1       1.984   3.792  18.078  0.00  0.00    +0.000 C 
ATOM     20  O   UNL     1       1.842   3.707  19.494  0.00  0.00    +0.000 OA
ATOM     21  C   UNL     1       2.981   4.222  20.179  0.00  0.00    +0.000 C 
ATOM     22  C   UNL     1       3.154   5.704  19.869  0.00  0.00    +0.000 C 
BRANCH  17  23
ATOM     23  C   UNL     1       4.680   5.464  17.791  0.00  0.00    +0.000 A 
ATOM     24  C   UNL     1       4.798   4.880  16.512  0.00  0.00    +0.000 A 
ATOM     25  C   UNL     1       6.017   4.374  16.035  0.00  0.00    +0.000 A 
ATOM     26  C   UNL     1       7.161   4.457  16.818  0.00  0.00    +0.000 A 
ATOM     27  C   UNL     1       7.077   5.064  18.060  0.00  0.00    +0.000 A 
ATOM     28  F   UNL     1       8.177   5.157  18.821  0.00  0.00    +0.000 F 
ATOM     29  C   UNL     1       5.868   5.572  18.540  0.00  0.00    +0.000 A 
ENDBRANCH  17  23
ENDBRANCH  16  17
ENDBRANCH   3  16
TORSDOF 5
ENDMDL
MODEL 3
REMARK VINA RESULT:      -8.5      1.450      1.853
REMARK  Name = 
REMARK  5 active torsions:
REMARK  status: ('A' for Active; 'I' for Inactive)
REMARK    1  A    between atoms: C_2  and  C_3
REMARK    2  A    between atoms: C_3  and  C_4
REMARK    3  A    between atoms: N_13  and  C_14
REMARK    4  A    between atoms: C_14  and  C_15
REMARK    5  A    between atoms: C_15  and  C_16
REMARK                            x       y       z     vdW  Elec       q    Type
REMARK                         _______ _______ _______ _____ _____    ______ ____
ROOT
ATOM      1  O   UNL     1       3.688   8.148  17.859  0.00  0.00    +0.000 OA
ATOM      2  C   UNL     1       2.597   7.831  18.324  0.00  0.00    +0.000 C 
ATOM      3  N   UNL     1       2.424   6.785  19.203  0.00  0.00    +0.000 N 
ATOM      4  H   UNL     1       1.466   6.513  19.379  0.00  0.00    +0.000 HD
ENDROOT
BRANCH   2   5
ATOM      5  C   UNL     1       1.303   8.578  18.013  0.00  0.00    +0.000 C 
BRANCH   5   6
ATOM      6  C   UNL     1       1.064   9.741  18.926  0.00  0.00    +0.000 A 
ATOM      7  C   UNL     1       1.289  11.077  18.642  0.00  0.00    +0.000 A 
ATOM      8  N   UNL     1       0.897  11.822  19.724  0.00  0.00    +0.000 N 
ATOM      9  C   UNL     1       0.417  11.003  20.717  0.00  0.00    +0.000 A 
ATOM     10  C   UNL     1      -0.091  11.320  21.983  0.00  0.00    +0.000 A 
ATOM     11  C   UNL     1      -0.525  10.265  22.790  0.00  0.00    +0.000 A 
ATOM     12  C   UNL     1      -0.454   8.946  22.347  0.00  0.00    +0.000 A 
ATOM     13  C   UNL     1       0.055   8.649  21.078  0.00  0.00    +0.000 A 
ATOM     14  C   UNL     1       0.504   9.692  20.245  0.00  0.00    +0.000 A 
ATOM     15  H   UNL     1       0.934  12.831  19.786  0.00  0.00    +0.000 HD
ENDBRANCH   5   6
ENDBRANCH   2   5
BRANCH   3  16
ATOM     16  C   UNL     1       3.505   5.890  19.608  0.00  0.00    +0.000 C 
BRANCH  16  17
ATOM     17  C   UNL     1       3.593   4.587  18.750  0.00  0.00    +0.000 C 
ATOM     18  C   UNL     1       2.240   4.374  17.999  0.00  0.00    +0.000 C 
ATOM     19  C   UNL     1       2.150   2.998  17.352  0.00  0.00    +0.000 C 
ATOM     20  O   UNL     1       2.313   1.980  18.338  0.00  0.00    +0.000 OA
ATOM     21  C   UNL     1       3.594   2.038  18.961  0.00  0.00    +0.000 C 
ATOM     22  C   UNL     1       3.758   3.360  19.701  0.00  0.00    +0.000 C 
BRANCH  17  23
ATOM     23  C   UNL     1       4.788   4.734  17.763  0.00  0.00    +0.000 A 
ATOM     24  C   UNL     1       4.606   5.188  16.440  0.00  0.00    +0.000 A 
ATOM     25  C   UNL     1       5.671   5.270  15.529  0.00  0.00    +0.000 A 
ATOM     26  C   UNL     1       6.955   4.919  15.924  0.00  0.00    +0.000 A 
ATOM     27  C   UNL     1       7.164   4.510  17.230  0.00  0.00    +0.000 A 
ATOM     28  F   UNL     1       8.401   4.177  17.624  0.00  0.00    +0.000 F 
ATOM     29  C   UNL     1       6.110   4.429  18.143  0.00  0.00    +0.000 A 
ENDBRANCH  17  23
ENDBRANCH  16  17
ENDBRANCH   3  16
TORSDOF 5
ENDMDL
MODEL 4
REMARK VINA RESULT:      -8.5      3.579      8.500
REMARK  Name = 
REMARK  5 active torsions:
REMARK  status: ('A' for Active; 'I' for Inactive)
REMARK    1  A    between atoms: C_2  and  C_3
REMARK    2  A    between atoms: C_3  and  C_4
REMARK    3  A    between atoms: N_13  and  C_14
REMARK    4  A    between atoms: C_14  and  C_15
REMARK    5  A    between atoms: C_15  and  C_16
REMARK                            x       y       z     vdW  Elec       q    Type
REMARK                         _______ _______ _______ _____ _____    ______ ____
ROOT
ATOM      1  O   UNL     1       7.372   5.113  19.235  0.00  0.00    +0.000 OA
ATOM      2  C   UNL     1       6.702   5.501  18.283  0.00  0.00    +0.000 C 
ATOM      3  N   UNL     1       5.359   5.791  18.372  0.00  0.00    +0.000 N 
ATOM      4  H   UNL     1       4.881   5.933  17.491  0.00  0.00    +0.000 HD
ENDROOT
BRANCH   2   5
ATOM      5  C   UNL     1       7.282   5.747  16.893  0.00  0.00    +0.000 C 
BRANCH   5   6
ATOM      6  C   UNL     1       6.762   4.790  15.864  0.00  0.00    +0.000 A 
ATOM      7  C   UNL     1       5.881   3.745  16.075  0.00  0.00    +0.000 A 
ATOM      8  N   UNL     1       5.621   3.145  14.870  0.00  0.00    +0.000 N 
ATOM      9  C   UNL     1       6.315   3.777  13.866  0.00  0.00    +0.000 A 
ATOM     10  C   UNL     1       6.351   3.515  12.491  0.00  0.00    +0.000 A 
ATOM     11  C   UNL     1       7.149   4.342  11.695  0.00  0.00    +0.000 A 
ATOM     12  C   UNL     1       7.878   5.389  12.253  0.00  0.00    +0.000 A 
ATOM     13  C   UNL     1       7.827   5.637  13.629  0.00  0.00    +0.000 A 
ATOM     14  C   UNL     1       7.036   4.816  14.457  0.00  0.00    +0.000 A 
ATOM     15  H   UNL     1       4.997   2.363  14.726  0.00  0.00    +0.000 HD
ENDBRANCH   5   6
ENDBRANCH   2   5
BRANCH   3  16
ATOM     16  C   UNL     1       4.572   5.584  19.584  0.00  0.00    +0.000 C 
BRANCH  16  17
ATOM     17  C   UNL     1       3.045   5.391  19.314  0.00  0.00    +0.000 C 
ATOM     18  C   UNL     1       2.423   4.535  20.464  0.00  0.00    +0.000 C 
ATOM     19  C   UNL     1       1.005   4.083  20.144  0.00  0.00    +0.000 C 
ATOM     20  O   UNL     1       0.990   3.333  18.932  0.00  0.00    +0.000 OA
ATOM     21  C   UNL     1       1.414   4.111  17.815  0.00  0.00    +0.000 C 
ATOM     22  C   UNL     1       2.859   4.558  18.007  0.00  0.00    +0.000 C 
BRANCH  17  23
ATOM     23  C   UNL     1       2.387   6.798  19.216  0.00  0.00    +0.000 A 
ATOM     24  C   UNL     1       2.327   7.507  17.998  0.00  0.00    +0.000 A 
ATOM     25  C   UNL     1       1.785   8.799  17.915  0.00  0.00    +0.000 A 
ATOM     26  C   UNL     1       1.266   9.412  19.048  0.00  0.00    +0.000 A 
ATOM     27  C   UNL     1       1.276   8.718  20.247  0.00  0.00    +0.000 A 
ATOM     28  F   UNL     1       0.771   9.297  21.344  0.00  0.00    +0.000 F 
ATOM     29  C   UNL     1       1.811   7.431  20.336  0.00  0.00    +0.000 A 
ENDBRANCH  17  23
ENDBRANCH  16  17
ENDBRANCH   3  16
TORSDOF 5
ENDMDL
MODEL 5
REMARK VINA RESULT:      -8.5      2.082      2.937
REMARK  Name = 
REMARK  5 active torsions:
REMARK  status: ('A' for Active; 'I' for Inactive)
REMARK    1  A    between atoms: C_2  and  C_3
REMARK    2  A    between atoms: C_3  and  C_4
REMARK    3  A    between atoms: N_13  and  C_14
REMARK    4  A    between atoms: C_14  and  C_15
REMARK    5  A    between atoms: C_15  and  C_16
REMARK                            x       y       z     vdW  Elec       q    Type
REMARK                         _______ _______ _______ _____ _____    ______ ____
ROOT
ATOM      1  O   UNL     1       1.281   8.331  20.750  0.00  0.00    +0.000 OA
ATOM      2  C   UNL     1       1.691   8.304  19.594  0.00  0.00    +0.000 C 
ATOM      3  N   UNL     1       2.360   7.227  19.055  0.00  0.00    +0.000 N 
ATOM      4  H   UNL     1       2.797   7.387  18.157  0.00  0.00    +0.000 HD
ENDROOT
BRANCH   2   5
ATOM      5  C   UNL     1       1.481   9.443  18.601  0.00  0.00    +0.000 C 
BRANCH   5   6
ATOM      6  C   UNL     1       0.351  10.350  18.980  0.00  0.00    +0.000 A 
ATOM      7  C   UNL     1       0.366  11.327  19.960  0.00  0.00    +0.000 A 
ATOM      8  N   UNL     1      -0.848  11.964  19.958  0.00  0.00    +0.000 N 
ATOM      9  C   UNL     1      -1.664  11.426  18.992  0.00  0.00    +0.000 A 
ATOM     10  C   UNL     1      -2.975  11.761  18.629  0.00  0.00    +0.000 A 
ATOM     11  C   UNL     1      -3.562  11.040  17.585  0.00  0.00    +0.000 A 
ATOM     12  C   UNL     1      -2.864  10.028  16.931  0.00  0.00    +0.000 A 
ATOM     13  C   UNL     1      -1.554   9.709  17.306  0.00  0.00    +0.000 A 
ATOM     14  C   UNL     1      -0.939  10.415  18.358  0.00  0.00    +0.000 A 
ATOM     15  H   UNL     1      -1.109  12.731  20.562  0.00  0.00    +0.000 HD
ENDBRANCH   5   6
ENDBRANCH   2   5
BRANCH   3  16
ATOM     16  C   UNL     1       2.725   6.042  19.825  0.00  0.00    +0.000 C 
BRANCH  16  17
ATOM     17  C   UNL     1       3.307   4.883  18.952  0.00  0.00    +0.000 C 
ATOM     18  C   UNL     1       2.281   4.521  17.830  0.00  0.00    +0.000 C 
ATOM     19  C   UNL     1       2.653   3.235  17.103  0.00  0.00    +0.000 C 
ATOM     20  O   UNL     1       2.745   2.155  18.030  0.00  0.00    +0.000 OA
ATOM     21  C   UNL     1       3.768   2.367  19.000  0.00  0.00    +0.000 C 
ATOM     22  C   UNL     1       3.452   3.604  19.834  0.00  0.00    +0.000 C 
BRANCH  17  23
ATOM     23  C   UNL     1       4.669   5.353  18.364  0.00  0.00    +0.000 A 
ATOM     24  C   UNL     1       4.778   5.849  17.048  0.00  0.00    +0.000 A 
ATOM     25  C   UNL     1       6.013   6.222  16.494  0.00  0.00    +0.000 A 
ATOM     26  C   UNL     1       7.173   6.130  17.251  0.00  0.00    +0.000 A 
ATOM     27  C   UNL     1       7.084   5.686  18.559  0.00  0.00    +0.000 A 
ATOM     28  F   UNL     1       8.196   5.602  19.302  0.00  0.00    +0.000 F 
ATOM     29  C   UNL     1       5.859   5.315  19.119  0.00  0.00    +0.000 A 
ENDBRANCH  17  23
ENDBRANCH  16  17
ENDBRANCH   3  16
TORSDOF 5
ENDMDL
MODEL 6
REMARK VINA RESULT:      -8.5      3.342      8.424
REMARK  Name = 
REMARK  5 active torsions:
REMARK  status: ('A' for Active; 'I' for Inactive)
REMARK    1  A    between atoms: C_2  and  C_3
REMARK    2  A    between atoms: C_3  and  C_4
REMARK    3  A    between atoms: N_13  and  C_14
REMARK    4  A    between atoms: C_14  and  C_15
REMARK    5  A    between atoms: C_15  and  C_16
REMARK                            x       y       z     vdW  Elec       q    Type
REMARK                         _______ _______ _______ _____ _____    ______ ____
ROOT
ATOM      1  O   UNL     1       7.483   5.261  19.110  0.00  0.00    +0.000 OA
ATOM      2  C   UNL     1       6.754   5.587  18.179  0.00  0.00    +0.000 C 
ATOM      3  N   UNL     1       5.397   5.781  18.312  0.00  0.00    +0.000 N 
ATOM      4  H   UNL     1       4.881   5.876  17.447  0.00  0.00    +0.000 HD
ENDROOT
BRANCH   2   5
ATOM      5  C   UNL     1       7.266   5.855  16.766  0.00  0.00    +0.000 C 
BRANCH   5   6
ATOM      6  C   UNL     1       6.770   4.858  15.764  0.00  0.00    +0.000 A 
ATOM      7  C   UNL     1       5.912   3.800  16.003  0.00  0.00    +0.000 A 
ATOM      8  N   UNL     1       5.669   3.160  14.815  0.00  0.00    +0.000 N 
ATOM      9  C   UNL     1       6.351   3.779  13.795  0.00  0.00    +0.000 A 
ATOM     10  C   UNL     1       6.397   3.479  12.428  0.00  0.00    +0.000 A 
ATOM     11  C   UNL     1       7.177   4.301  11.610  0.00  0.00    +0.000 A 
ATOM     12  C   UNL     1       7.881   5.380  12.140  0.00  0.00    +0.000 A 
ATOM     13  C   UNL     1       7.821   5.666  13.508  0.00  0.00    +0.000 A 
ATOM     14  C   UNL     1       7.047   4.851  14.357  0.00  0.00    +0.000 A 
ATOM     15  H   UNL     1       5.064   2.360  14.693  0.00  0.00    +0.000 HD
ENDBRANCH   5   6
ENDBRANCH   2   5
BRANCH   3  16
ATOM     16  C   UNL     1       4.670   5.534  19.553  0.00  0.00    +0.000 C 
BRANCH  16  17
ATOM     17  C   UNL     1       3.130   5.354  19.352  0.00  0.00    +0.000 C 
ATOM     18  C   UNL     1       2.583   4.363  20.429  0.00  0.00    +0.000 C 
ATOM     19  C   UNL     1       1.151   3.933  20.142  0.00  0.00    +0.000 C 
ATOM     20  O   UNL     1       1.068   3.328  18.853  0.00  0.00    +0.000 OA
ATOM     21  C   UNL     1       1.421   4.236  17.812  0.00  0.00    +0.000 C 
ATOM     22  C   UNL     1       2.872   4.676  17.970  0.00  0.00    +0.000 C 
BRANCH  17  23
ATOM     23  C   UNL     1       2.460   6.755  19.457  0.00  0.00    +0.000 A 
ATOM     24  C   UNL     1       1.866   7.206  20.655  0.00  0.00    +0.000 A 
ATOM     25  C   UNL     1       1.211   8.444  20.741  0.00  0.00    +0.000 A 
ATOM     26  C   UNL     1       1.150   9.279  19.632  0.00  0.00    +0.000 A 
ATOM     27  C   UNL     1       1.762   8.875  18.457  0.00  0.00    +0.000 A 
ATOM     28  F   UNL     1       1.716   9.676  17.384  0.00  0.00    +0.000 F 
ATOM     29  C   UNL     1       2.418   7.645  18.365  0.00  0.00    +0.000 A 
ENDBRANCH  17  23
ENDBRANCH  16  17
ENDBRANCH   3  16
TORSDOF 5
ENDMDL
MODEL 7
REMARK VINA RESULT:      -8.4      1.909      2.567
REMARK  Name = 
REMARK  5 active torsions:
REMARK  status: ('A' for Active; 'I' for Inactive)
REMARK    1  A    between atoms: C_2  and  C_3
REMARK    2  A    between atoms: C_3  and  C_4
REMARK    3  A    between atoms: N_13  and  C_14
REMARK    4  A    between atoms: C_14  and  C_15
REMARK    5  A    between atoms: C_15  and  C_16
REMARK                            x       y       z     vdW  Elec       q    Type
REMARK                         _______ _______ _______ _____ _____    ______ ____
ROOT
ATOM      1  O   UNL     1       1.394   8.181  20.419  0.00  0.00    +0.000 OA
ATOM      2  C   UNL     1       1.839   8.135  19.277  0.00  0.00    +0.000 C 
ATOM      3  N   UNL     1       2.631   7.107  18.814  0.00  0.00    +0.000 N 
ATOM      4  H   UNL     1       3.076   7.264  17.920  0.00  0.00    +0.000 HD
ENDROOT
BRANCH   2   5
ATOM      5  C   UNL     1       1.542   9.192  18.216  0.00  0.00    +0.000 C 
BRANCH   5   6
ATOM      6  C   UNL     1       0.562  10.226  18.678  0.00  0.00    +0.000 A 
ATOM      7  C   UNL     1       0.803  11.254  19.572  0.00  0.00    +0.000 A 
ATOM      8  N   UNL     1      -0.339  12.005  19.688  0.00  0.00    +0.000 N 
ATOM      9  C   UNL     1      -1.329  11.492  18.885  0.00  0.00    +0.000 A 
ATOM     10  C   UNL     1      -2.643  11.930  18.680  0.00  0.00    +0.000 A 
ATOM     11  C   UNL     1      -3.434  11.208  17.782  0.00  0.00    +0.000 A 
ATOM     12  C   UNL     1      -2.928  10.094  17.116  0.00  0.00    +0.000 A 
ATOM     13  C   UNL     1      -1.612   9.673  17.331  0.00  0.00    +0.000 A 
ATOM     14  C   UNL     1      -0.793  10.378  18.235  0.00  0.00    +0.000 A 
ATOM     15  H   UNL     1      -0.442  12.830  20.263  0.00  0.00    +0.000 HD
ENDBRANCH   5   6
ENDBRANCH   2   5
BRANCH   3  16
ATOM     16  C   UNL     1       3.094   6.009  19.658  0.00  0.00    +0.000 C 
BRANCH  16  17
ATOM     17  C   UNL     1       3.407   4.699  18.865  0.00  0.00    +0.000 C 
ATOM     18  C   UNL     1       2.200   4.363  17.932  0.00  0.00    +0.000 C 
ATOM     19  C   UNL     1       2.312   2.971  17.324  0.00  0.00    +0.000 C 
ATOM     20  O   UNL     1       2.403   1.991  18.355  0.00  0.00    +0.000 OA
ATOM     21  C   UNL     1       3.569   2.163  19.157  0.00  0.00    +0.000 C 
ATOM     22  C   UNL     1       3.521   3.510  19.870  0.00  0.00    +0.000 C 
BRANCH  17  23
ATOM     23  C   UNL     1       4.720   4.921  18.060  0.00  0.00    +0.000 A 
ATOM     24  C   UNL     1       5.983   4.941  18.689  0.00  0.00    +0.000 A 
ATOM     25  C   UNL     1       7.165   5.195  17.977  0.00  0.00    +0.000 A 
ATOM     26  C   UNL     1       7.119   5.416  16.607  0.00  0.00    +0.000 A 
ATOM     27  C   UNL     1       5.896   5.360  15.961  0.00  0.00    +0.000 A 
ATOM     28  F   UNL     1       5.841   5.563  14.637  0.00  0.00    +0.000 F 
ATOM     29  C   UNL     1       4.715   5.105  16.663  0.00  0.00    +0.000 A 
ENDBRANCH  17  23
ENDBRANCH  16  17
ENDBRANCH   3  16
TORSDOF 5
ENDMDL
MODEL 8
REMARK VINA RESULT:      -8.3      2.304      3.643
REMARK  Name = 
REMARK  5 active torsions:
REMARK  status: ('A' for Active; 'I' for Inactive)
REMARK    1  A    between atoms: C_2  and  C_3
REMARK    2  A    between atoms: C_3  and  C_4
REMARK    3  A    between atoms: N_13  and  C_14
REMARK    4  A    between atoms: C_14  and  C_15
REMARK    5  A    between atoms: C_15  and  C_16
REMARK                            x       y       z     vdW  Elec       q    Type
REMARK                         _______ _______ _______ _____ _____    ______ ____
ROOT
ATOM      1  O   UNL     1       1.543   7.001  17.588  0.00  0.00    +0.000 OA
ATOM      2  C   UNL     1       2.396   7.225  18.441  0.00  0.00    +0.000 C 
ATOM      3  N   UNL     1       3.750   7.164  18.191  0.00  0.00    +0.000 N 
ATOM      4  H   UNL     1       4.348   7.197  19.006  0.00  0.00    +0.000 HD
ENDROOT
BRANCH   2   5
ATOM      5  C   UNL     1       2.065   7.635  19.873  0.00  0.00    +0.000 C 
BRANCH   5   6
ATOM      6  C   UNL     1       1.335   8.941  19.956  0.00  0.00    +0.000 A 
ATOM      7  C   UNL     1       1.185   9.871  18.943  0.00  0.00    +0.000 A 
ATOM      8  N   UNL     1       0.411  10.901  19.411  0.00  0.00    +0.000 N 
ATOM      9  C   UNL     1       0.046  10.667  20.715  0.00  0.00    +0.000 A 
ATOM     10  C   UNL     1      -0.737  11.436  21.585  0.00  0.00    +0.000 A 
ATOM     11  C   UNL     1      -0.956  10.936  22.872  0.00  0.00    +0.000 A 
ATOM     12  C   UNL     1      -0.413   9.716  23.269  0.00  0.00    +0.000 A 
ATOM     13  C   UNL     1       0.365   8.961  22.385  0.00  0.00    +0.000 A 
ATOM     14  C   UNL     1       0.607   9.442  21.083  0.00  0.00    +0.000 A 
ATOM     15  H   UNL     1       0.128  11.712  18.876  0.00  0.00    +0.000 HD
ENDBRANCH   5   6
ENDBRANCH   2   5
BRANCH   3  16
ATOM     16  C   UNL     1       4.310   6.742  16.911  0.00  0.00    +0.000 C 
BRANCH  16  17
ATOM     17  C   UNL     1       5.225   5.479  17.014  0.00  0.00    +0.000 C 
ATOM     18  C   UNL     1       6.488   5.827  17.866  0.00  0.00    +0.000 C 
ATOM     19  C   UNL     1       7.549   4.736  17.795  0.00  0.00    +0.000 C 
ATOM     20  O   UNL     1       7.935   4.513  16.441  0.00  0.00    +0.000 OA
ATOM     21  C   UNL     1       6.847   4.054  15.642  0.00  0.00    +0.000 C 
ATOM     22  C   UNL     1       5.751   5.112  15.591  0.00  0.00    +0.000 C 
BRANCH  17  23
ATOM     23  C   UNL     1       4.394   4.327  17.651  0.00  0.00    +0.000 A 
ATOM     24  C   UNL     1       3.271   3.774  17.001  0.00  0.00    +0.000 A 
ATOM     25  C   UNL     1       2.484   2.775  17.595  0.00  0.00    +0.000 A 
ATOM     26  C   UNL     1       2.813   2.284  18.852  0.00  0.00    +0.000 A 
ATOM     27  C   UNL     1       3.935   2.783  19.491  0.00  0.00    +0.000 A 
ATOM     28  F   UNL     1       4.266   2.311  20.701  0.00  0.00    +0.000 F 
ATOM     29  C   UNL     1       4.724   3.776  18.905  0.00  0.00    +0.000 A 
ENDBRANCH  17  23
ENDBRANCH  16  17
ENDBRANCH   3  16
TORSDOF 5
ENDMDL
MODEL 9
REMARK VINA RESULT:      -8.2      1.830      2.599
REMARK  Name = 
REMARK  5 active torsions:
REMARK  status: ('A' for Active; 'I' for Inactive)
REMARK    1  A    between atoms: C_2  and  C_3
REMARK    2  A    between atoms: C_3  and  C_4
REMARK    3  A    between atoms: N_13  and  C_14
REMARK    4  A    between atoms: C_14  and  C_15
REMARK    5  A    between atoms: C_15  and  C_16
REMARK                            x       y       z     vdW  Elec       q    Type
REMARK                         _______ _______ _______ _____ _____    ______ ____
ROOT
ATOM      1  O   UNL     1       3.719   8.323  17.789  0.00  0.00    +0.000 OA
ATOM      2  C   UNL     1       2.573   7.951  18.024  0.00  0.00    +0.000 C 
ATOM      3  N   UNL     1       2.276   6.893  18.855  0.00  0.00    +0.000 N 
ATOM      4  H   UNL     1       1.317   6.575  18.834  0.00  0.00    +0.000 HD
ENDROOT
BRANCH   2   5
ATOM      5  C   UNL     1       1.334   8.637  17.455  0.00  0.00    +0.000 C 
BRANCH   5   6
ATOM      6  C   UNL     1       0.716   9.614  18.407  0.00  0.00    +0.000 A 
ATOM      7  C   UNL     1       1.310  10.170  19.526  0.00  0.00    +0.000 A 
ATOM      8  N   UNL     1       0.426  11.050  20.095  0.00  0.00    +0.000 N 
ATOM      9  C   UNL     1      -0.742  11.085  19.371  0.00  0.00    +0.000 A 
ATOM     10  C   UNL     1      -1.907  11.835  19.574  0.00  0.00    +0.000 A 
ATOM     11  C   UNL     1      -2.949  11.675  18.656  0.00  0.00    +0.000 A 
ATOM     12  C   UNL     1      -2.826  10.800  17.578  0.00  0.00    +0.000 A 
ATOM     13  C   UNL     1      -1.653  10.062  17.390  0.00  0.00    +0.000 A 
ATOM     14  C   UNL     1      -0.589  10.199  18.303  0.00  0.00    +0.000 A 
ATOM     15  H   UNL     1       0.604  11.610  20.918  0.00  0.00    +0.000 HD
ENDBRANCH   5   6
ENDBRANCH   2   5
BRANCH   3  16
ATOM     16  C   UNL     1       3.295   6.050  19.474  0.00  0.00    +0.000 C 
BRANCH  16  17
ATOM     17  C   UNL     1       3.501   4.682  18.746  0.00  0.00    +0.000 C 
ATOM     18  C   UNL     1       2.203   4.319  17.956  0.00  0.00    +0.000 C 
ATOM     19  C   UNL     1       2.225   2.888  17.437  0.00  0.00    +0.000 C 
ATOM     20  O   UNL     1       2.393   1.975  18.520  0.00  0.00    +0.000 OA
ATOM     21  C   UNL     1       3.635   2.167  19.194  0.00  0.00    +0.000 C 
ATOM     22  C   UNL     1       3.685   3.559  19.814  0.00  0.00    +0.000 C 
BRANCH  17  23
ATOM     23  C   UNL     1       4.736   4.812  17.807  0.00  0.00    +0.000 A 
ATOM     24  C   UNL     1       4.607   5.227  16.465  0.00  0.00    +0.000 A 
ATOM     25  C   UNL     1       5.709   5.292  15.598  0.00  0.00    +0.000 A 
ATOM     26  C   UNL     1       6.978   4.965  16.057  0.00  0.00    +0.000 A 
ATOM     27  C   UNL     1       7.134   4.595  17.382  0.00  0.00    +0.000 A 
ATOM     28  F   UNL     1       8.355   4.285  17.838  0.00  0.00    +0.000 F 
ATOM     29  C   UNL     1       6.043   4.530  18.251  0.00  0.00    +0.000 A 
ENDBRANCH  17  23
ENDBRANCH  16  17
ENDBRANCH   3  16
TORSDOF 5
ENDMDL
