MODEL 1
REMARK VINA RESULT:      -9.0      0.000      0.000
REMARK  Name = 
REMARK  5 active torsions:
REMARK  status: ('A' for Active; 'I' for Inactive)
REMARK    1  A    between atoms: C_1  and  C_2
REMARK    2  A    between atoms: C_2  and  C_3
REMARK    3  A    between atoms: C_7  and  N_8
REMARK    4  A    between atoms: C_9  and  C_11
REMARK    5  A    between atoms: C_16  and  N_17
REMARK                            x       y       z     vdW  Elec       q    Type
REMARK                         _______ _______ _______ _____ _____    ______ ____
ROOT
ATOM      1  C   UNL     1       4.949   5.568  17.200  0.00  0.00    +0.000 A 
ATOM      2  C   UNL     1       4.284   4.347  16.997  0.00  0.00    +0.000 A 
ATOM      3  C   UNL     1       2.956   4.184  17.373  0.00  0.00    +0.000 A 
ATOM      4  C   UNL     1       2.270   5.230  17.985  0.00  0.00    +0.000 A 
ATOM      5  C   UNL     1       2.903   6.444  18.243  0.00  0.00    +0.000 A 
ATOM      6  C   UNL     1       4.239   6.606  17.843  0.00  0.00    +0.000 A 
ENDROOT
BRANCH   1   8
ATOM      7  C   UNL     1       6.740   4.885  15.572  0.00  0.00    +0.000 C 
ATOM      8  C   UNL     1       6.416   5.734  16.798  0.00  0.00    +0.000 C 
ATOM      9  N   UNL     1       6.764   7.128  16.589  0.00  0.00    +0.000 N 
ATOM     10  C   UNL     1       7.527   7.644  17.605  0.00  0.00    +0.000 C 
ATOM     11  O   UNL     1       7.839   8.813  17.721  0.00  0.00    +0.000 OA
ATOM     12  N   UNL     1       7.888   6.632  18.425  0.00  0.00    +0.000 N 
ATOM     13  C   UNL     1       7.395   5.449  17.965  0.00  0.00    +0.000 C 
ATOM     14  O   UNL     1       7.672   4.356  18.442  0.00  0.00    +0.000 OA
ATOM     15  H   UNL     1       6.353   7.745  15.903  0.00  0.00    +0.000 HD
ATOM     16  H   UNL     1       8.520   6.738  19.198  0.00  0.00    +0.000 HD
ENDBRANCH   1   8
BRANCH   5  17
ATOM     17  N   UNL     1       2.272   7.531  18.896  0.00  0.00    +0.000 N 
ATOM     18  C   UNL     1       1.715   7.508  20.165  0.00  0.00    +0.000 C 
ATOM     19  O   UNL     1       1.713   6.560  20.939  0.00  0.00    +0.000 OA
ATOM     20  H   UNL     1       2.256   8.402  18.382  0.00  0.00    +0.000 HD
BRANCH  18  21
ATOM     21  C   UNL     1       0.998   8.730  20.612  0.00  0.00    +0.000 A 
ATOM     22  C   UNL     1       0.564   8.862  21.941  0.00  0.00    +0.000 A 
ATOM     23  C   UNL     1       0.063  10.085  22.404  0.00  0.00    +0.000 A 
ATOM     24  C   UNL     1       0.007  11.196  21.560  0.00  0.00    +0.000 A 
ATOM     25  C   UNL     1       0.416  11.082  20.233  0.00  0.00    +0.000 A 
ATOM     26  C   UNL     1       0.899   9.848  19.772  0.00  0.00    +0.000 A 
BRANCH  26  27
ATOM     27  N   UNL     1       1.205   9.749  18.357  0.00  0.00    +0.000 N 
ATOM     28  O   UNL     1       0.301   9.325  17.623  0.00  0.00    +0.000 OA
ATOM     29  O   UNL     1       2.294  10.207  17.982  0.00  0.00    +0.000 OA
ENDBRANCH  26  27
ENDBRANCH  18  21
ENDBRANCH   5  17
TORSDOF 4
ENDMDL
MODEL 2
REMARK VINA RESULT:      -8.6      2.954      4.661
REMARK  Name = 
REMARK  5 active torsions:
REMARK  status: ('A' for Active; 'I' for Inactive)
REMARK    1  A    between atoms: C_1  and  C_2
REMARK    2  A    between atoms: C_2  and  C_3
REMARK    3  A    between atoms: C_7  and  N_8
REMARK    4  A    between atoms: C_9  and  C_11
REMARK    5  A    between atoms: C_16  and  N_17
REMARK                            x       y       z     vdW  Elec       q    Type
REMARK                         _______ _______ _______ _____ _____    ______ ____
ROOT
ATOM      1  C   UNL     1       3.106   4.554  18.485  0.00  0.00    +0.000 A 
ATOM      2  C   UNL     1       3.999   4.692  17.410  0.00  0.00    +0.000 A 
ATOM      3  C   UNL     1       4.382   5.948  16.955  0.00  0.00    +0.000 A 
ATOM      4  C   UNL     1       3.860   7.096  17.546  0.00  0.00    +0.000 A 
ATOM      5  C   UNL     1       2.938   7.004  18.588  0.00  0.00    +0.000 A 
ATOM      6  C   UNL     1       2.571   5.731  19.054  0.00  0.00    +0.000 A 
ENDROOT
BRANCH   1   8
ATOM      7  C   UNL     1       3.263   2.078  18.077  0.00  0.00    +0.000 C 
ATOM      8  C   UNL     1       2.677   3.168  18.969  0.00  0.00    +0.000 C 
ATOM      9  N   UNL     1       3.016   2.955  20.365  0.00  0.00    +0.000 N 
ATOM     10  C   UNL     1       1.923   3.007  21.193  0.00  0.00    +0.000 C 
ATOM     11  O   UNL     1       1.964   2.982  22.407  0.00  0.00    +0.000 OA
ATOM     12  N   UNL     1       0.810   3.061  20.428  0.00  0.00    +0.000 N 
ATOM     13  C   UNL     1       1.139   3.028  19.107  0.00  0.00    +0.000 C 
ATOM     14  O   UNL     1       0.325   2.937  18.197  0.00  0.00    +0.000 OA
ATOM     15  H   UNL     1       3.947   2.965  20.757  0.00  0.00    +0.000 HD
ATOM     16  H   UNL     1      -0.123   3.021  20.796  0.00  0.00    +0.000 HD
ENDBRANCH   1   8
BRANCH   5  17
ATOM     17  N   UNL     1       2.342   8.132  19.204  0.00  0.00    +0.000 N 
ATOM     18  C   UNL     1       1.429   8.994  18.617  0.00  0.00    +0.000 C 
ATOM     19  O   UNL     1       0.964   8.900  17.489  0.00  0.00    +0.000 OA
ATOM     20  H   UNL     1       2.601   8.292  20.169  0.00  0.00    +0.000 HD
BRANCH  18  21
ATOM     21  C   UNL     1       1.018  10.183  19.407  0.00  0.00    +0.000 A 
ATOM     22  C   UNL     1       1.065  11.469  18.846  0.00  0.00    +0.000 A 
ATOM     23  C   UNL     1       0.500  12.558  19.521  0.00  0.00    +0.000 A 
ATOM     24  C   UNL     1      -0.138  12.379  20.750  0.00  0.00    +0.000 A 
ATOM     25  C   UNL     1      -0.182  11.115  21.333  0.00  0.00    +0.000 A 
ATOM     26  C   UNL     1       0.404  10.032  20.659  0.00  0.00    +0.000 A 
BRANCH  26  27
ATOM     27  N   UNL     1       0.433   8.761  21.357  0.00  0.00    +0.000 N 
ATOM     28  O   UNL     1       1.488   8.473  21.941  0.00  0.00    +0.000 OA
ATOM     29  O   UNL     1      -0.629   8.126  21.417  0.00  0.00    +0.000 OA
ENDBRANCH  26  27
ENDBRANCH  18  21
ENDBRANCH   5  17
TORSDOF 4
ENDMDL
MODEL 3
REMARK VINA RESULT:      -8.5      1.802      2.352
REMARK  Name = 
REMARK  5 active torsions:
REMARK  status: ('A' for Active; 'I' for Inactive)
REMARK    1  A    between atoms: C_1  and  C_2
REMARK    2  A    between atoms: C_2  and  C_3
REMARK    3  A    between atoms: C_7  and  N_8
REMARK    4  A    between atoms: C_9  and  C_11
REMARK    5  A    between atoms: C_16  and  N_17
REMARK                            x       y       z     vdW  Elec       q    Type
REMARK                         _______ _______ _______ _____ _____    ______ ____
ROOT
ATOM      1  C   UNL     1       4.808   6.247  17.911  0.00  0.00    +0.000 A 
ATOM      2  C   UNL     1       4.497   5.289  18.890  0.00  0.00    +0.000 A 
ATOM      3  C   UNL     1       3.288   5.329  19.573  0.00  0.00    +0.000 A 
ATOM      4  C   UNL     1       2.371   6.345  19.311  0.00  0.00    +0.000 A 
ATOM      5  C   UNL     1       2.656   7.339  18.378  0.00  0.00    +0.000 A 
ATOM      6  C   UNL     1       3.873   7.280  17.680  0.00  0.00    +0.000 A 
ENDROOT
BRANCH   1   8
ATOM      7  C   UNL     1       6.037   5.393  15.890  0.00  0.00    +0.000 C 
ATOM      8  C   UNL     1       6.149   6.205  17.177  0.00  0.00    +0.000 C 
ATOM      9  N   UNL     1       6.668   7.538  16.922  0.00  0.00    +0.000 N 
ATOM     10  C   UNL     1       7.719   7.865  17.740  0.00  0.00    +0.000 C 
ATOM     11  O   UNL     1       8.240   8.961  17.804  0.00  0.00    +0.000 OA
ATOM     12  N   UNL     1       8.086   6.761  18.427  0.00  0.00    +0.000 N 
ATOM     13  C   UNL     1       7.310   5.700  18.071  0.00  0.00    +0.000 C 
ATOM     14  O   UNL     1       7.503   4.549  18.444  0.00  0.00    +0.000 OA
ATOM     15  H   UNL     1       6.219   8.252  16.367  0.00  0.00    +0.000 HD
ATOM     16  H   UNL     1       8.887   6.718  19.030  0.00  0.00    +0.000 HD
ENDBRANCH   1   8
BRANCH   5  17
ATOM     17  N   UNL     1       1.784   8.419  18.095  0.00  0.00    +0.000 N 
ATOM     18  C   UNL     1       1.148   9.220  19.031  0.00  0.00    +0.000 C 
ATOM     19  O   UNL     1       1.267   9.148  20.247  0.00  0.00    +0.000 OA
ATOM     20  H   UNL     1       1.643   8.624  17.115  0.00  0.00    +0.000 HD
BRANCH  18  21
ATOM     21  C   UNL     1       0.181  10.224  18.517  0.00  0.00    +0.000 A 
ATOM     22  C   UNL     1      -1.069   9.828  18.017  0.00  0.00    +0.000 A 
ATOM     23  C   UNL     1      -2.047  10.783  17.714  0.00  0.00    +0.000 A 
ATOM     24  C   UNL     1      -1.802  12.142  17.924  0.00  0.00    +0.000 A 
ATOM     25  C   UNL     1      -0.562  12.559  18.404  0.00  0.00    +0.000 A 
ATOM     26  C   UNL     1       0.419  11.596  18.687  0.00  0.00    +0.000 A 
BRANCH  26  27
ATOM     27  N   UNL     1       1.728  12.086  19.075  0.00  0.00    +0.000 N 
ATOM     28  O   UNL     1       2.584  12.148  18.181  0.00  0.00    +0.000 OA
ATOM     29  O   UNL     1       1.850  12.515  20.231  0.00  0.00    +0.000 OA
ENDBRANCH  26  27
ENDBRANCH  18  21
ENDBRANCH   5  17
TORSDOF 4
ENDMDL
MODEL 4
REMARK VINA RESULT:      -8.5      2.236      7.829
REMARK  Name = 
REMARK  5 active torsions:
REMARK  status: ('A' for Active; 'I' for Inactive)
REMARK    1  A    between atoms: C_1  and  C_2
REMARK    2  A    between atoms: C_2  and  C_3
REMARK    3  A    between atoms: C_7  and  N_8
REMARK    4  A    between atoms: C_9  and  C_11
REMARK    5  A    between atoms: C_16  and  N_17
REMARK                            x       y       z     vdW  Elec       q    Type
REMARK                         _______ _______ _______ _____ _____    ______ ____
ROOT
ATOM      1  C   UNL     1       1.022   9.313  19.277  0.00  0.00    +0.000 A 
ATOM      2  C   UNL     1       0.623   8.738  20.495  0.00  0.00    +0.000 A 
ATOM      3  C   UNL     1       1.231   7.584  20.975  0.00  0.00    +0.000 A 
ATOM      4  C   UNL     1       2.234   6.962  20.235  0.00  0.00    +0.000 A 
ATOM      5  C   UNL     1       2.631   7.476  19.002  0.00  0.00    +0.000 A 
ATOM      6  C   UNL     1       2.025   8.652  18.533  0.00  0.00    +0.000 A 
ENDROOT
BRANCH   1   8
ATOM      7  C   UNL     1       1.343  11.708  18.580  0.00  0.00    +0.000 C 
ATOM      8  C   UNL     1       0.336  10.574  18.749  0.00  0.00    +0.000 C 
ATOM      9  N   UNL     1      -0.389  10.317  17.517  0.00  0.00    +0.000 N 
ATOM     10  C   UNL     1      -1.748  10.284  17.696  0.00  0.00    +0.000 C 
ATOM     11  O   UNL     1      -2.558   9.967  16.847  0.00  0.00    +0.000 OA
ATOM     12  N   UNL     1      -2.023  10.689  18.956  0.00  0.00    +0.000 N 
ATOM     13  C   UNL     1      -0.875  11.008  19.614  0.00  0.00    +0.000 C 
ATOM     14  O   UNL     1      -0.837  11.521  20.725  0.00  0.00    +0.000 OA
ATOM     15  H   UNL     1       0.013   9.994  16.649  0.00  0.00    +0.000 HD
ATOM     16  H   UNL     1      -2.953  10.833  19.306  0.00  0.00    +0.000 HD
ENDBRANCH   1   8
BRANCH   5  17
ATOM     17  N   UNL     1       3.617   6.869  18.184  0.00  0.00    +0.000 N 
ATOM     18  C   UNL     1       3.580   5.576  17.686  0.00  0.00    +0.000 C 
ATOM     19  O   UNL     1       2.676   4.765  17.839  0.00  0.00    +0.000 OA
ATOM     20  H   UNL     1       4.401   7.458  17.933  0.00  0.00    +0.000 HD
BRANCH  18  21
ATOM     21  C   UNL     1       4.777   5.103  16.944  0.00  0.00    +0.000 A 
ATOM     22  C   UNL     1       4.826   5.167  15.543  0.00  0.00    +0.000 A 
ATOM     23  C   UNL     1       6.020   4.902  14.862  0.00  0.00    +0.000 A 
ATOM     24  C   UNL     1       7.185   4.590  15.566  0.00  0.00    +0.000 A 
ATOM     25  C   UNL     1       7.155   4.503  16.956  0.00  0.00    +0.000 A 
ATOM     26  C   UNL     1       5.950   4.752  17.629  0.00  0.00    +0.000 A 
BRANCH  26  27
ATOM     27  N   UNL     1       5.942   4.538  19.064  0.00  0.00    +0.000 N 
ATOM     28  O   UNL     1       5.370   3.516  19.469  0.00  0.00    +0.000 OA
ATOM     29  O   UNL     1       6.606   5.323  19.755  0.00  0.00    +0.000 OA
ENDBRANCH  26  27
ENDBRANCH  18  21
ENDBRANCH   5  17
TORSDOF 4
ENDMDL
MODEL 5
REMARK VINA RESULT:      -8.5      1.196      2.148
REMARK  Name = 
REMARK  5 active torsions:
REMARK  status: ('A' for Active; 'I' for Inactive)
REMARK    1  A    between atoms: C_1  and  C_2
REMARK    2  A    between atoms: C_2  and  C_3
REMARK    3  A    between atoms: C_7  and  N_8
REMARK    4  A    between atoms: C_9  and  C_11
REMARK    5  A    between atoms: C_16  and  N_17
REMARK                            x       y       z     vdW  Elec       q    Type
REMARK                         _______ _______ _______ _____ _____    ______ ____
ROOT
ATOM      1  C   UNL     1       4.781   5.833  17.324  0.00  0.00    +0.000 A 
ATOM      2  C   UNL     1       4.025   4.654  17.223  0.00  0.00    +0.000 A 
ATOM      3  C   UNL     1       2.716   4.601  17.688  0.00  0.00    +0.000 A 
ATOM      4  C   UNL     1       2.143   5.718  18.290  0.00  0.00    +0.000 A 
ATOM      5  C   UNL     1       2.871   6.895  18.449  0.00  0.00    +0.000 A 
ATOM      6  C   UNL     1       4.187   6.946  17.959  0.00  0.00    +0.000 A 
ENDROOT
BRANCH   1   8
ATOM      7  C   UNL     1       6.387   5.041  15.558  0.00  0.00    +0.000 C 
ATOM      8  C   UNL     1       6.226   5.878  16.824  0.00  0.00    +0.000 C 
ATOM      9  N   UNL     1       6.687   7.241  16.625  0.00  0.00    +0.000 N 
ATOM     10  C   UNL     1       7.561   7.655  17.597  0.00  0.00    +0.000 C 
ATOM     11  O   UNL     1       7.987   8.787  17.718  0.00  0.00    +0.000 OA
ATOM     12  N   UNL     1       7.883   6.590  18.364  0.00  0.00    +0.000 N 
ATOM     13  C   UNL     1       7.253   5.471  17.913  0.00  0.00    +0.000 C 
ATOM     14  O   UNL     1       7.459   4.343  18.342  0.00  0.00    +0.000 OA
ATOM     15  H   UNL     1       6.289   7.913  15.984  0.00  0.00    +0.000 HD
ATOM     16  H   UNL     1       8.573   6.615  19.093  0.00  0.00    +0.000 HD
ENDBRANCH   1   8
BRANCH   5  17
ATOM     17  N   UNL     1       2.359   8.052  19.086  0.00  0.00    +0.000 N 
ATOM     18  C   UNL     1       1.473   8.963  18.533  0.00  0.00    +0.000 C 
ATOM     19  O   UNL     1       0.963   8.896  17.422  0.00  0.00    +0.000 OA
ATOM     20  H   UNL     1       2.660   8.196  20.041  0.00  0.00    +0.000 HD
BRANCH  18  21
ATOM     21  C   UNL     1       1.155  10.171  19.337  0.00  0.00    +0.000 A 
ATOM     22  C   UNL     1       1.278  11.456  18.783  0.00  0.00    +0.000 A 
ATOM     23  C   UNL     1       0.797  12.575  19.474  0.00  0.00    +0.000 A 
ATOM     24  C   UNL     1       0.170  12.429  20.714  0.00  0.00    +0.000 A 
ATOM     25  C   UNL     1       0.052  11.166  21.289  0.00  0.00    +0.000 A 
ATOM     26  C   UNL     1       0.554  10.052  20.598  0.00  0.00    +0.000 A 
BRANCH  26  27
ATOM     27  N   UNL     1       0.510   8.776  21.288  0.00  0.00    +0.000 N 
ATOM     28  O   UNL     1       1.551   8.419  21.858  0.00  0.00    +0.000 OA
ATOM     29  O   UNL     1      -0.589   8.209  21.355  0.00  0.00    +0.000 OA
ENDBRANCH  26  27
ENDBRANCH  18  21
ENDBRANCH   5  17
TORSDOF 4
ENDMDL
MODEL 6
REMARK VINA RESULT:      -8.4      2.980      4.151
REMARK  Name = 
REMARK  5 active torsions:
REMARK  status: ('A' for Active; 'I' for Inactive)
REMARK    1  A    between atoms: C_1  and  C_2
REMARK    2  A    between atoms: C_2  and  C_3
REMARK    3  A    between atoms: C_7  and  N_8
REMARK    4  A    between atoms: C_9  and  C_11
REMARK    5  A    between atoms: C_16  and  N_17
REMARK                            x       y       z     vdW  Elec       q    Type
REMARK                         _______ _______ _______ _____ _____    ______ ____
ROOT
ATOM      1  C   UNL     1       2.998   4.909  18.554  0.00  0.00    +0.000 A 
ATOM      2  C   UNL     1       3.928   5.269  17.565  0.00  0.00    +0.000 A 
ATOM      3  C   UNL     1       4.118   6.600  17.211  0.00  0.00    +0.000 A 
ATOM      4  C   UNL     1       3.363   7.599  17.819  0.00  0.00    +0.000 A 
ATOM      5  C   UNL     1       2.399   7.283  18.775  0.00  0.00    +0.000 A 
ATOM      6  C   UNL     1       2.227   5.937  19.140  0.00  0.00    +0.000 A 
ENDROOT
BRANCH   1   8
ATOM      7  C   UNL     1       3.459   2.522  17.911  0.00  0.00    +0.000 C 
ATOM      8  C   UNL     1       2.784   3.441  18.925  0.00  0.00    +0.000 C 
ATOM      9  N   UNL     1       3.225   3.156  20.279  0.00  0.00    +0.000 N 
ATOM     10  C   UNL     1       2.183   2.987  21.154  0.00  0.00    +0.000 C 
ATOM     11  O   UNL     1       2.293   2.863  22.358  0.00  0.00    +0.000 OA
ATOM     12  N   UNL     1       1.032   2.954  20.446  0.00  0.00    +0.000 N 
ATOM     13  C   UNL     1       1.288   3.080  19.115  0.00  0.00    +0.000 C 
ATOM     14  O   UNL     1       0.444   2.958  18.236  0.00  0.00    +0.000 OA
ATOM     15  H   UNL     1       4.166   3.260  20.629  0.00  0.00    +0.000 HD
ATOM     16  H   UNL     1       0.133   2.755  20.849  0.00  0.00    +0.000 HD
ENDBRANCH   1   8
BRANCH   5  17
ATOM     17  N   UNL     1       1.573   8.248  19.401  0.00  0.00    +0.000 N 
ATOM     18  C   UNL     1       1.427   8.434  20.767  0.00  0.00    +0.000 C 
ATOM     19  O   UNL     1       2.015   7.822  21.649  0.00  0.00    +0.000 OA
ATOM     20  H   UNL     1       1.069   8.865  18.777  0.00  0.00    +0.000 HD
BRANCH  18  21
ATOM     21  C   UNL     1       0.416   9.429  21.210  0.00  0.00    +0.000 A 
ATOM     22  C   UNL     1      -0.120   9.379  22.506  0.00  0.00    +0.000 A 
ATOM     23  C   UNL     1      -0.922  10.423  22.982  0.00  0.00    +0.000 A 
ATOM     24  C   UNL     1      -1.184  11.539  22.184  0.00  0.00    +0.000 A 
ATOM     25  C   UNL     1      -0.676  11.601  20.889  0.00  0.00    +0.000 A 
ATOM     26  C   UNL     1       0.112  10.541  20.413  0.00  0.00    +0.000 A 
BRANCH  26  27
ATOM     27  N   UNL     1       0.521  10.599  19.022  0.00  0.00    +0.000 N 
ATOM     28  O   UNL     1      -0.275  10.142  18.190  0.00  0.00    +0.000 OA
ATOM     29  O   UNL     1       1.571  11.207  18.768  0.00  0.00    +0.000 OA
ENDBRANCH  26  27
ENDBRANCH  18  21
ENDBRANCH   5  17
TORSDOF 4
ENDMDL
MODEL 7
REMARK VINA RESULT:      -8.3      2.430      3.692
REMARK  Name = 
REMARK  5 active torsions:
REMARK  status: ('A' for Active; 'I' for Inactive)
REMARK    1  A    between atoms: C_1  and  C_2
REMARK    2  A    between atoms: C_2  and  C_3
REMARK    3  A    between atoms: C_7  and  N_8
REMARK    4  A    between atoms: C_9  and  C_11
REMARK    5  A    between atoms: C_16  and  N_17
REMARK                            x       y       z     vdW  Elec       q    Type
REMARK                         _______ _______ _______ _____ _____    ______ ____
ROOT
ATOM      1  C   UNL     1       3.425   4.484  18.241  0.00  0.00    +0.000 A 
ATOM      2  C   UNL     1       4.315   4.775  17.194  0.00  0.00    +0.000 A 
ATOM      3  C   UNL     1       4.574   6.088  16.818  0.00  0.00    +0.000 A 
ATOM      4  C   UNL     1       3.928   7.140  17.464  0.00  0.00    +0.000 A 
ATOM      5  C   UNL     1       3.006   6.894  18.480  0.00  0.00    +0.000 A 
ATOM      6  C   UNL     1       2.764   5.565  18.865  0.00  0.00    +0.000 A 
ENDROOT
BRANCH   1   8
ATOM      7  C   UNL     1       2.452   2.289  17.491  0.00  0.00    +0.000 C 
ATOM      8  C   UNL     1       3.133   3.035  18.635  0.00  0.00    +0.000 C 
ATOM      9  N   UNL     1       4.330   2.346  19.084  0.00  0.00    +0.000 N 
ATOM     10  C   UNL     1       4.360   2.161  20.442  0.00  0.00    +0.000 C 
ATOM     11  O   UNL     1       5.306   1.723  21.068  0.00  0.00    +0.000 OA
ATOM     12  N   UNL     1       3.159   2.518  20.949  0.00  0.00    +0.000 N 
ATOM     13  C   UNL     1       2.324   2.921  19.953  0.00  0.00    +0.000 C 
ATOM     14  O   UNL     1       1.138   3.180  20.111  0.00  0.00    +0.000 OA
ATOM     15  H   UNL     1       5.161   2.184  18.534  0.00  0.00    +0.000 HD
ATOM     16  H   UNL     1       2.900   2.395  21.912  0.00  0.00    +0.000 HD
ENDBRANCH   1   8
BRANCH   5  17
ATOM     17  N   UNL     1       2.289   7.917  19.148  0.00  0.00    +0.000 N 
ATOM     18  C   UNL     1       1.555   7.769  20.315  0.00  0.00    +0.000 C 
ATOM     19  O   UNL     1       1.440   6.745  20.975  0.00  0.00    +0.000 OA
ATOM     20  H   UNL     1       2.348   8.837  18.732  0.00  0.00    +0.000 HD
BRANCH  18  21
ATOM     21  C   UNL     1       0.782   8.949  20.782  0.00  0.00    +0.000 A 
ATOM     22  C   UNL     1       0.339   9.037  22.111  0.00  0.00    +0.000 A 
ATOM     23  C   UNL     1      -0.218  10.227  22.595  0.00  0.00    +0.000 A 
ATOM     24  C   UNL     1      -0.322  11.350  21.771  0.00  0.00    +0.000 A 
ATOM     25  C   UNL     1       0.096  11.280  20.445  0.00  0.00    +0.000 A 
ATOM     26  C   UNL     1       0.636  10.077  19.962  0.00  0.00    +0.000 A 
BRANCH  26  27
ATOM     27  N   UNL     1       0.950  10.019  18.547  0.00  0.00    +0.000 N 
ATOM     28  O   UNL     1       0.071   9.561  17.802  0.00  0.00    +0.000 OA
ATOM     29  O   UNL     1       2.014  10.540  18.183  0.00  0.00    +0.000 OA
ENDBRANCH  26  27
ENDBRANCH  18  21
ENDBRANCH   5  17
TORSDOF 4
ENDMDL
MODEL 8
REMARK VINA RESULT:      -8.3      2.926      4.312
REMARK  Name = 
REMARK  5 active torsions:
REMARK  status: ('A' for Active; 'I' for Inactive)
REMARK    1  A    between atoms: C_1  and  C_2
REMARK    2  A    between atoms: C_2  and  C_3
REMARK    3  A    between atoms: C_7  and  N_8
REMARK    4  A    between atoms: C_9  and  C_11
REMARK    5  A    between atoms: C_16  and  N_17
REMARK                            x       y       z     vdW  Elec       q    Type
REMARK                         _______ _______ _______ _____ _____    ______ ____
ROOT
ATOM      1  C   UNL     1       3.091   5.203  18.325  0.00  0.00    +0.000 A 
ATOM      2  C   UNL     1       4.424   5.362  17.912  0.00  0.00    +0.000 A 
ATOM      3  C   UNL     1       4.901   6.599  17.493  0.00  0.00    +0.000 A 
ATOM      4  C   UNL     1       4.049   7.699  17.452  0.00  0.00    +0.000 A 
ATOM      5  C   UNL     1       2.708   7.576  17.813  0.00  0.00    +0.000 A 
ATOM      6  C   UNL     1       2.239   6.327  18.252  0.00  0.00    +0.000 A 
ENDROOT
BRANCH   1   8
ATOM      7  C   UNL     1       1.405   3.388  17.890  0.00  0.00    +0.000 C 
ATOM      8  C   UNL     1       2.570   3.835  18.768  0.00  0.00    +0.000 C 
ATOM      9  N   UNL     1       3.627   2.839  18.798  0.00  0.00    +0.000 N 
ATOM     10  C   UNL     1       4.022   2.519  20.072  0.00  0.00    +0.000 C 
ATOM     11  O   UNL     1       4.967   1.809  20.354  0.00  0.00    +0.000 OA
ATOM     12  N   UNL     1       3.168   3.102  20.943  0.00  0.00    +0.000 N 
ATOM     13  C   UNL     1       2.202   3.789  20.273  0.00  0.00    +0.000 C 
ATOM     14  O   UNL     1       1.229   4.307  20.807  0.00  0.00    +0.000 OA
ATOM     15  H   UNL     1       4.179   2.537  18.008  0.00  0.00    +0.000 HD
ATOM     16  H   UNL     1       3.192   2.951  21.935  0.00  0.00    +0.000 HD
ENDBRANCH   1   8
BRANCH   5  17
ATOM     17  N   UNL     1       1.782   8.647  17.756  0.00  0.00    +0.000 N 
ATOM     18  C   UNL     1       1.143   9.230  18.838  0.00  0.00    +0.000 C 
ATOM     19  O   UNL     1       1.302   8.941  20.017  0.00  0.00    +0.000 OA
ATOM     20  H   UNL     1       1.602   9.022  16.833  0.00  0.00    +0.000 HD
BRANCH  18  21
ATOM     21  C   UNL     1       0.119  10.265  18.542  0.00  0.00    +0.000 A 
ATOM     22  C   UNL     1      -1.069   9.930  17.873  0.00  0.00    +0.000 A 
ATOM     23  C   UNL     1      -2.109  10.861  17.766  0.00  0.00    +0.000 A 
ATOM     24  C   UNL     1      -1.991  12.129  18.341  0.00  0.00    +0.000 A 
ATOM     25  C   UNL     1      -0.814  12.488  18.994  0.00  0.00    +0.000 A 
ATOM     26  C   UNL     1       0.231  11.555  19.080  0.00  0.00    +0.000 A 
BRANCH  26  27
ATOM     27  N   UNL     1       1.475  12.014  19.669  0.00  0.00    +0.000 N 
ATOM     28  O   UNL     1       2.343  12.422  18.883  0.00  0.00    +0.000 OA
ATOM     29  O   UNL     1       1.525  12.077  20.905  0.00  0.00    +0.000 OA
ENDBRANCH  26  27
ENDBRANCH  18  21
ENDBRANCH   5  17
TORSDOF 4
ENDMDL
MODEL 9
REMARK VINA RESULT:      -8.3      1.417      2.114
REMARK  Name = 
REMARK  5 active torsions:
REMARK  status: ('A' for Active; 'I' for Inactive)
REMARK    1  A    between atoms: C_1  and  C_2
REMARK    2  A    between atoms: C_2  and  C_3
REMARK    3  A    between atoms: C_7  and  N_8
REMARK    4  A    between atoms: C_9  and  C_11
REMARK    5  A    between atoms: C_16  and  N_17
REMARK                            x       y       z     vdW  Elec       q    Type
REMARK                         _______ _______ _______ _____ _____    ______ ____
ROOT
ATOM      1  C   UNL     1       4.961   5.788  17.285  0.00  0.00    +0.000 A 
ATOM      2  C   UNL     1       4.316   4.544  17.382  0.00  0.00    +0.000 A 
ATOM      3  C   UNL     1       2.983   4.456  17.767  0.00  0.00    +0.000 A 
ATOM      4  C   UNL     1       2.272   5.609  18.089  0.00  0.00    +0.000 A 
ATOM      5  C   UNL     1       2.885   6.860  18.047  0.00  0.00    +0.000 A 
ATOM      6  C   UNL     1       4.226   6.941  17.640  0.00  0.00    +0.000 A 
ENDROOT
BRANCH   1   8
ATOM      7  C   UNL     1       6.704   5.017  15.644  0.00  0.00    +0.000 C 
ATOM      8  C   UNL     1       6.433   5.873  16.878  0.00  0.00    +0.000 C 
ATOM      9  N   UNL     1       6.859   7.248  16.677  0.00  0.00    +0.000 N 
ATOM     10  C   UNL     1       7.654   7.712  17.693  0.00  0.00    +0.000 C 
ATOM     11  O   UNL     1       8.032   8.861  17.816  0.00  0.00    +0.000 OA
ATOM     12  N   UNL     1       7.961   6.675  18.504  0.00  0.00    +0.000 N 
ATOM     13  C   UNL     1       7.400   5.526  18.038  0.00  0.00    +0.000 C 
ATOM     14  O   UNL     1       7.617   4.415  18.505  0.00  0.00    +0.000 OA
ATOM     15  H   UNL     1       6.480   7.892  15.997  0.00  0.00    +0.000 HD
ATOM     16  H   UNL     1       8.602   6.739  19.274  0.00  0.00    +0.000 HD
ENDBRANCH   1   8
BRANCH   5  17
ATOM     17  N   UNL     1       2.227   8.065  18.400  0.00  0.00    +0.000 N 
ATOM     18  C   UNL     1       1.605   8.329  19.610  0.00  0.00    +0.000 C 
ATOM     19  O   UNL     1       1.556   7.583  20.579  0.00  0.00    +0.000 OA
ATOM     20  H   UNL     1       2.245   8.795  17.700  0.00  0.00    +0.000 HD
BRANCH  18  21
ATOM     21  C   UNL     1       0.874   9.617  19.727  0.00  0.00    +0.000 A 
ATOM     22  C   UNL     1       0.571  10.378  18.587  0.00  0.00    +0.000 A 
ATOM     23  C   UNL     1      -0.279  11.487  18.679  0.00  0.00    +0.000 A 
ATOM     24  C   UNL     1      -0.856  11.840  19.901  0.00  0.00    +0.000 A 
ATOM     25  C   UNL     1      -0.556  11.109  21.048  0.00  0.00    +0.000 A 
ATOM     26  C   UNL     1       0.313  10.011  20.950  0.00  0.00    +0.000 A 
BRANCH  26  27
ATOM     27  N   UNL     1       0.684   9.353  22.189  0.00  0.00    +0.000 N 
ATOM     28  O   UNL     1       1.802   9.625  22.648  0.00  0.00    +0.000 OA
ATOM     29  O   UNL     1      -0.187   8.673  22.749  0.00  0.00    +0.000 OA
ENDBRANCH  26  27
ENDBRANCH  18  21
ENDBRANCH   5  17
TORSDOF 4
ENDMDL
