MODEL 1
REMARK VINA RESULT:      -8.4      0.000      0.000
REMARK  Name = 
REMARK  5 active torsions:
REMARK  status: ('A' for Active; 'I' for Inactive)
REMARK    1  A    between atoms: C_1  and  C_2
REMARK    2  A    between atoms: C_2  and  N_3
REMARK    3  A    between atoms: C_7  and  C_8
REMARK    4  A    between atoms: C_12  and  N_13
REMARK    5  A    between atoms: C_14  and  C_16
REMARK                            x       y       z     vdW  Elec       q    Type
REMARK                         _______ _______ _______ _____ _____    ______ ____
ROOT
ATOM      1  C   UNL     1      -1.290  11.540  18.373  0.00  0.00    +0.000 A 
ATOM      2  C   UNL     1      -0.558  12.715  18.574  0.00  0.00    +0.000 A 
ATOM      3  C   UNL     1       0.798  12.668  18.891  0.00  0.00    +0.000 A 
ATOM      4  C   UNL     1       1.437  11.442  19.068  0.00  0.00    +0.000 A 
ATOM      5  C   UNL     1       0.727  10.249  18.945  0.00  0.00    +0.000 A 
ATOM      6  C   UNL     1      -0.630  10.305  18.578  0.00  0.00    +0.000 A 
ENDROOT
BRANCH   1  11
ATOM      7  N   UNL     1      -3.329  11.280  16.817  0.00  0.00    +0.000 N 
ATOM      8  C   UNL     1      -4.658  11.546  16.989  0.00  0.00    +0.000 A 
ATOM      9  N   UNL     1      -4.886  11.873  18.235  0.00  0.00    +0.000 NA
ATOM     10  N   UNL     1      -3.684  11.863  18.890  0.00  0.00    +0.000 NA
ATOM     11  C   UNL     1      -2.723  11.557  18.032  0.00  0.00    +0.000 A 
BRANCH   7  13
ATOM     12  C   UNL     1      -3.653  10.105  14.611  0.00  0.00    +0.000 C 
ATOM     13  C   UNL     1      -2.725  10.828  15.580  0.00  0.00    +0.000 C 
ENDBRANCH   7  13
ENDBRANCH   1  11
BRANCH   5  14
ATOM     14  N   UNL     1       1.313   8.983  19.175  0.00  0.00    +0.000 N 
ATOM     15  C   UNL     1       2.157   8.275  18.329  0.00  0.00    +0.000 C 
ATOM     16  O   UNL     1       2.587   8.655  17.241  0.00  0.00    +0.000 OA
ATOM     17  H   UNL     1       1.097   8.524  20.057  0.00  0.00    +0.000 HD
BRANCH  15  18
ATOM     18  C   UNL     1       2.578   6.911  18.877  0.00  0.00    +0.000 C 
ATOM     19  C   UNL     1       2.016   6.639  20.278  0.00  0.00    +0.000 C 
ATOM     20  C   UNL     1       1.982   5.157  20.202  0.00  0.00    +0.000 A 
ATOM     21  C   UNL     1       1.889   4.203  21.200  0.00  0.00    +0.000 A 
ATOM     22  C   UNL     1       1.832   2.858  20.819  0.00  0.00    +0.000 A 
ATOM     23  C   UNL     1       1.842   2.492  19.461  0.00  0.00    +0.000 A 
ATOM     24  C   UNL     1       1.930   3.465  18.467  0.00  0.00    +0.000 A 
ATOM     25  C   UNL     1       2.018   4.780  18.867  0.00  0.00    +0.000 A 
ATOM     26  O   UNL     1       2.150   5.837  18.004  0.00  0.00    +0.000 OA
ENDBRANCH  15  18
ENDBRANCH   5  14
TORSDOF 4
ENDMDL
MODEL 2
REMARK VINA RESULT:      -8.3      4.031      8.727
REMARK  Name = 
REMARK  5 active torsions:
REMARK  status: ('A' for Active; 'I' for Inactive)
REMARK    1  A    between atoms: C_1  and  C_2
REMARK    2  A    between atoms: C_2  and  N_3
REMARK    3  A    between atoms: C_7  and  C_8
REMARK    4  A    between atoms: C_12  and  N_13
REMARK    5  A    between atoms: C_14  and  C_16
REMARK                            x       y       z     vdW  Elec       q    Type
REMARK                         _______ _______ _______ _____ _____    ______ ____
ROOT
ATOM      1  C   UNL     1       4.146   4.376  17.067  0.00  0.00    +0.000 A 
ATOM      2  C   UNL     1       3.498   3.162  17.314  0.00  0.00    +0.000 A 
ATOM      3  C   UNL     1       2.388   3.101  18.153  0.00  0.00    +0.000 A 
ATOM      4  C   UNL     1       1.937   4.245  18.808  0.00  0.00    +0.000 A 
ATOM      5  C   UNL     1       2.598   5.462  18.644  0.00  0.00    +0.000 A 
ATOM      6  C   UNL     1       3.689   5.524  17.757  0.00  0.00    +0.000 A 
ENDROOT
BRANCH   1  11
ATOM      7  N   UNL     1       6.650   4.660  16.519  0.00  0.00    +0.000 N 
ATOM      8  C   UNL     1       7.324   4.798  15.339  0.00  0.00    +0.000 A 
ATOM      9  N   UNL     1       6.502   4.619  14.336  0.00  0.00    +0.000 NA
ATOM     10  N   UNL     1       5.257   4.399  14.859  0.00  0.00    +0.000 NA
ATOM     11  C   UNL     1       5.319   4.474  16.180  0.00  0.00    +0.000 A 
BRANCH   7  13
ATOM     12  C   UNL     1       7.569   6.134  18.345  0.00  0.00    +0.000 C 
ATOM     13  C   UNL     1       7.253   4.733  17.834  0.00  0.00    +0.000 C 
ENDBRANCH   7  13
ENDBRANCH   1  11
BRANCH   5  14
ATOM     14  N   UNL     1       2.219   6.637  19.332  0.00  0.00    +0.000 N 
ATOM     15  C   UNL     1       1.957   7.888  18.789  0.00  0.00    +0.000 C 
ATOM     16  O   UNL     1       1.957   8.180  17.594  0.00  0.00    +0.000 OA
ATOM     17  H   UNL     1       2.129   6.575  20.344  0.00  0.00    +0.000 HD
BRANCH  15  18
ATOM     18  C   UNL     1       1.610   8.953  19.830  0.00  0.00    +0.000 C 
ATOM     19  C   UNL     1       0.581   9.969  19.316  0.00  0.00    +0.000 C 
ATOM     20  C   UNL     1      -0.012  10.341  20.625  0.00  0.00    +0.000 A 
ATOM     21  C   UNL     1      -0.781  11.432  20.990  0.00  0.00    +0.000 A 
ATOM     22  C   UNL     1      -1.245  11.496  22.308  0.00  0.00    +0.000 A 
ATOM     23  C   UNL     1      -0.961  10.467  23.224  0.00  0.00    +0.000 A 
ATOM     24  C   UNL     1      -0.190   9.371  22.838  0.00  0.00    +0.000 A 
ATOM     25  C   UNL     1       0.284   9.346  21.545  0.00  0.00    +0.000 A 
ATOM     26  O   UNL     1       1.085   8.355  21.041  0.00  0.00    +0.000 OA
ENDBRANCH  15  18
ENDBRANCH   5  14
TORSDOF 4
ENDMDL
MODEL 3
REMARK VINA RESULT:      -8.3      3.924      8.696
REMARK  Name = 
REMARK  5 active torsions:
REMARK  status: ('A' for Active; 'I' for Inactive)
REMARK    1  A    between atoms: C_1  and  C_2
REMARK    2  A    between atoms: C_2  and  N_3
REMARK    3  A    between atoms: C_7  and  C_8
REMARK    4  A    between atoms: C_12  and  N_13
REMARK    5  A    between atoms: C_14  and  C_16
REMARK                            x       y       z     vdW  Elec       q    Type
REMARK                         _______ _______ _______ _____ _____    ______ ____
ROOT
ATOM      1  C   UNL     1       4.341   4.986  17.771  0.00  0.00    +0.000 A 
ATOM      2  C   UNL     1       3.446   3.977  17.396  0.00  0.00    +0.000 A 
ATOM      3  C   UNL     1       2.071   4.157  17.523  0.00  0.00    +0.000 A 
ATOM      4  C   UNL     1       1.563   5.330  18.079  0.00  0.00    +0.000 A 
ATOM      5  C   UNL     1       2.422   6.330  18.529  0.00  0.00    +0.000 A 
ATOM      6  C   UNL     1       3.808   6.160  18.354  0.00  0.00    +0.000 A 
ENDROOT
BRANCH   1  11
ATOM      7  N   UNL     1       6.582   4.876  16.502  0.00  0.00    +0.000 N 
ATOM      8  C   UNL     1       7.850   4.557  16.899  0.00  0.00    +0.000 A 
ATOM      9  N   UNL     1       7.884   4.412  18.199  0.00  0.00    +0.000 NA
ATOM     10  N   UNL     1       6.611   4.598  18.666  0.00  0.00    +0.000 NA
ATOM     11  C   UNL     1       5.800   4.828  17.644  0.00  0.00    +0.000 A 
BRANCH   7  13
ATOM     12  C   UNL     1       5.987   3.962  14.230  0.00  0.00    +0.000 C 
ATOM     13  C   UNL     1       6.186   5.169  15.139  0.00  0.00    +0.000 C 
ENDBRANCH   7  13
ENDBRANCH   1  11
BRANCH   5  14
ATOM     14  N   UNL     1       1.961   7.510  19.157  0.00  0.00    +0.000 N 
ATOM     15  C   UNL     1       1.757   8.754  18.574  0.00  0.00    +0.000 C 
ATOM     16  O   UNL     1       1.896   9.035  17.384  0.00  0.00    +0.000 OA
ATOM     17  H   UNL     1       1.754   7.457  20.152  0.00  0.00    +0.000 HD
BRANCH  15  18
ATOM     18  C   UNL     1       1.287   9.827  19.557  0.00  0.00    +0.000 C 
ATOM     19  C   UNL     1       0.042  10.575  19.063  0.00  0.00    +0.000 C 
ATOM     20  C   UNL     1      -0.513  10.950  20.388  0.00  0.00    +0.000 A 
ATOM     21  C   UNL     1      -1.452  11.904  20.736  0.00  0.00    +0.000 A 
ATOM     22  C   UNL     1      -1.819  12.002  22.083  0.00  0.00    +0.000 A 
ATOM     23  C   UNL     1      -1.269  11.137  23.046  0.00  0.00    +0.000 A 
ATOM     24  C   UNL     1      -0.328  10.176  22.677  0.00  0.00    +0.000 A 
ATOM     25  C   UNL     1       0.042  10.121  21.351  0.00  0.00    +0.000 A 
ATOM     26  O   UNL     1       0.983   9.257  20.854  0.00  0.00    +0.000 OA
ENDBRANCH  15  18
ENDBRANCH   5  14
TORSDOF 4
ENDMDL
MODEL 4
REMARK VINA RESULT:      -8.2      4.580      7.050
REMARK  Name = 
REMARK  5 active torsions:
REMARK  status: ('A' for Active; 'I' for Inactive)
REMARK    1  A    between atoms: C_1  and  C_2
REMARK    2  A    between atoms: C_2  and  N_3
REMARK    3  A    between atoms: C_7  and  C_8
REMARK    4  A    between atoms: C_12  and  N_13
REMARK    5  A    between atoms: C_14  and  C_16
REMARK                            x       y       z     vdW  Elec       q    Type
REMARK                         _______ _______ _______ _____ _____    ______ ____
ROOT
ATOM      1  C   UNL     1       2.224   6.980  19.672  0.00  0.00    +0.000 A 
ATOM      2  C   UNL     1       1.810   6.082  20.661  0.00  0.00    +0.000 A 
ATOM      3  C   UNL     1       2.342   4.796  20.728  0.00  0.00    +0.000 A 
ATOM      4  C   UNL     1       3.260   4.364  19.773  0.00  0.00    +0.000 A 
ATOM      5  C   UNL     1       3.646   5.204  18.730  0.00  0.00    +0.000 A 
ATOM      6  C   UNL     1       3.140   6.517  18.697  0.00  0.00    +0.000 A 
ENDROOT
BRANCH   1  11
ATOM      7  N   UNL     1       1.209   9.165  20.590  0.00  0.00    +0.000 N 
ATOM      8  C   UNL     1       0.717  10.281  19.975  0.00  0.00    +0.000 A 
ATOM      9  N   UNL     1       0.949  10.216  18.689  0.00  0.00    +0.000 NA
ATOM     10  N   UNL     1       1.567   9.020  18.442  0.00  0.00    +0.000 NA
ATOM     11  C   UNL     1       1.684   8.347  19.577  0.00  0.00    +0.000 A 
BRANCH   7  13
ATOM     12  C   UNL     1      -0.055   9.416  22.756  0.00  0.00    +0.000 C 
ATOM     13  C   UNL     1       1.184   8.923  22.018  0.00  0.00    +0.000 C 
ENDBRANCH   7  13
ENDBRANCH   1  11
BRANCH   5  14
ATOM     14  N   UNL     1       4.525   4.793  17.701  0.00  0.00    +0.000 N 
ATOM     15  C   UNL     1       5.893   5.019  17.618  0.00  0.00    +0.000 C 
ATOM     16  O   UNL     1       6.594   5.578  18.459  0.00  0.00    +0.000 OA
ATOM     17  H   UNL     1       4.121   4.274  16.925  0.00  0.00    +0.000 HD
BRANCH  15  18
ATOM     18  C   UNL     1       6.533   4.467  16.343  0.00  0.00    +0.000 C 
ATOM     19  C   UNL     1       5.515   3.784  15.420  0.00  0.00    +0.000 C 
ATOM     20  C   UNL     1       6.219   4.011  14.133  0.00  0.00    +0.000 A 
ATOM     21  C   UNL     1       6.064   3.403  12.900  0.00  0.00    +0.000 A 
ATOM     22  C   UNL     1       6.851   3.863  11.838  0.00  0.00    +0.000 A 
ATOM     23  C   UNL     1       7.751   4.930  12.016  0.00  0.00    +0.000 A 
ATOM     24  C   UNL     1       7.891   5.535  13.264  0.00  0.00    +0.000 A 
ATOM     25  C   UNL     1       7.130   5.043  14.302  0.00  0.00    +0.000 A 
ATOM     26  O   UNL     1       7.193   5.513  15.588  0.00  0.00    +0.000 OA
ENDBRANCH  15  18
ENDBRANCH   5  14
TORSDOF 4
ENDMDL
MODEL 5
REMARK VINA RESULT:      -8.0      4.130      8.857
REMARK  Name = 
REMARK  5 active torsions:
REMARK  status: ('A' for Active; 'I' for Inactive)
REMARK    1  A    between atoms: C_1  and  C_2
REMARK    2  A    between atoms: C_2  and  N_3
REMARK    3  A    between atoms: C_7  and  C_8
REMARK    4  A    between atoms: C_12  and  N_13
REMARK    5  A    between atoms: C_14  and  C_16
REMARK                            x       y       z     vdW  Elec       q    Type
REMARK                         _______ _______ _______ _____ _____    ______ ____
ROOT
ATOM      1  C   UNL     1       4.243   4.824  16.886  0.00  0.00    +0.000 A 
ATOM      2  C   UNL     1       3.489   3.650  16.987  0.00  0.00    +0.000 A 
ATOM      3  C   UNL     1       2.309   3.619  17.728  0.00  0.00    +0.000 A 
ATOM      4  C   UNL     1       1.888   4.748  18.428  0.00  0.00    +0.000 A 
ATOM      5  C   UNL     1       2.647   5.917  18.409  0.00  0.00    +0.000 A 
ATOM      6  C   UNL     1       3.812   5.954  17.621  0.00  0.00    +0.000 A 
ENDROOT
BRANCH   1  11
ATOM      7  N   UNL     1       6.800   4.854  16.560  0.00  0.00    +0.000 N 
ATOM      8  C   UNL     1       7.586   5.064  15.462  0.00  0.00    +0.000 A 
ATOM      9  N   UNL     1       6.839   5.132  14.390  0.00  0.00    +0.000 NA
ATOM     10  N   UNL     1       5.535   5.007  14.788  0.00  0.00    +0.000 NA
ATOM     11  C   UNL     1       5.491   4.891  16.106  0.00  0.00    +0.000 A 
BRANCH   7  13
ATOM     12  C   UNL     1       7.676   5.937  18.660  0.00  0.00    +0.000 C 
ATOM     13  C   UNL     1       7.291   4.667  17.910  0.00  0.00    +0.000 C 
ENDBRANCH   7  13
ENDBRANCH   1  11
BRANCH   5  14
ATOM     14  N   UNL     1       2.297   7.068  19.152  0.00  0.00    +0.000 N 
ATOM     15  C   UNL     1       1.724   7.116  20.417  0.00  0.00    +0.000 C 
ATOM     16  O   UNL     1       1.467   6.155  21.140  0.00  0.00    +0.000 OA
ATOM     17  H   UNL     1       2.476   7.972  18.721  0.00  0.00    +0.000 HD
BRANCH  15  18
ATOM     18  C   UNL     1       1.439   8.535  20.912  0.00  0.00    +0.000 C 
ATOM     19  C   UNL     1       0.738   9.399  19.855  0.00  0.00    +0.000 C 
ATOM     20  C   UNL     1       0.030  10.320  20.779  0.00  0.00    +0.000 A 
ATOM     21  C   UNL     1      -0.547  11.557  20.554  0.00  0.00    +0.000 A 
ATOM     22  C   UNL     1      -1.195  12.183  21.625  0.00  0.00    +0.000 A 
ATOM     23  C   UNL     1      -1.280  11.558  22.882  0.00  0.00    +0.000 A 
ATOM     24  C   UNL     1      -0.699  10.308  23.090  0.00  0.00    +0.000 A 
ATOM     25  C   UNL     1      -0.037   9.727  22.031  0.00  0.00    +0.000 A 
ATOM     26  O   UNL     1       0.614   8.523  22.103  0.00  0.00    +0.000 OA
ENDBRANCH  15  18
ENDBRANCH   5  14
TORSDOF 4
ENDMDL
MODEL 6
REMARK VINA RESULT:      -8.0      1.022      1.189
REMARK  Name = 
REMARK  5 active torsions:
REMARK  status: ('A' for Active; 'I' for Inactive)
REMARK    1  A    between atoms: C_1  and  C_2
REMARK    2  A    between atoms: C_2  and  N_3
REMARK    3  A    between atoms: C_7  and  C_8
REMARK    4  A    between atoms: C_12  and  N_13
REMARK    5  A    between atoms: C_14  and  C_16
REMARK                            x       y       z     vdW  Elec       q    Type
REMARK                         _______ _______ _______ _____ _____    ______ ____
ROOT
ATOM      1  C   UNL     1      -1.127  11.392  18.226  0.00  0.00    +0.000 A 
ATOM      2  C   UNL     1      -0.363  12.537  18.478  0.00  0.00    +0.000 A 
ATOM      3  C   UNL     1       1.002  12.443  18.737  0.00  0.00    +0.000 A 
ATOM      4  C   UNL     1       1.622  11.198  18.804  0.00  0.00    +0.000 A 
ATOM      5  C   UNL     1       0.884  10.028  18.629  0.00  0.00    +0.000 A 
ATOM      6  C   UNL     1      -0.485  10.134  18.321  0.00  0.00    +0.000 A 
ENDROOT
BRANCH   1  11
ATOM      7  N   UNL     1      -3.240  11.159  16.768  0.00  0.00    +0.000 N 
ATOM      8  C   UNL     1      -4.548  11.490  16.984  0.00  0.00    +0.000 A 
ATOM      9  N   UNL     1      -4.709  11.876  18.224  0.00  0.00    +0.000 NA
ATOM     10  N   UNL     1      -3.481  11.840  18.828  0.00  0.00    +0.000 NA
ATOM     11  C   UNL     1      -2.571  11.458  17.945  0.00  0.00    +0.000 A 
BRANCH   7  13
ATOM     12  C   UNL     1      -3.741  10.187  14.498  0.00  0.00    +0.000 C 
ATOM     13  C   UNL     1      -2.709  10.632  15.528  0.00  0.00    +0.000 C 
ENDBRANCH   7  13
ENDBRANCH   1  11
BRANCH   5  14
ATOM     14  N   UNL     1       1.451   8.739  18.750  0.00  0.00    +0.000 N 
ATOM     15  C   UNL     1       1.732   8.046  19.921  0.00  0.00    +0.000 C 
ATOM     16  O   UNL     1       1.484   8.416  21.067  0.00  0.00    +0.000 OA
ATOM     17  H   UNL     1       1.691   8.254  17.889  0.00  0.00    +0.000 HD
BRANCH  15  18
ATOM     18  C   UNL     1       2.384   6.682  19.689  0.00  0.00    +0.000 C 
ATOM     19  C   UNL     1       1.831   5.596  20.621  0.00  0.00    +0.000 C 
ATOM     20  C   UNL     1       2.083   4.425  19.745  0.00  0.00    +0.000 A 
ATOM     21  C   UNL     1       2.136   3.073  20.038  0.00  0.00    +0.000 A 
ATOM     22  C   UNL     1       2.351   2.181  18.982  0.00  0.00    +0.000 A 
ATOM     23  C   UNL     1       2.481   2.645  17.661  0.00  0.00    +0.000 A 
ATOM     24  C   UNL     1       2.421   4.010  17.382  0.00  0.00    +0.000 A 
ATOM     25  C   UNL     1       2.241   4.871  18.442  0.00  0.00    +0.000 A 
ATOM     26  O   UNL     1       2.202   6.236  18.322  0.00  0.00    +0.000 OA
ENDBRANCH  15  18
ENDBRANCH   5  14
TORSDOF 4
ENDMDL
MODEL 7
REMARK VINA RESULT:      -7.9      3.445      8.786
REMARK  Name = 
REMARK  5 active torsions:
REMARK  status: ('A' for Active; 'I' for Inactive)
REMARK    1  A    between atoms: C_1  and  C_2
REMARK    2  A    between atoms: C_2  and  N_3
REMARK    3  A    between atoms: C_7  and  C_8
REMARK    4  A    between atoms: C_12  and  N_13
REMARK    5  A    between atoms: C_14  and  C_16
REMARK                            x       y       z     vdW  Elec       q    Type
REMARK                         _______ _______ _______ _____ _____    ______ ____
ROOT
ATOM      1  C   UNL     1       4.329   5.165  19.314  0.00  0.00    +0.000 A 
ATOM      2  C   UNL     1       3.659   4.112  19.945  0.00  0.00    +0.000 A 
ATOM      3  C   UNL     1       2.349   4.262  20.392  0.00  0.00    +0.000 A 
ATOM      4  C   UNL     1       1.699   5.488  20.267  0.00  0.00    +0.000 A 
ATOM      5  C   UNL     1       2.355   6.583  19.707  0.00  0.00    +0.000 A 
ATOM      6  C   UNL     1       3.662   6.410  19.215  0.00  0.00    +0.000 A 
ENDROOT
BRANCH   1  11
ATOM      7  N   UNL     1       6.159   4.790  17.537  0.00  0.00    +0.000 N 
ATOM      8  C   UNL     1       7.515   4.647  17.628  0.00  0.00    +0.000 A 
ATOM      9  N   UNL     1       7.903   4.878  18.857  0.00  0.00    +0.000 NA
ATOM     10  N   UNL     1       6.783   5.138  19.600  0.00  0.00    +0.000 NA
ATOM     11  C   UNL     1       5.713   5.036  18.826  0.00  0.00    +0.000 A 
BRANCH   7  13
ATOM     12  C   UNL     1       6.064   3.910  15.178  0.00  0.00    +0.000 C 
ATOM     13  C   UNL     1       5.390   4.669  16.316  0.00  0.00    +0.000 C 
ENDBRANCH   7  13
ENDBRANCH   1  11
BRANCH   5  14
ATOM     14  N   UNL     1       1.763   7.864  19.614  0.00  0.00    +0.000 N 
ATOM     15  C   UNL     1       1.804   8.738  18.534  0.00  0.00    +0.000 C 
ATOM     16  O   UNL     1       2.325   8.524  17.440  0.00  0.00    +0.000 OA
ATOM     17  H   UNL     1       1.248   8.199  20.425  0.00  0.00    +0.000 HD
BRANCH  15  18
ATOM     18  C   UNL     1       1.086  10.065  18.787  0.00  0.00    +0.000 C 
ATOM     19  C   UNL     1      -0.322  10.099  18.178  0.00  0.00    +0.000 C 
ATOM     20  C   UNL     1      -0.929  11.073  19.120  0.00  0.00    +0.000 A 
ATOM     21  C   UNL     1      -2.080  11.834  19.014  0.00  0.00    +0.000 A 
ATOM     22  C   UNL     1      -2.433  12.644  20.098  0.00  0.00    +0.000 A 
ATOM     23  C   UNL     1      -1.654  12.661  21.270  0.00  0.00    +0.000 A 
ATOM     24  C   UNL     1      -0.500  11.884  21.363  0.00  0.00    +0.000 A 
ATOM     25  C   UNL     1      -0.155  11.119  20.270  0.00  0.00    +0.000 A 
ATOM     26  O   UNL     1       0.970  10.340  20.205  0.00  0.00    +0.000 OA
ENDBRANCH  15  18
ENDBRANCH   5  14
TORSDOF 4
ENDMDL
MODEL 8
REMARK VINA RESULT:      -7.9      4.360      8.657
REMARK  Name = 
REMARK  5 active torsions:
REMARK  status: ('A' for Active; 'I' for Inactive)
REMARK    1  A    between atoms: C_1  and  C_2
REMARK    2  A    between atoms: C_2  and  N_3
REMARK    3  A    between atoms: C_7  and  C_8
REMARK    4  A    between atoms: C_12  and  N_13
REMARK    5  A    between atoms: C_14  and  C_16
REMARK                            x       y       z     vdW  Elec       q    Type
REMARK                         _______ _______ _______ _____ _____    ______ ____
ROOT
ATOM      1  C   UNL     1       4.774   4.750  16.626  0.00  0.00    +0.000 A 
ATOM      2  C   UNL     1       4.250   3.470  16.834  0.00  0.00    +0.000 A 
ATOM      3  C   UNL     1       3.182   3.267  17.705  0.00  0.00    +0.000 A 
ATOM      4  C   UNL     1       2.651   4.334  18.428  0.00  0.00    +0.000 A 
ATOM      5  C   UNL     1       3.190   5.613  18.301  0.00  0.00    +0.000 A 
ATOM      6  C   UNL     1       4.237   5.818  17.384  0.00  0.00    +0.000 A 
ENDROOT
BRANCH   1  11
ATOM      7  N   UNL     1       6.055   4.586  14.394  0.00  0.00    +0.000 N 
ATOM      8  C   UNL     1       7.313   4.970  14.024  0.00  0.00    +0.000 A 
ATOM      9  N   UNL     1       7.870   5.650  14.993  0.00  0.00    +0.000 NA
ATOM     10  N   UNL     1       6.984   5.684  16.035  0.00  0.00    +0.000 NA
ATOM     11  C   UNL     1       5.899   4.998  15.708  0.00  0.00    +0.000 A 
BRANCH   7  13
ATOM     12  C   UNL     1       5.703   3.276  12.270  0.00  0.00    +0.000 C 
ATOM     13  C   UNL     1       5.122   3.868  13.549  0.00  0.00    +0.000 C 
ENDBRANCH   7  13
ENDBRANCH   1  11
BRANCH   5  14
ATOM     14  N   UNL     1       2.730   6.716  19.058  0.00  0.00    +0.000 N 
ATOM     15  C   UNL     1       2.159   7.889  18.581  0.00  0.00    +0.000 C 
ATOM     16  O   UNL     1       1.905   8.153  17.407  0.00  0.00    +0.000 OA
ATOM     17  H   UNL     1       2.825   6.658  20.069  0.00  0.00    +0.000 HD
BRANCH  15  18
ATOM     18  C   UNL     1       1.809   8.895  19.678  0.00  0.00    +0.000 C 
ATOM     19  C   UNL     1       0.795   9.948  19.212  0.00  0.00    +0.000 C 
ATOM     20  C   UNL     1       0.190  10.250  20.533  0.00  0.00    +0.000 A 
ATOM     21  C   UNL     1      -0.574  11.325  20.952  0.00  0.00    +0.000 A 
ATOM     22  C   UNL     1      -1.053  11.317  22.266  0.00  0.00    +0.000 A 
ATOM     23  C   UNL     1      -0.788  10.235  23.124  0.00  0.00    +0.000 A 
ATOM     24  C   UNL     1      -0.022   9.156  22.685  0.00  0.00    +0.000 A 
ATOM     25  C   UNL     1       0.466   9.201  21.398  0.00  0.00    +0.000 A 
ATOM     26  O   UNL     1       1.265   8.233  20.846  0.00  0.00    +0.000 OA
ENDBRANCH  15  18
ENDBRANCH   5  14
TORSDOF 4
ENDMDL
MODEL 9
REMARK VINA RESULT:      -7.9      0.825      1.663
REMARK  Name = 
REMARK  5 active torsions:
REMARK  status: ('A' for Active; 'I' for Inactive)
REMARK    1  A    between atoms: C_1  and  C_2
REMARK    2  A    between atoms: C_2  and  N_3
REMARK    3  A    between atoms: C_7  and  C_8
REMARK    4  A    between atoms: C_12  and  N_13
REMARK    5  A    between atoms: C_14  and  C_16
REMARK                            x       y       z     vdW  Elec       q    Type
REMARK                         _______ _______ _______ _____ _____    ______ ____
ROOT
ATOM      1  C   UNL     1      -1.255  11.412  18.176  0.00  0.00    +0.000 A 
ATOM      2  C   UNL     1      -0.740  12.578  18.752  0.00  0.00    +0.000 A 
ATOM      3  C   UNL     1       0.472  12.563  19.438  0.00  0.00    +0.000 A 
ATOM      4  C   UNL     1       1.169  11.368  19.609  0.00  0.00    +0.000 A 
ATOM      5  C   UNL     1       0.655  10.171  19.111  0.00  0.00    +0.000 A 
ATOM      6  C   UNL     1      -0.546  10.204  18.379  0.00  0.00    +0.000 A 
ENDROOT
BRANCH   1  11
ATOM      7  N   UNL     1      -3.805  11.681  17.906  0.00  0.00    +0.000 N 
ATOM      8  C   UNL     1      -4.654  11.413  16.870  0.00  0.00    +0.000 A 
ATOM      9  N   UNL     1      -3.966  11.079  15.809  0.00  0.00    +0.000 NA
ATOM     10  N   UNL     1      -2.642  11.086  16.157  0.00  0.00    +0.000 NA
ATOM     11  C   UNL     1      -2.531  11.397  17.440  0.00  0.00    +0.000 A 
BRANCH   7  13
ATOM     12  C   UNL     1      -5.696  12.003  19.540  0.00  0.00    +0.000 C 
ATOM     13  C   UNL     1      -4.212  12.139  19.219  0.00  0.00    +0.000 C 
ENDBRANCH   7  13
ENDBRANCH   1  11
BRANCH   5  14
ATOM     14  N   UNL     1       1.290   8.924  19.313  0.00  0.00    +0.000 N 
ATOM     15  C   UNL     1       2.113   8.241  18.426  0.00  0.00    +0.000 C 
ATOM     16  O   UNL     1       2.478   8.633  17.319  0.00  0.00    +0.000 OA
ATOM     17  H   UNL     1       1.131   8.460  20.204  0.00  0.00    +0.000 HD
BRANCH  15  18
ATOM     18  C   UNL     1       2.602   6.891  18.953  0.00  0.00    +0.000 C 
ATOM     19  C   UNL     1       2.023   6.551  20.332  0.00  0.00    +0.000 C 
ATOM     20  C   UNL     1       2.080   5.072  20.220  0.00  0.00    +0.000 A 
ATOM     21  C   UNL     1       2.020   4.090  21.193  0.00  0.00    +0.000 A 
ATOM     22  C   UNL     1       2.053   2.754  20.779  0.00  0.00    +0.000 A 
ATOM     23  C   UNL     1       2.118   2.423  19.414  0.00  0.00    +0.000 A 
ATOM     24  C   UNL     1       2.172   3.424  18.445  0.00  0.00    +0.000 A 
ATOM     25  C   UNL     1       2.171   4.732  18.878  0.00  0.00    +0.000 A 
ATOM     26  O   UNL     1       2.261   5.815  18.044  0.00  0.00    +0.000 OA
ENDBRANCH  15  18
ENDBRANCH   5  14
TORSDOF 4
ENDMDL
