MODEL 1
REMARK VINA RESULT:      -8.6      0.000      0.000
REMARK  Name = 
REMARK  3 active torsions:
REMARK  status: ('A' for Active; 'I' for Inactive)
REMARK    1  A    between atoms: C_1  and  C_2
REMARK    2  A    between atoms: C_2  and  C_3
REMARK    3  A    between atoms: C_9  and  C_10
REMARK                            x       y       z     vdW  Elec       q    Type
REMARK                         _______ _______ _______ _____ _____    ______ ____
ROOT
ATOM      1  C   UNL     1       3.175   6.157  18.856  0.00  0.00    +0.000 C 
ATOM      2  O   UNL     1       4.367   6.300  18.584  0.00  0.00    +0.000 OA
ATOM      3  N   UNL     1       2.574   4.891  18.932  0.00  0.00    +0.000 N 
ATOM      4  C   UNL     1       1.168   4.627  19.253  0.00  0.00    +0.000 C 
ATOM      5  C   UNL     1       0.940   3.328  20.023  0.00  0.00    +0.000 C 
ATOM      6  C   UNL     1       1.686   2.149  19.409  0.00  0.00    +0.000 C 
ATOM      7  C   UNL     1       3.162   2.495  19.223  0.00  0.00    +0.000 C 
ATOM      8  C   UNL     1       3.326   3.756  18.372  0.00  0.00    +0.000 C 
ATOM      9  N   UNL     1       3.844   2.586  20.500  0.00  0.00    +0.000 N 
ATOM     10  C   UNL     1       4.805   1.621  20.651  0.00  0.00    +0.000 C 
ATOM     11  O   UNL     1       5.518   1.484  21.627  0.00  0.00    +0.000 OA
ATOM     12  N   UNL     1       4.828   0.861  19.528  0.00  0.00    +0.000 N 
ATOM     13  C   UNL     1       3.930   1.320  18.612  0.00  0.00    +0.000 C 
ATOM     14  O   UNL     1       3.757   0.848  17.499  0.00  0.00    +0.000 OA
ATOM     15  H   UNL     1       3.707   3.311  21.194  0.00  0.00    +0.000 HD
ATOM     16  H   UNL     1       5.468   0.099  19.378  0.00  0.00    +0.000 HD
ENDROOT
BRANCH   1  25
ATOM     17  C   UNL     1       0.921  12.118  20.287  0.00  0.00    +0.000 C 
ATOM     18  C   UNL     1       0.126  10.813  20.323  0.00  0.00    +0.000 C 
ATOM     19  C   UNL     1      -1.244  10.970  19.668  0.00  0.00    +0.000 C 
ATOM     20  C   UNL     1      -0.035  10.335  21.787  0.00  0.00    +0.000 C 
ATOM     21  O   UNL     1      -0.627  10.910  22.687  0.00  0.00    +0.000 OA
ATOM     22  N   UNL     1       0.628   9.118  21.907  0.00  0.00    +0.000 N 
ATOM     23  C   UNL     1       1.190   8.724  20.702  0.00  0.00    +0.000 A 
ATOM     24  C   UNL     1       1.915   7.579  20.449  0.00  0.00    +0.000 A 
ATOM     25  C   UNL     1       2.400   7.397  19.143  0.00  0.00    +0.000 A 
ATOM     26  C   UNL     1       2.204   8.402  18.173  0.00  0.00    +0.000 A 
ATOM     27  C   UNL     1       1.426   9.531  18.443  0.00  0.00    +0.000 A 
ATOM     28  C   UNL     1       0.926   9.680  19.723  0.00  0.00    +0.000 A 
ATOM     29  H   UNL     1       0.681   8.612  22.778  0.00  0.00    +0.000 HD
ENDBRANCH   1  25
TORSDOF 1
ENDMDL
MODEL 2
REMARK VINA RESULT:      -8.5      2.466      8.340
REMARK  Name = 
REMARK  3 active torsions:
REMARK  status: ('A' for Active; 'I' for Inactive)
REMARK    1  A    between atoms: C_1  and  C_2
REMARK    2  A    between atoms: C_2  and  C_3
REMARK    3  A    between atoms: C_9  and  C_10
REMARK                            x       y       z     vdW  Elec       q    Type
REMARK                         _______ _______ _______ _____ _____    ______ ____
ROOT
ATOM      1  C   UNL     1       2.000   8.403  18.405  0.00  0.00    +0.000 C 
ATOM      2  O   UNL     1       2.269   8.831  17.283  0.00  0.00    +0.000 OA
ATOM      3  N   UNL     1       1.359   9.194  19.371  0.00  0.00    +0.000 N 
ATOM      4  C   UNL     1       0.996   8.767  20.727  0.00  0.00    +0.000 C 
ATOM      5  C   UNL     1      -0.285   9.406  21.257  0.00  0.00    +0.000 C 
ATOM      6  C   UNL     1      -0.320  10.913  21.033  0.00  0.00    +0.000 C 
ATOM      7  C   UNL     1      -0.040  11.237  19.566  0.00  0.00    +0.000 C 
ATOM      8  C   UNL     1       1.297  10.643  19.119  0.00  0.00    +0.000 C 
ATOM      9  N   UNL     1      -1.147  10.832  18.721  0.00  0.00    +0.000 N 
ATOM     10  C   UNL     1      -1.763  11.897  18.118  0.00  0.00    +0.000 C 
ATOM     11  O   UNL     1      -2.713  11.824  17.360  0.00  0.00    +0.000 OA
ATOM     12  N   UNL     1      -1.129  13.032  18.503  0.00  0.00    +0.000 N 
ATOM     13  C   UNL     1      -0.077  12.748  19.319  0.00  0.00    +0.000 C 
ATOM     14  O   UNL     1       0.690  13.573  19.792  0.00  0.00    +0.000 OA
ATOM     15  H   UNL     1      -1.415   9.877  18.514  0.00  0.00    +0.000 HD
ATOM     16  H   UNL     1      -1.375  13.951  18.176  0.00  0.00    +0.000 HD
ENDROOT
BRANCH   1  25
ATOM     17  C   UNL     1       2.435   1.918  19.058  0.00  0.00    +0.000 C 
ATOM     18  C   UNL     1       3.231   2.965  19.837  0.00  0.00    +0.000 C 
ATOM     19  C   UNL     1       4.711   2.598  19.925  0.00  0.00    +0.000 C 
ATOM     20  C   UNL     1       2.637   3.129  21.257  0.00  0.00    +0.000 C 
ATOM     21  O   UNL     1       2.585   2.281  22.134  0.00  0.00    +0.000 OA
ATOM     22  N   UNL     1       2.158   4.430  21.365  0.00  0.00    +0.000 N 
ATOM     23  C   UNL     1       2.378   5.152  20.202  0.00  0.00    +0.000 A 
ATOM     24  C   UNL     1       2.038   6.464  19.951  0.00  0.00    +0.000 A 
ATOM     25  C   UNL     1       2.353   6.982  18.683  0.00  0.00    +0.000 A 
ATOM     26  C   UNL     1       2.920   6.143  17.701  0.00  0.00    +0.000 A 
ATOM     27  C   UNL     1       3.297   4.830  17.997  0.00  0.00    +0.000 A 
ATOM     28  C   UNL     1       3.014   4.345  19.259  0.00  0.00    +0.000 A 
ATOM     29  H   UNL     1       1.705   4.775  22.198  0.00  0.00    +0.000 HD
ENDBRANCH   1  25
TORSDOF 1
ENDMDL
MODEL 3
REMARK VINA RESULT:      -8.2      2.760      9.083
REMARK  Name = 
REMARK  3 active torsions:
REMARK  status: ('A' for Active; 'I' for Inactive)
REMARK    1  A    between atoms: C_1  and  C_2
REMARK    2  A    between atoms: C_2  and  C_3
REMARK    3  A    between atoms: C_9  and  C_10
REMARK                            x       y       z     vdW  Elec       q    Type
REMARK                         _______ _______ _______ _____ _____    ______ ____
ROOT
ATOM      1  C   UNL     1       0.772  10.002  20.510  0.00  0.00    +0.000 C 
ATOM      2  O   UNL     1       1.339  10.551  21.456  0.00  0.00    +0.000 OA
ATOM      3  N   UNL     1      -0.396  10.526  19.936  0.00  0.00    +0.000 N 
ATOM      4  C   UNL     1      -1.132   9.945  18.808  0.00  0.00    +0.000 C 
ATOM      5  C   UNL     1      -1.798  10.979  17.903  0.00  0.00    +0.000 C 
ATOM      6  C   UNL     1      -2.567  12.034  18.690  0.00  0.00    +0.000 C 
ATOM      7  C   UNL     1      -1.671  12.651  19.763  0.00  0.00    +0.000 C 
ATOM      8  C   UNL     1      -1.104  11.574  20.690  0.00  0.00    +0.000 C 
ATOM      9  N   UNL     1      -0.641  13.482  19.169  0.00  0.00    +0.000 N 
ATOM     10  C   UNL     1      -0.775  14.803  19.507  0.00  0.00    +0.000 C 
ATOM     11  O   UNL     1      -0.039  15.701  19.142  0.00  0.00    +0.000 OA
ATOM     12  N   UNL     1      -1.855  14.931  20.317  0.00  0.00    +0.000 N 
ATOM     13  C   UNL     1      -2.424  13.718  20.562  0.00  0.00    +0.000 C 
ATOM     14  O   UNL     1      -3.392  13.528  21.282  0.00  0.00    +0.000 OA
ATOM     15  H   UNL     1       0.147  13.151  18.627  0.00  0.00    +0.000 HD
ATOM     16  H   UNL     1      -2.152  15.802  20.724  0.00  0.00    +0.000 HD
ENDROOT
BRANCH   1  25
ATOM     17  C   UNL     1       2.417   4.361  17.657  0.00  0.00    +0.000 C 
ATOM     18  C   UNL     1       3.182   5.072  18.773  0.00  0.00    +0.000 C 
ATOM     19  C   UNL     1       4.684   5.104  18.497  0.00  0.00    +0.000 C 
ATOM     20  C   UNL     1       2.904   4.376  20.128  0.00  0.00    +0.000 C 
ATOM     21  O   UNL     1       3.193   3.231  20.438  0.00  0.00    +0.000 OA
ATOM     22  N   UNL     1       2.252   5.292  20.946  0.00  0.00    +0.000 N 
ATOM     23  C   UNL     1       2.081   6.512  20.309  0.00  0.00    +0.000 A 
ATOM     24  C   UNL     1       1.480   7.646  20.813  0.00  0.00    +0.000 A 
ATOM     25  C   UNL     1       1.410   8.768  19.971  0.00  0.00    +0.000 A 
ATOM     26  C   UNL     1       1.874   8.682  18.642  0.00  0.00    +0.000 A 
ATOM     27  C   UNL     1       2.520   7.536  18.171  0.00  0.00    +0.000 A 
ATOM     28  C   UNL     1       2.613   6.451  19.022  0.00  0.00    +0.000 A 
ATOM     29  H   UNL     1       1.947   5.066  21.881  0.00  0.00    +0.000 HD
ENDBRANCH   1  25
TORSDOF 1
ENDMDL
MODEL 4
REMARK VINA RESULT:      -8.2      1.340      1.869
REMARK  Name = 
REMARK  3 active torsions:
REMARK  status: ('A' for Active; 'I' for Inactive)
REMARK    1  A    between atoms: C_1  and  C_2
REMARK    2  A    between atoms: C_2  and  C_3
REMARK    3  A    between atoms: C_9  and  C_10
REMARK                            x       y       z     vdW  Elec       q    Type
REMARK                         _______ _______ _______ _____ _____    ______ ____
ROOT
ATOM      1  C   UNL     1       3.085   6.208  19.102  0.00  0.00    +0.000 C 
ATOM      2  O   UNL     1       4.266   6.370  18.794  0.00  0.00    +0.000 OA
ATOM      3  N   UNL     1       2.495   4.936  19.149  0.00  0.00    +0.000 N 
ATOM      4  C   UNL     1       1.102   4.649  19.509  0.00  0.00    +0.000 C 
ATOM      5  C   UNL     1       0.910   3.320  20.235  0.00  0.00    +0.000 C 
ATOM      6  C   UNL     1       1.641   2.170  19.551  0.00  0.00    +0.000 C 
ATOM      7  C   UNL     1       3.107   2.534  19.326  0.00  0.00    +0.000 C 
ATOM      8  C   UNL     1       3.233   3.828  18.519  0.00  0.00    +0.000 C 
ATOM      9  N   UNL     1       3.833   2.581  20.581  0.00  0.00    +0.000 N 
ATOM     10  C   UNL     1       4.805   1.618  20.660  0.00  0.00    +0.000 C 
ATOM     11  O   UNL     1       5.552   1.449  21.605  0.00  0.00    +0.000 OA
ATOM     12  N   UNL     1       4.792   0.902  19.508  0.00  0.00    +0.000 N 
ATOM     13  C   UNL     1       3.860   1.389  18.643  0.00  0.00    +0.000 C 
ATOM     14  O   UNL     1       3.650   0.959  17.520  0.00  0.00    +0.000 OA
ATOM     15  H   UNL     1       3.716   3.277  21.307  0.00  0.00    +0.000 HD
ATOM     16  H   UNL     1       5.431   0.151  19.307  0.00  0.00    +0.000 HD
ENDROOT
BRANCH   1  25
ATOM     17  C   UNL     1      -1.318  10.826  20.500  0.00  0.00    +0.000 C 
ATOM     18  C   UNL     1       0.150  11.050  20.139  0.00  0.00    +0.000 C 
ATOM     19  C   UNL     1       0.811  12.066  21.069  0.00  0.00    +0.000 C 
ATOM     20  C   UNL     1       0.266  11.520  18.668  0.00  0.00    +0.000 C 
ATOM     21  O   UNL     1      -0.177  12.552  18.190  0.00  0.00    +0.000 OA
ATOM     22  N   UNL     1       0.968  10.544  17.969  0.00  0.00    +0.000 N 
ATOM     23  C   UNL     1       1.348   9.499  18.797  0.00  0.00    +0.000 A 
ATOM     24  C   UNL     1       2.054   8.366  18.449  0.00  0.00    +0.000 A 
ATOM     25  C   UNL     1       2.313   7.430  19.464  0.00  0.00    +0.000 A 
ATOM     26  C   UNL     1       1.788   7.631  20.758  0.00  0.00    +0.000 A 
ATOM     27  C   UNL     1       1.116   8.808  21.095  0.00  0.00    +0.000 A 
ATOM     28  C   UNL     1       0.899   9.737  20.095  0.00  0.00    +0.000 A 
ATOM     29  H   UNL     1       1.157  10.614  16.980  0.00  0.00    +0.000 HD
ENDBRANCH   1  25
TORSDOF 1
ENDMDL
MODEL 5
REMARK VINA RESULT:      -8.1      2.350      8.470
REMARK  Name = 
REMARK  3 active torsions:
REMARK  status: ('A' for Active; 'I' for Inactive)
REMARK    1  A    between atoms: C_1  and  C_2
REMARK    2  A    between atoms: C_2  and  C_3
REMARK    3  A    between atoms: C_9  and  C_10
REMARK                            x       y       z     vdW  Elec       q    Type
REMARK                         _______ _______ _______ _____ _____    ______ ____
ROOT
ATOM      1  C   UNL     1       1.965   8.751  18.206  0.00  0.00    +0.000 C 
ATOM      2  O   UNL     1       2.094   9.344  17.134  0.00  0.00    +0.000 OA
ATOM      3  N   UNL     1       1.325   9.337  19.308  0.00  0.00    +0.000 N 
ATOM      4  C   UNL     1       1.123   8.707  20.617  0.00  0.00    +0.000 C 
ATOM      5  C   UNL     1      -0.171   9.123  21.313  0.00  0.00    +0.000 C 
ATOM      6  C   UNL     1      -0.385  10.632  21.292  0.00  0.00    +0.000 C 
ATOM      7  C   UNL     1      -0.263  11.165  19.866  0.00  0.00    +0.000 C 
ATOM      8  C   UNL     1       1.088  10.790  19.255  0.00  0.00    +0.000 C 
ATOM      9  N   UNL     1      -1.386  10.741  19.052  0.00  0.00    +0.000 N 
ATOM     10  C   UNL     1      -2.159  11.793  18.637  0.00  0.00    +0.000 C 
ATOM     11  O   UNL     1      -3.155  11.705  17.943  0.00  0.00    +0.000 OA
ATOM     12  N   UNL     1      -1.621  12.939  19.125  0.00  0.00    +0.000 N 
ATOM     13  C   UNL     1      -0.481  12.680  19.824  0.00  0.00    +0.000 C 
ATOM     14  O   UNL     1       0.230  13.523  20.348  0.00  0.00    +0.000 OA
ATOM     15  H   UNL     1      -1.567   9.795  18.739  0.00  0.00    +0.000 HD
ATOM     16  H   UNL     1      -1.989  13.856  18.940  0.00  0.00    +0.000 HD
ENDROOT
BRANCH   1  25
ATOM     17  C   UNL     1       4.070   2.646  17.226  0.00  0.00    +0.000 C 
ATOM     18  C   UNL     1       3.636   3.255  18.559  0.00  0.00    +0.000 C 
ATOM     19  C   UNL     1       4.609   2.905  19.683  0.00  0.00    +0.000 C 
ATOM     20  C   UNL     1       2.210   2.770  18.919  0.00  0.00    +0.000 C 
ATOM     21  O   UNL     1       1.860   1.622  19.144  0.00  0.00    +0.000 OA
ATOM     22  N   UNL     1       1.379   3.885  18.939  0.00  0.00    +0.000 N 
ATOM     23  C   UNL     1       2.080   5.047  18.656  0.00  0.00    +0.000 A 
ATOM     24  C   UNL     1       1.584   6.332  18.589  0.00  0.00    +0.000 A 
ATOM     25  C   UNL     1       2.489   7.358  18.269  0.00  0.00    +0.000 A 
ATOM     26  C   UNL     1       3.828   7.044  17.955  0.00  0.00    +0.000 A 
ATOM     27  C   UNL     1       4.315   5.740  18.076  0.00  0.00    +0.000 A 
ATOM     28  C   UNL     1       3.421   4.745  18.426  0.00  0.00    +0.000 A 
ATOM     29  H   UNL     1       0.391   3.823  19.132  0.00  0.00    +0.000 HD
ENDBRANCH   1  25
TORSDOF 1
ENDMDL
MODEL 6
REMARK VINA RESULT:      -8.1      2.554      8.603
REMARK  Name = 
REMARK  3 active torsions:
REMARK  status: ('A' for Active; 'I' for Inactive)
REMARK    1  A    between atoms: C_1  and  C_2
REMARK    2  A    between atoms: C_2  and  C_3
REMARK    3  A    between atoms: C_9  and  C_10
REMARK                            x       y       z     vdW  Elec       q    Type
REMARK                         _______ _______ _______ _____ _____    ______ ____
ROOT
ATOM      1  C   UNL     1       2.010   8.285  18.332  0.00  0.00    +0.000 C 
ATOM      2  O   UNL     1       2.366   8.581  17.191  0.00  0.00    +0.000 OA
ATOM      3  N   UNL     1       1.348   9.198  19.167  0.00  0.00    +0.000 N 
ATOM      4  C   UNL     1       0.885   8.932  20.533  0.00  0.00    +0.000 C 
ATOM      5  C   UNL     1      -0.395   9.673  20.909  0.00  0.00    +0.000 C 
ATOM      6  C   UNL     1      -0.348  11.149  20.529  0.00  0.00    +0.000 C 
ATOM      7  C   UNL     1       0.035  11.304  19.058  0.00  0.00    +0.000 C 
ATOM      8  C   UNL     1       1.368  10.614  18.763  0.00  0.00    +0.000 C 
ATOM      9  N   UNL     1      -1.037  10.855  18.189  0.00  0.00    +0.000 N 
ATOM     10  C   UNL     1      -1.565  11.873  17.440  0.00  0.00    +0.000 C 
ATOM     11  O   UNL     1      -2.469  11.757  16.634  0.00  0.00    +0.000 OA
ATOM     12  N   UNL     1      -0.905  13.017  17.746  0.00  0.00    +0.000 N 
ATOM     13  C   UNL     1       0.082  12.780  18.655  0.00  0.00    +0.000 C 
ATOM     14  O   UNL     1       0.855  13.620  19.089  0.00  0.00    +0.000 OA
ATOM     15  H   UNL     1      -1.335   9.895  18.065  0.00  0.00    +0.000 HD
ATOM     16  H   UNL     1      -1.088  13.905  17.311  0.00  0.00    +0.000 HD
ENDROOT
BRANCH   1  25
ATOM     17  C   UNL     1       4.369   2.594  20.504  0.00  0.00    +0.000 C 
ATOM     18  C   UNL     1       3.097   2.796  19.682  0.00  0.00    +0.000 C 
ATOM     19  C   UNL     1       1.930   1.984  20.240  0.00  0.00    +0.000 C 
ATOM     20  C   UNL     1       3.357   2.410  18.206  0.00  0.00    +0.000 C 
ATOM     21  O   UNL     1       3.652   1.305  17.777  0.00  0.00    +0.000 OA
ATOM     22  N   UNL     1       3.198   3.557  17.437  0.00  0.00    +0.000 N 
ATOM     23  C   UNL     1       2.848   4.648  18.216  0.00  0.00    +0.000 A 
ATOM     24  C   UNL     1       2.610   5.940  17.796  0.00  0.00    +0.000 A 
ATOM     25  C   UNL     1       2.280   6.889  18.777  0.00  0.00    +0.000 A 
ATOM     26  C   UNL     1       2.278   6.521  20.140  0.00  0.00    +0.000 A 
ATOM     27  C   UNL     1       2.476   5.196  20.534  0.00  0.00    +0.000 A 
ATOM     28  C   UNL     1       2.766   4.266  19.554  0.00  0.00    +0.000 A 
ATOM     29  H   UNL     1       3.335   3.564  16.437  0.00  0.00    +0.000 HD
ENDBRANCH   1  25
TORSDOF 1
ENDMDL
MODEL 7
REMARK VINA RESULT:      -8.0      2.722      8.733
REMARK  Name = 
REMARK  3 active torsions:
REMARK  status: ('A' for Active; 'I' for Inactive)
REMARK    1  A    between atoms: C_1  and  C_2
REMARK    2  A    between atoms: C_2  and  C_3
REMARK    3  A    between atoms: C_9  and  C_10
REMARK                            x       y       z     vdW  Elec       q    Type
REMARK                         _______ _______ _______ _____ _____    ______ ____
ROOT
ATOM      1  C   UNL     1       1.843   9.170  18.469  0.00  0.00    +0.000 C 
ATOM      2  O   UNL     1       1.936   9.837  17.438  0.00  0.00    +0.000 OA
ATOM      3  N   UNL     1       1.191   9.653  19.613  0.00  0.00    +0.000 N 
ATOM      4  C   UNL     1       1.028   8.929  20.878  0.00  0.00    +0.000 C 
ATOM      5  C   UNL     1      -0.274   9.243  21.610  0.00  0.00    +0.000 C 
ATOM      6  C   UNL     1      -0.550  10.740  21.694  0.00  0.00    +0.000 C 
ATOM      7  C   UNL     1      -0.464  11.372  20.306  0.00  0.00    +0.000 C 
ATOM      8  C   UNL     1       0.895  11.095  19.660  0.00  0.00    +0.000 C 
ATOM      9  N   UNL     1      -1.577  10.958  19.473  0.00  0.00    +0.000 N 
ATOM     10  C   UNL     1      -2.397  12.004  19.137  0.00  0.00    +0.000 C 
ATOM     11  O   UNL     1      -3.395  11.922  18.446  0.00  0.00    +0.000 OA
ATOM     12  N   UNL     1      -1.900  13.135  19.697  0.00  0.00    +0.000 N 
ATOM     13  C   UNL     1      -0.743  12.876  20.368  0.00  0.00    +0.000 C 
ATOM     14  O   UNL     1      -0.062  13.711  20.943  0.00  0.00    +0.000 OA
ATOM     15  H   UNL     1      -1.723  10.029  19.099  0.00  0.00    +0.000 HD
ATOM     16  H   UNL     1      -2.307  14.047  19.577  0.00  0.00    +0.000 HD
ENDROOT
BRANCH   1  25
ATOM     17  C   UNL     1       5.162   3.594  19.221  0.00  0.00    +0.000 C 
ATOM     18  C   UNL     1       4.290   3.979  18.026  0.00  0.00    +0.000 C 
ATOM     19  C   UNL     1       3.382   2.828  17.597  0.00  0.00    +0.000 C 
ATOM     20  C   UNL     1       5.184   4.422  16.843  0.00  0.00    +0.000 C 
ATOM     21  O   UNL     1       5.994   3.738  16.238  0.00  0.00    +0.000 OA
ATOM     22  N   UNL     1       4.907   5.760  16.584  0.00  0.00    +0.000 N 
ATOM     23  C   UNL     1       3.928   6.251  17.435  0.00  0.00    +0.000 A 
ATOM     24  C   UNL     1       3.405   7.526  17.467  0.00  0.00    +0.000 A 
ATOM     25  C   UNL     1       2.423   7.798  18.434  0.00  0.00    +0.000 A 
ATOM     26  C   UNL     1       2.066   6.807  19.372  0.00  0.00    +0.000 A 
ATOM     27  C   UNL     1       2.577   5.510  19.289  0.00  0.00    +0.000 A 
ATOM     28  C   UNL     1       3.517   5.247  18.310  0.00  0.00    +0.000 A 
ATOM     29  H   UNL     1       5.380   6.284  15.863  0.00  0.00    +0.000 HD
ENDBRANCH   1  25
TORSDOF 1
ENDMDL
MODEL 8
REMARK VINA RESULT:      -8.0      2.268      2.974
REMARK  Name = 
REMARK  3 active torsions:
REMARK  status: ('A' for Active; 'I' for Inactive)
REMARK    1  A    between atoms: C_1  and  C_2
REMARK    2  A    between atoms: C_2  and  C_3
REMARK    3  A    between atoms: C_9  and  C_10
REMARK                            x       y       z     vdW  Elec       q    Type
REMARK                         _______ _______ _______ _____ _____    ______ ____
ROOT
ATOM      1  C   UNL     1       2.028   8.083  18.941  0.00  0.00    +0.000 C 
ATOM      2  O   UNL     1       2.589   8.522  17.936  0.00  0.00    +0.000 OA
ATOM      3  N   UNL     1       2.118   6.733  19.314  0.00  0.00    +0.000 N 
ATOM      4  C   UNL     1       1.490   6.126  20.492  0.00  0.00    +0.000 C 
ATOM      5  C   UNL     1       2.300   4.988  21.109  0.00  0.00    +0.000 C 
ATOM      6  C   UNL     1       2.794   3.992  20.066  0.00  0.00    +0.000 C 
ATOM      7  C   UNL     1       3.529   4.722  18.943  0.00  0.00    +0.000 C 
ATOM      8  C   UNL     1       2.637   5.791  18.308  0.00  0.00    +0.000 C 
ATOM      9  N   UNL     1       4.798   5.251  19.407  0.00  0.00    +0.000 N 
ATOM     10  C   UNL     1       5.869   4.665  18.785  0.00  0.00    +0.000 C 
ATOM     11  O   UNL     1       7.037   4.934  18.992  0.00  0.00    +0.000 OA
ATOM     12  N   UNL     1       5.401   3.750  17.900  0.00  0.00    +0.000 N 
ATOM     13  C   UNL     1       4.039   3.738  17.888  0.00  0.00    +0.000 C 
ATOM     14  O   UNL     1       3.348   3.035  17.166  0.00  0.00    +0.000 OA
ATOM     15  H   UNL     1       4.917   6.019  20.057  0.00  0.00    +0.000 HD
ATOM     16  H   UNL     1       5.989   3.200  17.297  0.00  0.00    +0.000 HD
ENDROOT
BRANCH   1  25
ATOM     17  C   UNL     1      -1.926  11.369  22.969  0.00  0.00    +0.000 C 
ATOM     18  C   UNL     1      -1.083  11.961  21.841  0.00  0.00    +0.000 C 
ATOM     19  C   UNL     1      -0.356  13.229  22.286  0.00  0.00    +0.000 C 
ATOM     20  C   UNL     1      -1.980  12.263  20.616  0.00  0.00    +0.000 C 
ATOM     21  O   UNL     1      -2.905  13.059  20.561  0.00  0.00    +0.000 OA
ATOM     22  N   UNL     1      -1.549  11.455  19.570  0.00  0.00    +0.000 N 
ATOM     23  C   UNL     1      -0.469  10.671  19.943  0.00  0.00    +0.000 A 
ATOM     24  C   UNL     1       0.214   9.757  19.169  0.00  0.00    +0.000 A 
ATOM     25  C   UNL     1       1.277   9.065  19.772  0.00  0.00    +0.000 A 
ATOM     26  C   UNL     1       1.558   9.261  21.141  0.00  0.00    +0.000 A 
ATOM     27  C   UNL     1       0.881  10.226  21.890  0.00  0.00    +0.000 A 
ATOM     28  C   UNL     1      -0.139  10.925  21.274  0.00  0.00    +0.000 A 
ATOM     29  H   UNL     1      -1.993  11.457  18.663  0.00  0.00    +0.000 HD
ENDBRANCH   1  25
TORSDOF 1
ENDMDL
MODEL 9
REMARK VINA RESULT:      -8.0      2.209      8.413
REMARK  Name = 
REMARK  3 active torsions:
REMARK  status: ('A' for Active; 'I' for Inactive)
REMARK    1  A    between atoms: C_1  and  C_2
REMARK    2  A    between atoms: C_2  and  C_3
REMARK    3  A    between atoms: C_9  and  C_10
REMARK                            x       y       z     vdW  Elec       q    Type
REMARK                         _______ _______ _______ _____ _____    ______ ____
ROOT
ATOM      1  C   UNL     1       2.183   8.029  18.240  0.00  0.00    +0.000 C 
ATOM      2  O   UNL     1       2.491   8.534  17.159  0.00  0.00    +0.000 OA
ATOM      3  N   UNL     1       1.654   8.791  19.293  0.00  0.00    +0.000 N 
ATOM      4  C   UNL     1       1.255   8.276  20.608  0.00  0.00    +0.000 C 
ATOM      5  C   UNL     1       0.067   9.009  21.227  0.00  0.00    +0.000 C 
ATOM      6  C   UNL     1       0.215  10.524  21.155  0.00  0.00    +0.000 C 
ATOM      7  C   UNL     1       0.518  10.959  19.722  0.00  0.00    +0.000 C 
ATOM      8  C   UNL     1       1.767  10.255  19.188  0.00  0.00    +0.000 C 
ATOM      9  N   UNL     1      -0.639  10.778  18.865  0.00  0.00    +0.000 N 
ATOM     10  C   UNL     1      -1.125  11.965  18.385  0.00  0.00    +0.000 C 
ATOM     11  O   UNL     1      -2.084  12.085  17.645  0.00  0.00    +0.000 OA
ATOM     12  N   UNL     1      -0.353  12.971  18.866  0.00  0.00    +0.000 N 
ATOM     13  C   UNL     1       0.665  12.480  19.627  0.00  0.00    +0.000 C 
ATOM     14  O   UNL     1       1.532  13.153  20.162  0.00  0.00    +0.000 OA
ATOM     15  H   UNL     1      -1.024   9.889  18.571  0.00  0.00    +0.000 HD
ATOM     16  H   UNL     1      -0.487  13.941  18.638  0.00  0.00    +0.000 HD
ENDROOT
BRANCH   1  25
ATOM     17  C   UNL     1       2.098   1.669  19.724  0.00  0.00    +0.000 C 
ATOM     18  C   UNL     1       3.185   2.406  18.943  0.00  0.00    +0.000 C 
ATOM     19  C   UNL     1       3.614   1.625  17.702  0.00  0.00    +0.000 C 
ATOM     20  C   UNL     1       4.407   2.665  19.857  0.00  0.00    +0.000 C 
ATOM     21  O   UNL     1       5.124   1.826  20.380  0.00  0.00    +0.000 OA
ATOM     22  N   UNL     1       4.549   4.042  19.989  0.00  0.00    +0.000 N 
ATOM     23  C   UNL     1       3.587   4.725  19.261  0.00  0.00    +0.000 A 
ATOM     24  C   UNL     1       3.424   6.090  19.158  0.00  0.00    +0.000 A 
ATOM     25  C   UNL     1       2.361   6.556  18.367  0.00  0.00    +0.000 A 
ATOM     26  C   UNL     1       1.465   5.637  17.780  0.00  0.00    +0.000 A 
ATOM     27  C   UNL     1       1.680   4.260  17.862  0.00  0.00    +0.000 A 
ATOM     28  C   UNL     1       2.751   3.816  18.615  0.00  0.00    +0.000 A 
ATOM     29  H   UNL     1       5.270   4.462  20.557  0.00  0.00    +0.000 HD
ENDBRANCH   1  25
TORSDOF 1
ENDMDL
