MODEL 1
REMARK VINA RESULT:      -9.6      0.000      0.000
REMARK  Name = 
REMARK  4 active torsions:
REMARK  status: ('A' for Active; 'I' for Inactive)
REMARK    1  A    between atoms: C_2  and  C_15
REMARK    2  A    between atoms: N_3  and  C_4
REMARK    3  A    between atoms: C_8  and  C_9
REMARK    4  A    between atoms: C_21  and  O_22
REMARK                            x       y       z     vdW  Elec       q    Type
REMARK                         _______ _______ _______ _____ _____    ______ ____
ROOT
ATOM      1  O   UNL     1       4.010   6.079  17.136  0.00  0.00    +0.000 OA
ATOM      2  C   UNL     1       3.958   4.855  17.274  0.00  0.00    +0.000 C 
ATOM      3  N   UNL     1       4.687   3.958  16.519  0.00  0.00    +0.000 N 
ATOM      4  H   UNL     1       4.636   2.970  16.724  0.00  0.00    +0.000 HD
ENDROOT
BRANCH   2   5
ATOM      5  C   UNL     1       3.079   4.244  18.383  0.00  0.00    +0.000 C 
ATOM      6  C   UNL     1       4.001   3.412  19.318  0.00  0.00    +0.000 C 
ATOM      7  C   UNL     1       3.204   2.754  20.448  0.00  0.00    +0.000 C 
ATOM      8  C   UNL     1       2.517   3.854  21.270  0.00  0.00    +0.000 C 
ATOM      9  C   UNL     1       1.571   4.672  20.375  0.00  0.00    +0.000 C 
ATOM     10  C   UNL     1       0.515   3.728  19.775  0.00  0.00    +0.000 C 
ATOM     11  C   UNL     1       1.202   2.639  18.933  0.00  0.00    +0.000 C 
ATOM     12  C   UNL     1       2.150   1.827  19.830  0.00  0.00    +0.000 C 
ATOM     13  C   UNL     1       2.005   3.301  17.798  0.00  0.00    +0.000 C 
ATOM     14  C   UNL     1       2.376   5.327  19.231  0.00  0.00    +0.000 C 
BRANCH  11  15
ATOM     15  O   UNL     1       0.218   1.786  18.363  0.00  0.00    +0.000 OA
ATOM     16  H   UNL     1      -0.637   2.251  18.393  0.00  0.00    +0.000 HD
ENDBRANCH  11  15
ENDBRANCH   2   5
BRANCH   3  17
ATOM     17  C   UNL     1       5.626   4.347  15.565  0.00  0.00    +0.000 A 
ATOM     18  C   UNL     1       5.647   3.983  14.239  0.00  0.00    +0.000 A 
ATOM     19  N   UNL     1       6.736   4.573  13.689  0.00  0.00    +0.000 N 
ATOM     20  N   UNL     1       7.449   5.298  14.559  0.00  0.00    +0.000 NA
ATOM     21  C   UNL     1       6.785   5.180  15.724  0.00  0.00    +0.000 A 
ATOM     22  H   UNL     1       7.059   4.514  12.729  0.00  0.00    +0.000 HD
BRANCH  21  23
ATOM     23  C   UNL     1       7.288   5.855  16.926  0.00  0.00    +0.000 A 
ATOM     24  C   UNL     1       7.587   5.152  18.101  0.00  0.00    +0.000 A 
ATOM     25  C   UNL     1       8.130   5.817  19.205  0.00  0.00    +0.000 A 
ATOM     26  C   UNL     1       8.354   7.193  19.154  0.00  0.00    +0.000 A 
ATOM     27  C   UNL     1       8.014   7.910  18.010  0.00  0.00    +0.000 A 
ATOM     28  C   UNL     1       7.481   7.246  16.905  0.00  0.00    +0.000 A 
ENDBRANCH  21  23
ENDBRANCH   3  17
TORSDOF 4
ENDMDL
MODEL 2
REMARK VINA RESULT:      -9.5      1.163      2.025
REMARK  Name = 
REMARK  4 active torsions:
REMARK  status: ('A' for Active; 'I' for Inactive)
REMARK    1  A    between atoms: C_2  and  C_15
REMARK    2  A    between atoms: N_3  and  C_4
REMARK    3  A    between atoms: C_8  and  C_9
REMARK    4  A    between atoms: C_21  and  O_22
REMARK                            x       y       z     vdW  Elec       q    Type
REMARK                         _______ _______ _______ _____ _____    ______ ____
ROOT
ATOM      1  O   UNL     1       4.030   5.911  16.996  0.00  0.00    +0.000 OA
ATOM      2  C   UNL     1       4.028   4.683  17.105  0.00  0.00    +0.000 C 
ATOM      3  N   UNL     1       4.804   3.836  16.341  0.00  0.00    +0.000 N 
ATOM      4  H   UNL     1       4.792   2.842  16.522  0.00  0.00    +0.000 HD
ENDROOT
BRANCH   2   5
ATOM      5  C   UNL     1       3.159   4.010  18.185  0.00  0.00    +0.000 C 
ATOM      6  C   UNL     1       1.673   4.127  17.742  0.00  0.00    +0.000 C 
ATOM      7  C   UNL     1       0.732   3.491  18.769  0.00  0.00    +0.000 C 
ATOM      8  C   UNL     1       1.096   2.006  18.917  0.00  0.00    +0.000 C 
ATOM      9  C   UNL     1       2.553   1.863  19.389  0.00  0.00    +0.000 C 
ATOM     10  C   UNL     1       2.710   2.580  20.741  0.00  0.00    +0.000 C 
ATOM     11  C   UNL     1       2.367   4.071  20.588  0.00  0.00    +0.000 C 
ATOM     12  C   UNL     1       0.912   4.211  20.112  0.00  0.00    +0.000 C 
ATOM     13  C   UNL     1       3.312   4.710  19.553  0.00  0.00    +0.000 C 
ATOM     14  C   UNL     1       3.499   2.512  18.356  0.00  0.00    +0.000 C 
BRANCH  11  15
ATOM     15  O   UNL     1       2.539   4.730  21.835  0.00  0.00    +0.000 OA
ATOM     16  H   UNL     1       2.726   4.054  22.510  0.00  0.00    +0.000 HD
ENDBRANCH  11  15
ENDBRANCH   2   5
BRANCH   3  17
ATOM     17  C   UNL     1       5.740   4.286  15.411  0.00  0.00    +0.000 A 
ATOM     18  C   UNL     1       5.794   3.956  14.077  0.00  0.00    +0.000 A 
ATOM     19  N   UNL     1       6.866   4.605  13.557  0.00  0.00    +0.000 N 
ATOM     20  N   UNL     1       7.537   5.336  14.456  0.00  0.00    +0.000 NA
ATOM     21  C   UNL     1       6.862   5.162  15.608  0.00  0.00    +0.000 A 
ATOM     22  H   UNL     1       7.205   4.582  12.602  0.00  0.00    +0.000 HD
BRANCH  21  23
ATOM     23  C   UNL     1       7.319   5.827  16.832  0.00  0.00    +0.000 A 
ATOM     24  C   UNL     1       7.599   5.111  18.004  0.00  0.00    +0.000 A 
ATOM     25  C   UNL     1       8.101   5.767  19.132  0.00  0.00    +0.000 A 
ATOM     26  C   UNL     1       8.300   7.147  19.109  0.00  0.00    +0.000 A 
ATOM     27  C   UNL     1       7.977   7.876  17.968  0.00  0.00    +0.000 A 
ATOM     28  C   UNL     1       7.486   7.220  16.839  0.00  0.00    +0.000 A 
ENDBRANCH  21  23
ENDBRANCH   3  17
TORSDOF 4
ENDMDL
MODEL 3
REMARK VINA RESULT:      -9.4      0.977      1.810
REMARK  Name = 
REMARK  4 active torsions:
REMARK  status: ('A' for Active; 'I' for Inactive)
REMARK    1  A    between atoms: C_2  and  C_15
REMARK    2  A    between atoms: N_3  and  C_4
REMARK    3  A    between atoms: C_8  and  C_9
REMARK    4  A    between atoms: C_21  and  O_22
REMARK                            x       y       z     vdW  Elec       q    Type
REMARK                         _______ _______ _______ _____ _____    ______ ____
ROOT
ATOM      1  O   UNL     1       3.931   5.935  17.099  0.00  0.00    +0.000 OA
ATOM      2  C   UNL     1       3.947   4.713  17.258  0.00  0.00    +0.000 C 
ATOM      3  N   UNL     1       4.724   3.845  16.518  0.00  0.00    +0.000 N 
ATOM      4  H   UNL     1       4.727   2.859  16.739  0.00  0.00    +0.000 HD
ENDROOT
BRANCH   2   5
ATOM      5  C   UNL     1       3.102   4.073  18.377  0.00  0.00    +0.000 C 
ATOM      6  C   UNL     1       2.375   5.217  19.139  0.00  0.00    +0.000 C 
ATOM      7  C   UNL     1       1.518   4.669  20.283  0.00  0.00    +0.000 C 
ATOM      8  C   UNL     1       0.470   3.712  19.698  0.00  0.00    +0.000 C 
ATOM      9  C   UNL     1       1.164   2.550  18.967  0.00  0.00    +0.000 C 
ATOM     10  C   UNL     1       2.061   1.800  19.967  0.00  0.00    +0.000 C 
ATOM     11  C   UNL     1       3.124   2.754  20.536  0.00  0.00    +0.000 C 
ATOM     12  C   UNL     1       2.428   3.916  21.261  0.00  0.00    +0.000 C 
ATOM     13  C   UNL     1       3.985   3.306  19.385  0.00  0.00    +0.000 C 
ATOM     14  C   UNL     1       2.034   3.105  17.819  0.00  0.00    +0.000 C 
BRANCH  11  15
ATOM     15  O   UNL     1       3.964   2.047  21.439  0.00  0.00    +0.000 OA
ATOM     16  H   UNL     1       4.508   2.699  21.917  0.00  0.00    +0.000 HD
ENDBRANCH  11  15
ENDBRANCH   2   5
BRANCH   3  17
ATOM     17  C   UNL     1       5.640   4.269  15.556  0.00  0.00    +0.000 A 
ATOM     18  C   UNL     1       5.656   3.917  14.227  0.00  0.00    +0.000 A 
ATOM     19  N   UNL     1       6.721   4.544  13.669  0.00  0.00    +0.000 N 
ATOM     20  N   UNL     1       7.424   5.281  14.538  0.00  0.00    +0.000 NA
ATOM     21  C   UNL     1       6.777   5.134  15.710  0.00  0.00    +0.000 A 
ATOM     22  H   UNL     1       7.035   4.502  12.706  0.00  0.00    +0.000 HD
BRANCH  21  23
ATOM     23  C   UNL     1       7.274   5.812  16.911  0.00  0.00    +0.000 A 
ATOM     24  C   UNL     1       7.580   5.111  18.086  0.00  0.00    +0.000 A 
ATOM     25  C   UNL     1       8.118   5.779  19.190  0.00  0.00    +0.000 A 
ATOM     26  C   UNL     1       8.329   7.157  19.140  0.00  0.00    +0.000 A 
ATOM     27  C   UNL     1       7.982   7.872  17.997  0.00  0.00    +0.000 A 
ATOM     28  C   UNL     1       7.454   7.204  16.892  0.00  0.00    +0.000 A 
ENDBRANCH  21  23
ENDBRANCH   3  17
TORSDOF 4
ENDMDL
MODEL 4
REMARK VINA RESULT:      -8.8      0.817      1.141
REMARK  Name = 
REMARK  4 active torsions:
REMARK  status: ('A' for Active; 'I' for Inactive)
REMARK    1  A    between atoms: C_2  and  C_15
REMARK    2  A    between atoms: N_3  and  C_4
REMARK    3  A    between atoms: C_8  and  C_9
REMARK    4  A    between atoms: C_21  and  O_22
REMARK                            x       y       z     vdW  Elec       q    Type
REMARK                         _______ _______ _______ _____ _____    ______ ____
ROOT
ATOM      1  O   UNL     1       4.116   6.029  16.997  0.00  0.00    +0.000 OA
ATOM      2  C   UNL     1       4.030   4.800  17.042  0.00  0.00    +0.000 C 
ATOM      3  N   UNL     1       4.753   3.942  16.238  0.00  0.00    +0.000 N 
ATOM      4  H   UNL     1       4.672   2.944  16.367  0.00  0.00    +0.000 HD
ENDROOT
BRANCH   2   5
ATOM      5  C   UNL     1       3.110   4.133  18.083  0.00  0.00    +0.000 C 
ATOM      6  C   UNL     1       3.465   4.720  19.478  0.00  0.00    +0.000 C 
ATOM      7  C   UNL     1       2.602   4.100  20.581  0.00  0.00    +0.000 C 
ATOM      8  C   UNL     1       1.126   4.392  20.274  0.00  0.00    +0.000 C 
ATOM      9  C   UNL     1       0.740   3.791  18.912  0.00  0.00    +0.000 C 
ATOM     10  C   UNL     1       0.976   2.272  18.955  0.00  0.00    +0.000 C 
ATOM     11  C   UNL     1       2.459   1.979  19.241  0.00  0.00    +0.000 C 
ATOM     12  C   UNL     1       2.843   2.586  20.600  0.00  0.00    +0.000 C 
ATOM     13  C   UNL     1       3.326   2.605  18.132  0.00  0.00    +0.000 C 
ATOM     14  C   UNL     1       1.616   4.411  17.803  0.00  0.00    +0.000 C 
BRANCH  11  15
ATOM     15  O   UNL     1       2.674   0.574  19.254  0.00  0.00    +0.000 OA
ATOM     16  H   UNL     1       2.239   0.211  20.046  0.00  0.00    +0.000 HD
ENDBRANCH  11  15
ENDBRANCH   2   5
BRANCH   3  17
ATOM     17  C   UNL     1       5.724   4.375  15.335  0.00  0.00    +0.000 A 
ATOM     18  C   UNL     1       5.797   4.063  13.999  0.00  0.00    +0.000 A 
ATOM     19  N   UNL     1       6.901   4.683  13.513  0.00  0.00    +0.000 N 
ATOM     20  N   UNL     1       7.574   5.380  14.436  0.00  0.00    +0.000 NA
ATOM     21  C   UNL     1       6.868   5.212  15.570  0.00  0.00    +0.000 A 
ATOM     22  H   UNL     1       7.261   4.663  12.564  0.00  0.00    +0.000 HD
BRANCH  21  23
ATOM     23  C   UNL     1       7.318   5.844  16.815  0.00  0.00    +0.000 A 
ATOM     24  C   UNL     1       7.588   5.098  17.970  0.00  0.00    +0.000 A 
ATOM     25  C   UNL     1       8.083   5.724  19.118  0.00  0.00    +0.000 A 
ATOM     26  C   UNL     1       8.286   7.104  19.131  0.00  0.00    +0.000 A 
ATOM     27  C   UNL     1       7.975   7.862  18.006  0.00  0.00    +0.000 A 
ATOM     28  C   UNL     1       7.490   7.236  16.857  0.00  0.00    +0.000 A 
ENDBRANCH  21  23
ENDBRANCH   3  17
TORSDOF 4
ENDMDL
MODEL 5
REMARK VINA RESULT:      -8.8      4.265      6.346
REMARK  Name = 
REMARK  4 active torsions:
REMARK  status: ('A' for Active; 'I' for Inactive)
REMARK    1  A    between atoms: C_2  and  C_15
REMARK    2  A    between atoms: N_3  and  C_4
REMARK    3  A    between atoms: C_8  and  C_9
REMARK    4  A    between atoms: C_21  and  O_22
REMARK                            x       y       z     vdW  Elec       q    Type
REMARK                         _______ _______ _______ _____ _____    ______ ____
ROOT
ATOM      1  O   UNL     1       3.718   6.960  17.999  0.00  0.00    +0.000 OA
ATOM      2  C   UNL     1       2.748   6.628  18.684  0.00  0.00    +0.000 C 
ATOM      3  N   UNL     1       1.770   7.501  19.116  0.00  0.00    +0.000 N 
ATOM      4  H   UNL     1       0.974   7.149  19.629  0.00  0.00    +0.000 HD
ENDROOT
BRANCH   2   5
ATOM      5  C   UNL     1       2.545   5.148  19.061  0.00  0.00    +0.000 C 
ATOM      6  C   UNL     1       1.759   5.102  20.402  0.00  0.00    +0.000 C 
ATOM      7  C   UNL     1       1.522   3.661  20.861  0.00  0.00    +0.000 C 
ATOM      8  C   UNL     1       0.715   2.926  19.781  0.00  0.00    +0.000 C 
ATOM      9  C   UNL     1       1.487   2.927  18.451  0.00  0.00    +0.000 C 
ATOM     10  C   UNL     1       2.840   2.227  18.662  0.00  0.00    +0.000 C 
ATOM     11  C   UNL     1       3.658   2.975  19.728  0.00  0.00    +0.000 C 
ATOM     12  C   UNL     1       2.882   2.977  21.054  0.00  0.00    +0.000 C 
ATOM     13  C   UNL     1       3.894   4.426  19.266  0.00  0.00    +0.000 C 
ATOM     14  C   UNL     1       1.732   4.381  17.994  0.00  0.00    +0.000 C 
BRANCH  11  15
ATOM     15  O   UNL     1       4.916   2.337  19.899  0.00  0.00    +0.000 OA
ATOM     16  H   UNL     1       4.859   1.763  20.683  0.00  0.00    +0.000 HD
ENDBRANCH  11  15
ENDBRANCH   2   5
BRANCH   3  17
ATOM     17  C   UNL     1       1.731   8.847  18.755  0.00  0.00    +0.000 A 
ATOM     18  C   UNL     1       2.269   9.407  17.620  0.00  0.00    +0.000 A 
ATOM     19  N   UNL     1       2.013  10.737  17.682  0.00  0.00    +0.000 N 
ATOM     20  N   UNL     1       1.351  11.104  18.785  0.00  0.00    +0.000 NA
ATOM     21  C   UNL     1       1.159   9.957  19.464  0.00  0.00    +0.000 A 
ATOM     22  H   UNL     1       2.274  11.454  17.013  0.00  0.00    +0.000 HD
BRANCH  21  23
ATOM     23  C   UNL     1       0.453   9.976  20.750  0.00  0.00    +0.000 A 
ATOM     24  C   UNL     1       0.409   8.853  21.587  0.00  0.00    +0.000 A 
ATOM     25  C   UNL     1      -0.214   8.927  22.838  0.00  0.00    +0.000 A 
ATOM     26  C   UNL     1      -0.821  10.113  23.249  0.00  0.00    +0.000 A 
ATOM     27  C   UNL     1      -0.827  11.220  22.405  0.00  0.00    +0.000 A 
ATOM     28  C   UNL     1      -0.198  11.150  21.161  0.00  0.00    +0.000 A 
ENDBRANCH  21  23
ENDBRANCH   3  17
TORSDOF 4
ENDMDL
MODEL 6
REMARK VINA RESULT:      -8.3      4.185      6.299
REMARK  Name = 
REMARK  4 active torsions:
REMARK  status: ('A' for Active; 'I' for Inactive)
REMARK    1  A    between atoms: C_2  and  C_15
REMARK    2  A    between atoms: N_3  and  C_4
REMARK    3  A    between atoms: C_8  and  C_9
REMARK    4  A    between atoms: C_21  and  O_22
REMARK                            x       y       z     vdW  Elec       q    Type
REMARK                         _______ _______ _______ _____ _____    ______ ____
ROOT
ATOM      1  O   UNL     1       3.863   6.973  17.962  0.00  0.00    +0.000 OA
ATOM      2  C   UNL     1       2.904   6.598  18.639  0.00  0.00    +0.000 C 
ATOM      3  N   UNL     1       1.886   7.427  19.067  0.00  0.00    +0.000 N 
ATOM      4  H   UNL     1       1.102   7.040  19.573  0.00  0.00    +0.000 HD
ENDROOT
BRANCH   2   5
ATOM      5  C   UNL     1       2.761   5.110  19.009  0.00  0.00    +0.000 C 
ATOM      6  C   UNL     1       1.532   4.543  18.242  0.00  0.00    +0.000 C 
ATOM      7  C   UNL     1       1.307   3.063  18.563  0.00  0.00    +0.000 C 
ATOM      8  C   UNL     1       2.560   2.275  18.155  0.00  0.00    +0.000 C 
ATOM      9  C   UNL     1       3.786   2.793  18.926  0.00  0.00    +0.000 C 
ATOM     10  C   UNL     1       3.530   2.628  20.433  0.00  0.00    +0.000 C 
ATOM     11  C   UNL     1       2.288   3.435  20.847  0.00  0.00    +0.000 C 
ATOM     12  C   UNL     1       1.066   2.919  20.071  0.00  0.00    +0.000 C 
ATOM     13  C   UNL     1       2.514   4.924  20.522  0.00  0.00    +0.000 C 
ATOM     14  C   UNL     1       4.006   4.287  18.607  0.00  0.00    +0.000 C 
BRANCH  11  15
ATOM     15  O   UNL     1       2.074   3.298  22.245  0.00  0.00    +0.000 OA
ATOM     16  H   UNL     1       1.809   4.167  22.596  0.00  0.00    +0.000 HD
ENDBRANCH  11  15
ENDBRANCH   2   5
BRANCH   3  17
ATOM     17  C   UNL     1       1.793   8.772  18.710  0.00  0.00    +0.000 A 
ATOM     18  C   UNL     1       2.259   9.346  17.552  0.00  0.00    +0.000 A 
ATOM     19  N   UNL     1       1.970  10.669  17.628  0.00  0.00    +0.000 N 
ATOM     20  N   UNL     1       1.353  11.018  18.764  0.00  0.00    +0.000 NA
ATOM     21  C   UNL     1       1.226   9.866  19.449  0.00  0.00    +0.000 A 
ATOM     22  H   UNL     1       2.178  11.393  16.949  0.00  0.00    +0.000 HD
BRANCH  21  23
ATOM     23  C   UNL     1       0.584   9.864  20.768  0.00  0.00    +0.000 A 
ATOM     24  C   UNL     1       0.953   8.959  21.771  0.00  0.00    +0.000 A 
ATOM     25  C   UNL     1       0.369   9.031  23.040  0.00  0.00    +0.000 A 
ATOM     26  C   UNL     1      -0.607   9.989  23.308  0.00  0.00    +0.000 A 
ATOM     27  C   UNL     1      -1.018  10.862  22.304  0.00  0.00    +0.000 A 
ATOM     28  C   UNL     1      -0.429  10.797  21.041  0.00  0.00    +0.000 A 
ENDBRANCH  21  23
ENDBRANCH   3  17
TORSDOF 4
ENDMDL
MODEL 7
REMARK VINA RESULT:      -8.2      4.224      6.187
REMARK  Name = 
REMARK  4 active torsions:
REMARK  status: ('A' for Active; 'I' for Inactive)
REMARK    1  A    between atoms: C_2  and  C_15
REMARK    2  A    between atoms: N_3  and  C_4
REMARK    3  A    between atoms: C_8  and  C_9
REMARK    4  A    between atoms: C_21  and  O_22
REMARK                            x       y       z     vdW  Elec       q    Type
REMARK                         _______ _______ _______ _____ _____    ______ ____
ROOT
ATOM      1  O   UNL     1       3.478   6.853  17.853  0.00  0.00    +0.000 OA
ATOM      2  C   UNL     1       2.623   6.593  18.702  0.00  0.00    +0.000 C 
ATOM      3  N   UNL     1       1.763   7.525  19.247  0.00  0.00    +0.000 N 
ATOM      4  H   UNL     1       1.050   7.231  19.899  0.00  0.00    +0.000 HD
ENDROOT
BRANCH   2   5
ATOM      5  C   UNL     1       2.431   5.140  19.178  0.00  0.00    +0.000 C 
ATOM      6  C   UNL     1       3.740   4.695  19.890  0.00  0.00    +0.000 C 
ATOM      7  C   UNL     1       3.640   3.250  20.387  0.00  0.00    +0.000 C 
ATOM      8  C   UNL     1       2.472   3.148  21.378  0.00  0.00    +0.000 C 
ATOM      9  C   UNL     1       1.158   3.552  20.688  0.00  0.00    +0.000 C 
ATOM     10  C   UNL     1       0.916   2.614  19.493  0.00  0.00    +0.000 C 
ATOM     11  C   UNL     1       2.076   2.731  18.490  0.00  0.00    +0.000 C 
ATOM     12  C   UNL     1       3.388   2.333  19.184  0.00  0.00    +0.000 C 
ATOM     13  C   UNL     1       2.176   4.185  17.992  0.00  0.00    +0.000 C 
ATOM     14  C   UNL     1       1.262   5.006  20.180  0.00  0.00    +0.000 C 
BRANCH  11  15
ATOM     15  O   UNL     1       1.833   1.880  17.378  0.00  0.00    +0.000 OA
ATOM     16  H   UNL     1       2.142   0.986  17.610  0.00  0.00    +0.000 HD
ENDBRANCH  11  15
ENDBRANCH   2   5
BRANCH   3  17
ATOM     17  C   UNL     1       1.715   8.856  18.833  0.00  0.00    +0.000 A 
ATOM     18  C   UNL     1       2.253   9.375  17.679  0.00  0.00    +0.000 A 
ATOM     19  N   UNL     1       1.987  10.704  17.688  0.00  0.00    +0.000 N 
ATOM     20  N   UNL     1       1.316  11.110  18.773  0.00  0.00    +0.000 NA
ATOM     21  C   UNL     1       1.130   9.988  19.496  0.00  0.00    +0.000 A 
ATOM     22  H   UNL     1       2.244  11.397  16.992  0.00  0.00    +0.000 HD
BRANCH  21  23
ATOM     23  C   UNL     1       0.419  10.052  20.776  0.00  0.00    +0.000 A 
ATOM     24  C   UNL     1       0.534   9.040  21.739  0.00  0.00    +0.000 A 
ATOM     25  C   UNL     1      -0.103   9.166  22.978  0.00  0.00    +0.000 A 
ATOM     26  C   UNL     1      -0.883  10.288  23.254  0.00  0.00    +0.000 A 
ATOM     27  C   UNL     1      -1.045  11.276  22.287  0.00  0.00    +0.000 A 
ATOM     28  C   UNL     1      -0.402  11.156  21.054  0.00  0.00    +0.000 A 
ENDBRANCH  21  23
ENDBRANCH   3  17
TORSDOF 4
ENDMDL
MODEL 8
REMARK VINA RESULT:      -8.2      1.601      3.676
REMARK  Name = 
REMARK  4 active torsions:
REMARK  status: ('A' for Active; 'I' for Inactive)
REMARK    1  A    between atoms: C_2  and  C_15
REMARK    2  A    between atoms: N_3  and  C_4
REMARK    3  A    between atoms: C_8  and  C_9
REMARK    4  A    between atoms: C_21  and  O_22
REMARK                            x       y       z     vdW  Elec       q    Type
REMARK                         _______ _______ _______ _____ _____    ______ ____
ROOT
ATOM      1  O   UNL     1       3.672   6.506  17.850  0.00  0.00    +0.000 OA
ATOM      2  C   UNL     1       4.072   5.369  18.106  0.00  0.00    +0.000 C 
ATOM      3  N   UNL     1       5.354   4.923  17.855  0.00  0.00    +0.000 N 
ATOM      4  H   UNL     1       5.628   3.993  18.140  0.00  0.00    +0.000 HD
ENDROOT
BRANCH   2   5
ATOM      5  C   UNL     1       3.132   4.362  18.798  0.00  0.00    +0.000 C 
ATOM      6  C   UNL     1       1.958   5.163  19.429  0.00  0.00    +0.000 C 
ATOM      7  C   UNL     1       0.977   4.238  20.153  0.00  0.00    +0.000 C 
ATOM      8  C   UNL     1       0.410   3.231  19.141  0.00  0.00    +0.000 C 
ATOM      9  C   UNL     1       1.550   2.401  18.527  0.00  0.00    +0.000 C 
ATOM     10  C   UNL     1       2.285   1.656  19.654  0.00  0.00    +0.000 C 
ATOM     11  C   UNL     1       2.871   2.664  20.656  0.00  0.00    +0.000 C 
ATOM     12  C   UNL     1       1.730   3.496  21.264  0.00  0.00    +0.000 C 
ATOM     13  C   UNL     1       3.856   3.596  19.926  0.00  0.00    +0.000 C 
ATOM     14  C   UNL     1       2.543   3.336  17.804  0.00  0.00    +0.000 C 
BRANCH  11  15
ATOM     15  O   UNL     1       3.569   1.969  21.680  0.00  0.00    +0.000 OA
ATOM     16  H   UNL     1       4.001   1.194  21.277  0.00  0.00    +0.000 HD
ENDBRANCH  11  15
ENDBRANCH   2   5
BRANCH   3  17
ATOM     17  C   UNL     1       6.364   5.742  17.353  0.00  0.00    +0.000 A 
ATOM     18  C   UNL     1       7.052   6.712  18.044  0.00  0.00    +0.000 A 
ATOM     19  N   UNL     1       7.926   7.268  17.170  0.00  0.00    +0.000 N 
ATOM     20  N   UNL     1       7.863   6.743  15.941  0.00  0.00    +0.000 NA
ATOM     21  C   UNL     1       6.910   5.795  16.025  0.00  0.00    +0.000 A 
ATOM     22  H   UNL     1       8.587   8.019  17.342  0.00  0.00    +0.000 HD
BRANCH  21  23
ATOM     23  C   UNL     1       6.563   4.998  14.844  0.00  0.00    +0.000 A 
ATOM     24  C   UNL     1       5.342   4.318  14.742  0.00  0.00    +0.000 A 
ATOM     25  C   UNL     1       5.013   3.625  13.572  0.00  0.00    +0.000 A 
ATOM     26  C   UNL     1       5.913   3.581  12.508  0.00  0.00    +0.000 A 
ATOM     27  C   UNL     1       7.150   4.211  12.617  0.00  0.00    +0.000 A 
ATOM     28  C   UNL     1       7.474   4.910  13.780  0.00  0.00    +0.000 A 
ENDBRANCH  21  23
ENDBRANCH   3  17
TORSDOF 4
ENDMDL
MODEL 9
REMARK VINA RESULT:      -8.1      1.326      3.191
REMARK  Name = 
REMARK  4 active torsions:
REMARK  status: ('A' for Active; 'I' for Inactive)
REMARK    1  A    between atoms: C_2  and  C_15
REMARK    2  A    between atoms: N_3  and  C_4
REMARK    3  A    between atoms: C_8  and  C_9
REMARK    4  A    between atoms: C_21  and  O_22
REMARK                            x       y       z     vdW  Elec       q    Type
REMARK                         _______ _______ _______ _____ _____    ______ ____
ROOT
ATOM      1  O   UNL     1       3.715   6.598  18.058  0.00  0.00    +0.000 OA
ATOM      2  C   UNL     1       4.125   5.468  18.331  0.00  0.00    +0.000 C 
ATOM      3  N   UNL     1       5.398   5.016  18.050  0.00  0.00    +0.000 N 
ATOM      4  H   UNL     1       5.683   4.095  18.352  0.00  0.00    +0.000 HD
ENDROOT
BRANCH   2   5
ATOM      5  C   UNL     1       3.211   4.482  19.083  0.00  0.00    +0.000 C 
ATOM      6  C   UNL     1       4.080   3.272  19.529  0.00  0.00    +0.000 C 
ATOM      7  C   UNL     1       3.244   2.230  20.278  0.00  0.00    +0.000 C 
ATOM      8  C   UNL     1       2.630   2.891  21.521  0.00  0.00    +0.000 C 
ATOM      9  C   UNL     1       1.737   4.071  21.104  0.00  0.00    +0.000 C 
ATOM     10  C   UNL     1       0.622   3.549  20.182  0.00  0.00    +0.000 C 
ATOM     11  C   UNL     1       1.236   2.906  18.927  0.00  0.00    +0.000 C 
ATOM     12  C   UNL     1       2.133   1.731  19.346  0.00  0.00    +0.000 C 
ATOM     13  C   UNL     1       2.078   3.955  18.176  0.00  0.00    +0.000 C 
ATOM     14  C   UNL     1       2.579   5.117  20.343  0.00  0.00    +0.000 C 
BRANCH  11  15
ATOM     15  O   UNL     1       0.200   2.449  18.069  0.00  0.00    +0.000 OA
ATOM     16  H   UNL     1       0.613   2.073  17.271  0.00  0.00    +0.000 HD
ENDBRANCH  11  15
ENDBRANCH   2   5
BRANCH   3  17
ATOM     17  C   UNL     1       6.390   5.821  17.492  0.00  0.00    +0.000 A 
ATOM     18  C   UNL     1       7.101   6.808  18.133  0.00  0.00    +0.000 A 
ATOM     19  N   UNL     1       7.945   7.341  17.214  0.00  0.00    +0.000 N 
ATOM     20  N   UNL     1       7.838   6.783  16.002  0.00  0.00    +0.000 NA
ATOM     21  C   UNL     1       6.889   5.839  16.145  0.00  0.00    +0.000 A 
ATOM     22  H   UNL     1       8.610   8.096  17.342  0.00  0.00    +0.000 HD
BRANCH  21  23
ATOM     23  C   UNL     1       6.501   5.011  14.998  0.00  0.00    +0.000 A 
ATOM     24  C   UNL     1       5.276   4.331  14.956  0.00  0.00    +0.000 A 
ATOM     25  C   UNL     1       4.907   3.607  13.818  0.00  0.00    +0.000 A 
ATOM     26  C   UNL     1       5.769   3.534  12.724  0.00  0.00    +0.000 A 
ATOM     27  C   UNL     1       7.010   4.164  12.774  0.00  0.00    +0.000 A 
ATOM     28  C   UNL     1       7.374   4.894  13.906  0.00  0.00    +0.000 A 
ENDBRANCH  21  23
ENDBRANCH   3  17
TORSDOF 4
ENDMDL
