MODEL 1
REMARK VINA RESULT:      -8.8      0.000      0.000
REMARK  Name = 
REMARK  4 active torsions:
REMARK  status: ('A' for Active; 'I' for Inactive)
REMARK    1  A    between atoms: C_1  and  C_2
REMARK    2  A    between atoms: C_5  and  C_6
REMARK    3  A    between atoms: C_10  and  C_11
REMARK    4  A    between atoms: C_11  and  C_12
REMARK                            x       y       z     vdW  Elec       q    Type
REMARK                         _______ _______ _______ _____ _____    ______ ____
ROOT
ATOM      1  C   UNL     1       5.902   4.876  18.317  0.00  0.00    +0.000 C 
ATOM      2  O   UNL     1       6.439   3.775  18.207  0.00  0.00    +0.000 OA
ATOM      3  N   UNL     1       4.532   5.052  18.531  0.00  0.00    +0.000 N 
ATOM      4  C   UNL     1       3.790   6.322  18.470  0.00  0.00    +0.000 C 
ATOM      5  C   UNL     1       2.352   6.065  18.914  0.00  0.00    +0.000 C 
ATOM      6  C   UNL     1       2.277   4.584  18.687  0.00  0.00    +0.000 A 
ATOM      7  C   UNL     1       1.131   3.813  18.572  0.00  0.00    +0.000 A 
ATOM      8  C   UNL     1       1.279   2.432  18.464  0.00  0.00    +0.000 A 
ATOM      9  C   UNL     1       2.557   1.853  18.500  0.00  0.00    +0.000 A 
ATOM     10  C   UNL     1       3.711   2.649  18.561  0.00  0.00    +0.000 A 
ATOM     11  C   UNL     1       3.560   4.023  18.602  0.00  0.00    +0.000 A 
ENDROOT
BRANCH   1  16
ATOM     12  C   UNL     1       9.094   9.787  18.260  0.00  0.00    +0.000 C 
ATOM     13  C   UNL     1       8.309   8.509  18.186  0.00  0.00    +0.000 A 
ATOM     14  C   UNL     1       7.312   8.316  17.319  0.00  0.00    +0.000 A 
ATOM     15  C   UNL     1       6.608   7.055  17.304  0.00  0.00    +0.000 A 
ATOM     16  C   UNL     1       6.760   6.119  18.260  0.00  0.00    +0.000 A 
ATOM     17  C   UNL     1       7.919   6.321  19.200  0.00  0.00    +0.000 A 
ATOM     18  O   UNL     1       8.243   5.506  20.054  0.00  0.00    +0.000 OA
ATOM     19  N   UNL     1       8.620   7.504  19.068  0.00  0.00    +0.000 N 
ATOM     20  H   UNL     1       9.399   7.612  19.707  0.00  0.00    +0.000 HD
ENDBRANCH   1  16
BRANCH   5  21
ATOM     21  C   UNL     1       2.110   6.451  20.382  0.00  0.00    +0.000 C 
BRANCH  21  22
ATOM     22  C   UNL     1       1.096   7.595  20.585  0.00  0.00    +0.000 C 
ATOM     23  C   UNL     1       1.336   8.713  19.557  0.00  0.00    +0.000 C 
ATOM     24  O   UNL     1       0.590   9.885  19.898  0.00  0.00    +0.000 OA
ATOM     25  C   UNL     1       1.022  10.393  21.159  0.00  0.00    +0.000 C 
ATOM     26  C   UNL     1       0.914   9.387  22.299  0.00  0.00    +0.000 C 
ATOM     27  O   UNL     1       0.721   9.702  23.473  0.00  0.00    +0.000 OA
ATOM     28  N   UNL     1       1.138   8.075  21.966  0.00  0.00    +0.000 N 
ATOM     29  H   UNL     1       0.927   7.448  22.732  0.00  0.00    +0.000 HD
ENDBRANCH  21  22
ENDBRANCH   5  21
TORSDOF 3
ENDMDL
MODEL 2
REMARK VINA RESULT:      -8.6      0.866      1.449
REMARK  Name = 
REMARK  4 active torsions:
REMARK  status: ('A' for Active; 'I' for Inactive)
REMARK    1  A    between atoms: C_1  and  C_2
REMARK    2  A    between atoms: C_5  and  C_6
REMARK    3  A    between atoms: C_10  and  C_11
REMARK    4  A    between atoms: C_11  and  C_12
REMARK                            x       y       z     vdW  Elec       q    Type
REMARK                         _______ _______ _______ _____ _____    ______ ____
ROOT
ATOM      1  C   UNL     1       5.844   4.791  18.327  0.00  0.00    +0.000 C 
ATOM      2  O   UNL     1       6.396   3.694  18.265  0.00  0.00    +0.000 OA
ATOM      3  N   UNL     1       4.468   4.958  18.499  0.00  0.00    +0.000 N 
ATOM      4  C   UNL     1       3.714   6.217  18.380  0.00  0.00    +0.000 C 
ATOM      5  C   UNL     1       2.267   5.958  18.793  0.00  0.00    +0.000 C 
ATOM      6  C   UNL     1       2.214   4.470  18.609  0.00  0.00    +0.000 A 
ATOM      7  C   UNL     1       1.080   3.682  18.487  0.00  0.00    +0.000 A 
ATOM      8  C   UNL     1       1.246   2.301  18.424  0.00  0.00    +0.000 A 
ATOM      9  C   UNL     1       2.528   1.737  18.512  0.00  0.00    +0.000 A 
ATOM     10  C   UNL     1       3.671   2.548  18.579  0.00  0.00    +0.000 A 
ATOM     11  C   UNL     1       3.505   3.920  18.574  0.00  0.00    +0.000 A 
ENDROOT
BRANCH   1  16
ATOM     12  C   UNL     1       8.991   9.731  18.215  0.00  0.00    +0.000 C 
ATOM     13  C   UNL     1       8.217   8.446  18.155  0.00  0.00    +0.000 A 
ATOM     14  C   UNL     1       7.210   8.242  17.302  0.00  0.00    +0.000 A 
ATOM     15  C   UNL     1       6.517   6.975  17.300  0.00  0.00    +0.000 A 
ATOM     16  C   UNL     1       6.691   6.042  18.255  0.00  0.00    +0.000 A 
ATOM     17  C   UNL     1       7.861   6.256  19.178  0.00  0.00    +0.000 A 
ATOM     18  O   UNL     1       8.204   5.446  20.030  0.00  0.00    +0.000 OA
ATOM     19  N   UNL     1       8.549   7.446  19.034  0.00  0.00    +0.000 N 
ATOM     20  H   UNL     1       9.336   7.562  19.662  0.00  0.00    +0.000 HD
ENDBRANCH   1  16
BRANCH   5  21
ATOM     21  C   UNL     1       1.981   6.384  20.242  0.00  0.00    +0.000 C 
BRANCH  21  22
ATOM     22  C   UNL     1       1.909   7.909  20.458  0.00  0.00    +0.000 C 
ATOM     23  C   UNL     1       0.985   8.240  21.642  0.00  0.00    +0.000 C 
ATOM     24  O   UNL     1       0.698   9.640  21.686  0.00  0.00    +0.000 OA
ATOM     25  C   UNL     1       0.004  10.037  20.504  0.00  0.00    +0.000 C 
ATOM     26  C   UNL     1       0.753   9.725  19.215  0.00  0.00    +0.000 C 
ATOM     27  O   UNL     1       0.644  10.387  18.182  0.00  0.00    +0.000 OA
ATOM     28  N   UNL     1       1.513   8.581  19.222  0.00  0.00    +0.000 N 
ATOM     29  H   UNL     1       2.081   8.499  18.390  0.00  0.00    +0.000 HD
ENDBRANCH  21  22
ENDBRANCH   5  21
TORSDOF 3
ENDMDL
MODEL 3
REMARK VINA RESULT:      -8.5      2.175      2.715
REMARK  Name = 
REMARK  4 active torsions:
REMARK  status: ('A' for Active; 'I' for Inactive)
REMARK    1  A    between atoms: C_1  and  C_2
REMARK    2  A    between atoms: C_5  and  C_6
REMARK    3  A    between atoms: C_10  and  C_11
REMARK    4  A    between atoms: C_11  and  C_12
REMARK                            x       y       z     vdW  Elec       q    Type
REMARK                         _______ _______ _______ _____ _____    ______ ____
ROOT
ATOM      1  C   UNL     1       5.187   3.654  17.972  0.00  0.00    +0.000 C 
ATOM      2  O   UNL     1       5.656   2.710  18.605  0.00  0.00    +0.000 OA
ATOM      3  N   UNL     1       4.039   4.351  18.357  0.00  0.00    +0.000 N 
ATOM      4  C   UNL     1       3.306   5.347  17.558  0.00  0.00    +0.000 C 
ATOM      5  C   UNL     1       2.208   5.955  18.428  0.00  0.00    +0.000 C 
ATOM      6  C   UNL     1       2.086   4.882  19.469  0.00  0.00    +0.000 A 
ATOM      7  C   UNL     1       1.026   4.676  20.338  0.00  0.00    +0.000 A 
ATOM      8  C   UNL     1       1.153   3.680  21.303  0.00  0.00    +0.000 A 
ATOM      9  C   UNL     1       2.338   2.933  21.397  0.00  0.00    +0.000 A 
ATOM     10  C   UNL     1       3.381   3.113  20.476  0.00  0.00    +0.000 A 
ATOM     11  C   UNL     1       3.223   4.059  19.479  0.00  0.00    +0.000 A 
ENDROOT
BRANCH   1  16
ATOM     12  C   UNL     1       7.794   5.660  13.125  0.00  0.00    +0.000 C 
ATOM     13  C   UNL     1       7.167   5.060  14.351  0.00  0.00    +0.000 A 
ATOM     14  C   UNL     1       6.256   4.085  14.299  0.00  0.00    +0.000 A 
ATOM     15  C   UNL     1       5.703   3.554  15.523  0.00  0.00    +0.000 A 
ATOM     16  C   UNL     1       5.900   4.127  16.726  0.00  0.00    +0.000 A 
ATOM     17  C   UNL     1       6.965   5.189  16.782  0.00  0.00    +0.000 A 
ATOM     18  O   UNL     1       7.325   5.728  17.821  0.00  0.00    +0.000 OA
ATOM     19  N   UNL     1       7.533   5.556  15.577  0.00  0.00    +0.000 N 
ATOM     20  H   UNL     1       8.252   6.267  15.643  0.00  0.00    +0.000 HD
ENDBRANCH   1  16
BRANCH   5  21
ATOM     21  C   UNL     1       2.611   7.313  19.024  0.00  0.00    +0.000 C 
BRANCH  21  22
ATOM     22  C   UNL     1       1.443   8.119  19.628  0.00  0.00    +0.000 C 
ATOM     23  C   UNL     1       1.260   9.445  18.873  0.00  0.00    +0.000 C 
ATOM     24  O   UNL     1       0.370  10.314  19.580  0.00  0.00    +0.000 OA
ATOM     25  C   UNL     1       0.917  10.645  20.856  0.00  0.00    +0.000 C 
ATOM     26  C   UNL     1       1.225   9.434  21.727  0.00  0.00    +0.000 C 
ATOM     27  O   UNL     1       1.194   9.450  22.958  0.00  0.00    +0.000 OA
ATOM     28  N   UNL     1       1.643   8.306  21.065  0.00  0.00    +0.000 N 
ATOM     29  H   UNL     1       1.707   7.506  21.681  0.00  0.00    +0.000 HD
ENDBRANCH  21  22
ENDBRANCH   5  21
TORSDOF 3
ENDMDL
MODEL 4
REMARK VINA RESULT:      -8.3      5.461      9.377
REMARK  Name = 
REMARK  4 active torsions:
REMARK  status: ('A' for Active; 'I' for Inactive)
REMARK    1  A    between atoms: C_1  and  C_2
REMARK    2  A    between atoms: C_5  and  C_6
REMARK    3  A    between atoms: C_10  and  C_11
REMARK    4  A    between atoms: C_11  and  C_12
REMARK                            x       y       z     vdW  Elec       q    Type
REMARK                         _______ _______ _______ _____ _____    ______ ____
ROOT
ATOM      1  C   UNL     1      -0.563  10.892  22.669  0.00  0.00    +0.000 C 
ATOM      2  O   UNL     1      -0.085  10.195  23.562  0.00  0.00    +0.000 OA
ATOM      3  N   UNL     1      -0.379  10.642  21.307  0.00  0.00    +0.000 N 
ATOM      4  C   UNL     1      -0.744  11.533  20.193  0.00  0.00    +0.000 C 
ATOM      5  C   UNL     1      -0.497  10.794  18.880  0.00  0.00    +0.000 C 
ATOM      6  C   UNL     1       0.469   9.749  19.355  0.00  0.00    +0.000 A 
ATOM      7  C   UNL     1       1.329   8.990  18.576  0.00  0.00    +0.000 A 
ATOM      8  C   UNL     1       2.077   7.997  19.204  0.00  0.00    +0.000 A 
ATOM      9  C   UNL     1       1.932   7.766  20.582  0.00  0.00    +0.000 A 
ATOM     10  C   UNL     1       1.100   8.578  21.367  0.00  0.00    +0.000 A 
ATOM     11  C   UNL     1       0.410   9.605  20.749  0.00  0.00    +0.000 A 
ENDROOT
BRANCH   1  16
ATOM     12  C   UNL     1      -3.860  15.434  24.349  0.00  0.00    +0.000 C 
ATOM     13  C   UNL     1      -3.076  14.257  23.845  0.00  0.00    +0.000 A 
ATOM     14  C   UNL     1      -3.559  13.011  23.836  0.00  0.00    +0.000 A 
ATOM     15  C   UNL     1      -2.746  11.931  23.328  0.00  0.00    +0.000 A 
ATOM     16  C   UNL     1      -1.436  12.067  23.047  0.00  0.00    +0.000 A 
ATOM     17  C   UNL     1      -0.916  13.480  23.010  0.00  0.00    +0.000 A 
ATOM     18  O   UNL     1       0.226  13.768  22.673  0.00  0.00    +0.000 OA
ATOM     19  N   UNL     1      -1.798  14.471  23.396  0.00  0.00    +0.000 N 
ATOM     20  H   UNL     1      -1.424  15.413  23.355  0.00  0.00    +0.000 HD
ENDBRANCH   1  16
BRANCH   5  21
ATOM     21  C   UNL     1      -1.782  10.187  18.294  0.00  0.00    +0.000 C 
BRANCH  21  22
ATOM     22  C   UNL     1      -2.383  10.976  17.113  0.00  0.00    +0.000 C 
ATOM     23  C   UNL     1      -3.881  11.230  17.345  0.00  0.00    +0.000 C 
ATOM     24  O   UNL     1      -4.504  11.718  16.153  0.00  0.00    +0.000 OA
ATOM     25  C   UNL     1      -4.412  10.743  15.116  0.00  0.00    +0.000 C 
ATOM     26  C   UNL     1      -2.985  10.319  14.793  0.00  0.00    +0.000 C 
ATOM     27  O   UNL     1      -2.620   9.938  13.680  0.00  0.00    +0.000 OA
ATOM     28  N   UNL     1      -2.111  10.290  15.851  0.00  0.00    +0.000 N 
ATOM     29  H   UNL     1      -1.159  10.127  15.552  0.00  0.00    +0.000 HD
ENDBRANCH  21  22
ENDBRANCH   5  21
TORSDOF 3
ENDMDL
MODEL 5
REMARK VINA RESULT:      -7.8      2.412      3.007
REMARK  Name = 
REMARK  4 active torsions:
REMARK  status: ('A' for Active; 'I' for Inactive)
REMARK    1  A    between atoms: C_1  and  C_2
REMARK    2  A    between atoms: C_5  and  C_6
REMARK    3  A    between atoms: C_10  and  C_11
REMARK    4  A    between atoms: C_11  and  C_12
REMARK                            x       y       z     vdW  Elec       q    Type
REMARK                         _______ _______ _______ _____ _____    ______ ____
ROOT
ATOM      1  C   UNL     1       5.112   3.479  18.063  0.00  0.00    +0.000 C 
ATOM      2  O   UNL     1       5.596   2.533  18.682  0.00  0.00    +0.000 OA
ATOM      3  N   UNL     1       3.955   4.154  18.459  0.00  0.00    +0.000 N 
ATOM      4  C   UNL     1       3.207   5.150  17.674  0.00  0.00    +0.000 C 
ATOM      5  C   UNL     1       2.102   5.731  18.554  0.00  0.00    +0.000 C 
ATOM      6  C   UNL     1       1.998   4.642  19.581  0.00  0.00    +0.000 A 
ATOM      7  C   UNL     1       0.942   4.410  20.449  0.00  0.00    +0.000 A 
ATOM      8  C   UNL     1       1.085   3.403  21.400  0.00  0.00    +0.000 A 
ATOM      9  C   UNL     1       2.281   2.672  21.482  0.00  0.00    +0.000 A 
ATOM     10  C   UNL     1       3.319   2.879  20.562  0.00  0.00    +0.000 A 
ATOM     11  C   UNL     1       3.146   3.835  19.578  0.00  0.00    +0.000 A 
ENDROOT
BRANCH   1  16
ATOM     12  C   UNL     1       7.689   5.591  13.244  0.00  0.00    +0.000 C 
ATOM     13  C   UNL     1       7.068   4.963  14.459  0.00  0.00    +0.000 A 
ATOM     14  C   UNL     1       6.134   4.010  14.389  0.00  0.00    +0.000 A 
ATOM     15  C   UNL     1       5.589   3.451  15.604  0.00  0.00    +0.000 A 
ATOM     16  C   UNL     1       5.816   3.978  16.822  0.00  0.00    +0.000 A 
ATOM     17  C   UNL     1       6.906   5.014  16.896  0.00  0.00    +0.000 A 
ATOM     18  O   UNL     1       7.293   5.510  17.947  0.00  0.00    +0.000 OA
ATOM     19  N   UNL     1       7.463   5.409  15.695  0.00  0.00    +0.000 N 
ATOM     20  H   UNL     1       8.198   6.102  15.774  0.00  0.00    +0.000 HD
ENDBRANCH   1  16
BRANCH   5  21
ATOM     21  C   UNL     1       2.487   7.086  19.167  0.00  0.00    +0.000 C 
BRANCH  21  22
ATOM     22  C   UNL     1       1.654   8.280  18.658  0.00  0.00    +0.000 C 
ATOM     23  C   UNL     1       2.493   9.156  17.714  0.00  0.00    +0.000 C 
ATOM     24  O   UNL     1       1.831  10.396  17.450  0.00  0.00    +0.000 OA
ATOM     25  C   UNL     1       1.673  11.137  18.659  0.00  0.00    +0.000 C 
ATOM     26  C   UNL     1       0.910  10.389  19.745  0.00  0.00    +0.000 C 
ATOM     27  O   UNL     1       0.225  10.942  20.605  0.00  0.00    +0.000 OA
ATOM     28  N   UNL     1       1.096   9.029  19.783  0.00  0.00    +0.000 N 
ATOM     29  H   UNL     1       0.469   8.579  20.437  0.00  0.00    +0.000 HD
ENDBRANCH  21  22
ENDBRANCH   5  21
TORSDOF 3
ENDMDL
MODEL 6
REMARK VINA RESULT:      -7.8      2.921      5.922
REMARK  Name = 
REMARK  4 active torsions:
REMARK  status: ('A' for Active; 'I' for Inactive)
REMARK    1  A    between atoms: C_1  and  C_2
REMARK    2  A    between atoms: C_5  and  C_6
REMARK    3  A    between atoms: C_10  and  C_11
REMARK    4  A    between atoms: C_11  and  C_12
REMARK                            x       y       z     vdW  Elec       q    Type
REMARK                         _______ _______ _______ _____ _____    ______ ____
ROOT
ATOM      1  C   UNL     1       4.039   7.155  17.794  0.00  0.00    +0.000 C 
ATOM      2  O   UNL     1       4.881   8.005  17.509  0.00  0.00    +0.000 OA
ATOM      3  N   UNL     1       4.080   5.838  17.331  0.00  0.00    +0.000 N 
ATOM      4  C   UNL     1       3.016   4.829  17.458  0.00  0.00    +0.000 C 
ATOM      5  C   UNL     1       3.549   3.494  16.942  0.00  0.00    +0.000 C 
ATOM      6  C   UNL     1       4.684   3.985  16.093  0.00  0.00    +0.000 A 
ATOM      7  C   UNL     1       5.338   3.290  15.088  0.00  0.00    +0.000 A 
ATOM      8  C   UNL     1       6.439   3.892  14.484  0.00  0.00    +0.000 A 
ATOM      9  C   UNL     1       6.877   5.156  14.912  0.00  0.00    +0.000 A 
ATOM     10  C   UNL     1       6.172   5.872  15.891  0.00  0.00    +0.000 A 
ATOM     11  C   UNL     1       5.041   5.297  16.440  0.00  0.00    +0.000 A 
ENDROOT
BRANCH   1  16
ATOM     12  C   UNL     1      -0.191   8.746  21.522  0.00  0.00    +0.000 C 
ATOM     13  C   UNL     1       0.845   8.256  20.551  0.00  0.00    +0.000 A 
ATOM     14  C   UNL     1       1.614   7.189  20.784  0.00  0.00    +0.000 A 
ATOM     15  C   UNL     1       2.584   6.775  19.798  0.00  0.00    +0.000 A 
ATOM     16  C   UNL     1       2.911   7.527  18.729  0.00  0.00    +0.000 A 
ATOM     17  C   UNL     1       2.006   8.697  18.448  0.00  0.00    +0.000 A 
ATOM     18  O   UNL     1       2.117   9.410  17.458  0.00  0.00    +0.000 OA
ATOM     19  N   UNL     1       1.022   8.954  19.383  0.00  0.00    +0.000 N 
ATOM     20  H   UNL     1       0.423   9.742  19.166  0.00  0.00    +0.000 HD
ENDBRANCH   1  16
BRANCH   5  21
ATOM     21  C   UNL     1       4.017   2.568  18.075  0.00  0.00    +0.000 C 
BRANCH  21  22
ATOM     22  C   UNL     1       2.902   2.127  19.046  0.00  0.00    +0.000 C 
ATOM     23  C   UNL     1       1.521   2.494  18.477  0.00  0.00    +0.000 C 
ATOM     24  O   UNL     1       0.505   2.339  19.471  0.00  0.00    +0.000 OA
ATOM     25  C   UNL     1       0.745   3.227  20.562  0.00  0.00    +0.000 C 
ATOM     26  C   UNL     1       2.110   3.048  21.215  0.00  0.00    +0.000 C 
ATOM     27  O   UNL     1       2.337   3.283  22.402  0.00  0.00    +0.000 OA
ATOM     28  N   UNL     1       3.135   2.686  20.377  0.00  0.00    +0.000 N 
ATOM     29  H   UNL     1       3.979   2.459  20.886  0.00  0.00    +0.000 HD
ENDBRANCH  21  22
ENDBRANCH   5  21
TORSDOF 3
ENDMDL
MODEL 7
REMARK VINA RESULT:      -7.6      7.178     10.650
REMARK  Name = 
REMARK  4 active torsions:
REMARK  status: ('A' for Active; 'I' for Inactive)
REMARK    1  A    between atoms: C_1  and  C_2
REMARK    2  A    between atoms: C_5  and  C_6
REMARK    3  A    between atoms: C_10  and  C_11
REMARK    4  A    between atoms: C_11  and  C_12
REMARK                            x       y       z     vdW  Elec       q    Type
REMARK                         _______ _______ _______ _____ _____    ______ ____
ROOT
ATOM      1  C   UNL     1      -2.352  13.046  22.305  0.00  0.00    +0.000 C 
ATOM      2  O   UNL     1      -2.529  12.848  23.505  0.00  0.00    +0.000 OA
ATOM      3  N   UNL     1      -1.583  12.215  21.487  0.00  0.00    +0.000 N 
ATOM      4  C   UNL     1      -1.160  12.491  20.104  0.00  0.00    +0.000 C 
ATOM      5  C   UNL     1      -0.463  11.249  19.552  0.00  0.00    +0.000 C 
ATOM      6  C   UNL     1      -0.097  10.572  20.839  0.00  0.00    +0.000 A 
ATOM      7  C   UNL     1       0.853   9.578  21.020  0.00  0.00    +0.000 A 
ATOM      8  C   UNL     1       0.971   9.007  22.285  0.00  0.00    +0.000 A 
ATOM      9  C   UNL     1       0.127   9.418  23.328  0.00  0.00    +0.000 A 
ATOM     10  C   UNL     1      -0.792  10.463  23.146  0.00  0.00    +0.000 A 
ATOM     11  C   UNL     1      -0.859  11.071  21.906  0.00  0.00    +0.000 A 
ENDROOT
BRANCH   1  16
ATOM     12  C   UNL     1      -4.861  17.580  19.572  0.00  0.00    +0.000 C 
ATOM     13  C   UNL     1      -4.238  16.462  20.357  0.00  0.00    +0.000 A 
ATOM     14  C   UNL     1      -3.134  16.616  21.092  0.00  0.00    +0.000 A 
ATOM     15  C   UNL     1      -2.598  15.493  21.825  0.00  0.00    +0.000 A 
ATOM     16  C   UNL     1      -3.029  14.229  21.650  0.00  0.00    +0.000 A 
ATOM     17  C   UNL     1      -4.303  14.073  20.863  0.00  0.00    +0.000 A 
ATOM     18  O   UNL     1      -4.870  12.999  20.706  0.00  0.00    +0.000 OA
ATOM     19  N   UNL     1      -4.820  15.221  20.293  0.00  0.00    +0.000 N 
ATOM     20  H   UNL     1      -5.680  15.089  19.774  0.00  0.00    +0.000 HD
ENDBRANCH   1  16
BRANCH   5  21
ATOM     21  C   UNL     1      -1.392  10.392  18.677  0.00  0.00    +0.000 C 
BRANCH  21  22
ATOM     22  C   UNL     1      -2.142  11.175  17.580  0.00  0.00    +0.000 C 
ATOM     23  C   UNL     1      -3.619  11.359  17.967  0.00  0.00    +0.000 C 
ATOM     24  O   UNL     1      -4.378  11.840  16.855  0.00  0.00    +0.000 OA
ATOM     25  C   UNL     1      -4.352  10.888  15.793  0.00  0.00    +0.000 C 
ATOM     26  C   UNL     1      -2.948  10.533  15.318  0.00  0.00    +0.000 C 
ATOM     27  O   UNL     1      -2.682  10.189  14.167  0.00  0.00    +0.000 OA
ATOM     28  N   UNL     1      -1.971  10.524  16.282  0.00  0.00    +0.000 N 
ATOM     29  H   UNL     1      -1.048  10.409  15.886  0.00  0.00    +0.000 HD
ENDBRANCH  21  22
ENDBRANCH   5  21
TORSDOF 3
ENDMDL
MODEL 8
REMARK VINA RESULT:      -7.6      3.138      5.317
REMARK  Name = 
REMARK  4 active torsions:
REMARK  status: ('A' for Active; 'I' for Inactive)
REMARK    1  A    between atoms: C_1  and  C_2
REMARK    2  A    between atoms: C_5  and  C_6
REMARK    3  A    between atoms: C_10  and  C_11
REMARK    4  A    between atoms: C_11  and  C_12
REMARK                            x       y       z     vdW  Elec       q    Type
REMARK                         _______ _______ _______ _____ _____    ______ ____
ROOT
ATOM      1  C   UNL     1       2.822   6.645  19.245  0.00  0.00    +0.000 C 
ATOM      2  O   UNL     1       2.791   5.971  20.273  0.00  0.00    +0.000 OA
ATOM      3  N   UNL     1       2.165   7.870  19.100  0.00  0.00    +0.000 N 
ATOM      4  C   UNL     1       1.986   8.629  17.852  0.00  0.00    +0.000 C 
ATOM      5  C   UNL     1       1.341   9.971  18.188  0.00  0.00    +0.000 C 
ATOM      6  C   UNL     1       0.741   9.637  19.522  0.00  0.00    +0.000 A 
ATOM      7  C   UNL     1      -0.265  10.326  20.182  0.00  0.00    +0.000 A 
ATOM      8  C   UNL     1      -0.612   9.907  21.464  0.00  0.00    +0.000 A 
ATOM      9  C   UNL     1       0.065   8.835  22.066  0.00  0.00    +0.000 A 
ATOM     10  C   UNL     1       1.042   8.112  21.366  0.00  0.00    +0.000 A 
ATOM     11  C   UNL     1       1.337   8.491  20.069  0.00  0.00    +0.000 A 
ENDROOT
BRANCH   1  16
ATOM     12  C   UNL     1       6.154   4.652  14.858  0.00  0.00    +0.000 C 
ATOM     13  C   UNL     1       5.266   5.230  15.922  0.00  0.00    +0.000 A 
ATOM     14  C   UNL     1       5.428   6.460  16.416  0.00  0.00    +0.000 A 
ATOM     15  C   UNL     1       4.527   6.948  17.434  0.00  0.00    +0.000 A 
ATOM     16  C   UNL     1       3.644   6.157  18.074  0.00  0.00    +0.000 A 
ATOM     17  C   UNL     1       3.433   4.791  17.476  0.00  0.00    +0.000 A 
ATOM     18  O   UNL     1       2.593   4.000  17.886  0.00  0.00    +0.000 OA
ATOM     19  N   UNL     1       4.256   4.446  16.422  0.00  0.00    +0.000 N 
ATOM     20  H   UNL     1       4.089   3.525  16.034  0.00  0.00    +0.000 HD
ENDBRANCH   1  16
BRANCH   5  21
ATOM     21  C   UNL     1       2.366  11.114  18.272  0.00  0.00    +0.000 C 
BRANCH  21  22
ATOM     22  C   UNL     1       1.794  12.451  18.785  0.00  0.00    +0.000 C 
ATOM     23  C   UNL     1       2.236  13.609  17.875  0.00  0.00    +0.000 C 
ATOM     24  O   UNL     1       1.943  14.871  18.480  0.00  0.00    +0.000 OA
ATOM     25  C   UNL     1       2.669  15.012  19.700  0.00  0.00    +0.000 C 
ATOM     26  C   UNL     1       2.400  13.904  20.710  0.00  0.00    +0.000 C 
ATOM     27  O   UNL     1       2.467  14.058  21.929  0.00  0.00    +0.000 OA
ATOM     28  N   UNL     1       2.160  12.658  20.186  0.00  0.00    +0.000 N 
ATOM     29  H   UNL     1       1.864  11.999  20.894  0.00  0.00    +0.000 HD
ENDBRANCH  21  22
ENDBRANCH   5  21
TORSDOF 3
ENDMDL
MODEL 9
REMARK VINA RESULT:      -7.6      2.431      3.386
REMARK  Name = 
REMARK  4 active torsions:
REMARK  status: ('A' for Active; 'I' for Inactive)
REMARK    1  A    between atoms: C_1  and  C_2
REMARK    2  A    between atoms: C_5  and  C_6
REMARK    3  A    between atoms: C_10  and  C_11
REMARK    4  A    between atoms: C_11  and  C_12
REMARK                            x       y       z     vdW  Elec       q    Type
REMARK                         _______ _______ _______ _____ _____    ______ ____
ROOT
ATOM      1  C   UNL     1       5.428   4.010  18.219  0.00  0.00    +0.000 C 
ATOM      2  O   UNL     1       6.145   3.832  19.202  0.00  0.00    +0.000 OA
ATOM      3  N   UNL     1       4.033   3.952  18.257  0.00  0.00    +0.000 N 
ATOM      4  C   UNL     1       3.122   3.951  17.101  0.00  0.00    +0.000 C 
ATOM      5  C   UNL     1       1.685   4.026  17.615  0.00  0.00    +0.000 C 
ATOM      6  C   UNL     1       1.893   3.540  19.019  0.00  0.00    +0.000 A 
ATOM      7  C   UNL     1       0.927   3.053  19.886  0.00  0.00    +0.000 A 
ATOM      8  C   UNL     1       1.312   2.746  21.188  0.00  0.00    +0.000 A 
ATOM      9  C   UNL     1       2.636   2.955  21.604  0.00  0.00    +0.000 A 
ATOM     10  C   UNL     1       3.615   3.396  20.700  0.00  0.00    +0.000 A 
ATOM     11  C   UNL     1       3.242   3.637  19.391  0.00  0.00    +0.000 A 
ENDROOT
BRANCH   1  16
ATOM     12  C   UNL     1       7.751   5.479  13.046  0.00  0.00    +0.000 C 
ATOM     13  C   UNL     1       7.205   5.020  14.367  0.00  0.00    +0.000 A 
ATOM     14  C   UNL     1       6.402   3.960  14.495  0.00  0.00    +0.000 A 
ATOM     15  C   UNL     1       5.923   3.576  15.802  0.00  0.00    +0.000 A 
ATOM     16  C   UNL     1       6.072   4.350  16.895  0.00  0.00    +0.000 A 
ATOM     17  C   UNL     1       7.020   5.511  16.753  0.00  0.00    +0.000 A 
ATOM     18  O   UNL     1       7.333   6.242  17.685  0.00  0.00    +0.000 OA
ATOM     19  N   UNL     1       7.531   5.738  15.490  0.00  0.00    +0.000 N 
ATOM     20  H   UNL     1       8.172   6.521  15.424  0.00  0.00    +0.000 HD
ENDBRANCH   1  16
BRANCH   5  21
ATOM     21  C   UNL     1       1.114   5.452  17.562  0.00  0.00    +0.000 C 
BRANCH  21  22
ATOM     22  C   UNL     1       1.963   6.510  18.297  0.00  0.00    +0.000 C 
ATOM     23  C   UNL     1       1.494   6.655  19.754  0.00  0.00    +0.000 C 
ATOM     24  O   UNL     1       2.083   7.807  20.364  0.00  0.00    +0.000 OA
ATOM     25  C   UNL     1       1.669   8.991  19.683  0.00  0.00    +0.000 C 
ATOM     26  C   UNL     1       1.999   8.993  18.196  0.00  0.00    +0.000 C 
ATOM     27  O   UNL     1       2.224  10.015  17.547  0.00  0.00    +0.000 OA
ATOM     28  N   UNL     1       1.946   7.775  17.565  0.00  0.00    +0.000 N 
ATOM     29  H   UNL     1       2.298   7.823  16.618  0.00  0.00    +0.000 HD
ENDBRANCH  21  22
ENDBRANCH   5  21
TORSDOF 3
ENDMDL
