MODEL 1
REMARK VINA RESULT:      -9.3      0.000      0.000
REMARK  Name = 
REMARK  2 active torsions:
REMARK  status: ('A' for Active; 'I' for Inactive)
REMARK    1  A    between atoms: C_2  and  C_18
REMARK    2  A    between atoms: C_6  and  C_7
REMARK                            x       y       z     vdW  Elec       q    Type
REMARK                         _______ _______ _______ _____ _____    ______ ____
ROOT
ATOM      1  O   UNL     1       1.695   8.829  19.696  0.00  0.00    +0.000 OA
ATOM      2  C   UNL     1       1.237   8.297  20.703  0.00  0.00    +0.000 C 
ATOM      3  N   UNL     1       1.462   7.006  21.113  0.00  0.00    +0.000 N 
ATOM      4  C   UNL     1       2.260   6.167  20.390  0.00  0.00    +0.000 A 
ATOM      5  N   UNL     1       3.083   6.458  19.416  0.00  0.00    +0.000 NA
ATOM      6  C   UNL     1       3.678   5.303  18.940  0.00  0.00    +0.000 A 
ATOM      7  C   UNL     1       3.214   4.141  19.532  0.00  0.00    +0.000 A 
ATOM      8  S   UNL     1       2.134   4.522  20.813  0.00  0.00    +0.000 S 
ATOM      9  H   UNL     1       0.946   6.655  21.909  0.00  0.00    +0.000 HD
ENDROOT
BRANCH   2  10
ATOM     10  C   UNL     1       0.321   9.032  21.591  0.00  0.00    +0.000 A 
ATOM     11  N   UNL     1      -0.470   8.422  22.502  0.00  0.00    +0.000 NA
ATOM     12  N   UNL     1      -1.077   9.451  23.132  0.00  0.00    +0.000 N 
ATOM     13  C   UNL     1      -0.767  10.687  22.631  0.00  0.00    +0.000 A 
ATOM     14  C   UNL     1      -1.186  11.976  22.983  0.00  0.00    +0.000 A 
ATOM     15  C   UNL     1      -0.665  13.043  22.240  0.00  0.00    +0.000 A 
ATOM     16  C   UNL     1       0.232  12.829  21.196  0.00  0.00    +0.000 A 
ATOM     17  C   UNL     1       0.648  11.535  20.873  0.00  0.00    +0.000 A 
ATOM     18  C   UNL     1       0.140  10.446  21.609  0.00  0.00    +0.000 A 
ATOM     19  H   UNL     1      -1.704   9.247  23.903  0.00  0.00    +0.000 HD
ENDBRANCH   2  10
BRANCH   6  20
ATOM     20  C   UNL     1       4.698   5.338  17.893  0.00  0.00    +0.000 A 
ATOM     21  C   UNL     1       5.914   6.030  18.101  0.00  0.00    +0.000 A 
ATOM     22  C   UNL     1       6.898   6.092  17.111  0.00  0.00    +0.000 A 
ATOM     23  C   UNL     1       6.651   5.450  15.919  0.00  0.00    +0.000 A 
ATOM     24  C   UNL     1       5.464   4.776  15.680  0.00  0.00    +0.000 A 
ATOM     25  C   UNL     1       4.469   4.720  16.649  0.00  0.00    +0.000 A 
ATOM     26  C   UNL     1       5.473   4.274  14.286  0.00  0.00    +0.000 C 
ATOM     27  C   UNL     1       6.963   4.439  13.978  0.00  0.00    +0.000 C 
ATOM     28  O   UNL     1       7.522   5.438  14.861  0.00  0.00    +0.000 OA
ENDBRANCH   6  20
TORSDOF 2
ENDMDL
MODEL 2
REMARK VINA RESULT:      -8.7      2.401      2.515
REMARK  Name = 
REMARK  2 active torsions:
REMARK  status: ('A' for Active; 'I' for Inactive)
REMARK    1  A    between atoms: C_2  and  C_18
REMARK    2  A    between atoms: C_6  and  C_7
REMARK                            x       y       z     vdW  Elec       q    Type
REMARK                         _______ _______ _______ _____ _____    ______ ____
ROOT
ATOM      1  O   UNL     1       1.612   9.488  18.142  0.00  0.00    +0.000 OA
ATOM      2  C   UNL     1       1.025   9.395  19.216  0.00  0.00    +0.000 C 
ATOM      3  N   UNL     1       1.153   8.374  20.125  0.00  0.00    +0.000 N 
ATOM      4  C   UNL     1       1.992   7.324  19.890  0.00  0.00    +0.000 A 
ATOM      5  N   UNL     1       2.929   7.212  18.984  0.00  0.00    +0.000 NA
ATOM      6  C   UNL     1       3.528   5.968  19.076  0.00  0.00    +0.000 A 
ATOM      7  C   UNL     1       2.956   5.131  20.020  0.00  0.00    +0.000 A 
ATOM      8  S   UNL     1       1.756   5.981  20.910  0.00  0.00    +0.000 S 
ATOM      9  H   UNL     1       0.538   8.363  20.929  0.00  0.00    +0.000 HD
ENDROOT
BRANCH   2  10
ATOM     10  C   UNL     1       0.045  10.414  19.627  0.00  0.00    +0.000 A 
ATOM     11  N   UNL     1       0.257  11.267  20.654  0.00  0.00    +0.000 NA
ATOM     12  N   UNL     1      -0.838  12.058  20.638  0.00  0.00    +0.000 N 
ATOM     13  C   UNL     1      -1.772  11.718  19.696  0.00  0.00    +0.000 A 
ATOM     14  C   UNL     1      -3.021  12.261  19.371  0.00  0.00    +0.000 A 
ATOM     15  C   UNL     1      -3.735  11.648  18.333  0.00  0.00    +0.000 A 
ATOM     16  C   UNL     1      -3.220  10.546  17.653  0.00  0.00    +0.000 A 
ATOM     17  C   UNL     1      -1.965  10.031  17.983  0.00  0.00    +0.000 A 
ATOM     18  C   UNL     1      -1.227  10.633  19.023  0.00  0.00    +0.000 A 
ATOM     19  H   UNL     1      -0.897  12.820  21.305  0.00  0.00    +0.000 HD
ENDBRANCH   2  10
BRANCH   6  20
ATOM     20  C   UNL     1       4.658   5.593  18.228  0.00  0.00    +0.000 A 
ATOM     21  C   UNL     1       5.913   5.285  18.803  0.00  0.00    +0.000 A 
ATOM     22  C   UNL     1       7.013   4.941  18.013  0.00  0.00    +0.000 A 
ATOM     23  C   UNL     1       6.838   4.903  16.649  0.00  0.00    +0.000 A 
ATOM     24  C   UNL     1       5.625   5.213  16.055  0.00  0.00    +0.000 A 
ATOM     25  C   UNL     1       4.526   5.574  16.826  0.00  0.00    +0.000 A 
ATOM     26  C   UNL     1       5.788   5.163  14.583  0.00  0.00    +0.000 C 
ATOM     27  C   UNL     1       7.121   4.415  14.511  0.00  0.00    +0.000 C 
ATOM     28  O   UNL     1       7.832   4.591  15.757  0.00  0.00    +0.000 OA
ENDBRANCH   6  20
TORSDOF 2
ENDMDL
MODEL 3
REMARK VINA RESULT:      -8.5      1.489      1.903
REMARK  Name = 
REMARK  2 active torsions:
REMARK  status: ('A' for Active; 'I' for Inactive)
REMARK    1  A    between atoms: C_2  and  C_18
REMARK    2  A    between atoms: C_6  and  C_7
REMARK                            x       y       z     vdW  Elec       q    Type
REMARK                         _______ _______ _______ _____ _____    ______ ____
ROOT
ATOM      1  O   UNL     1       2.336   8.263  18.294  0.00  0.00    +0.000 OA
ATOM      2  C   UNL     1       2.110   7.857  19.431  0.00  0.00    +0.000 C 
ATOM      3  N   UNL     1       2.510   6.654  19.956  0.00  0.00    +0.000 N 
ATOM      4  C   UNL     1       3.231   5.765  19.213  0.00  0.00    +0.000 A 
ATOM      5  N   UNL     1       3.840   5.958  18.071  0.00  0.00    +0.000 NA
ATOM      6  C   UNL     1       4.433   4.782  17.647  0.00  0.00    +0.000 A 
ATOM      7  C   UNL     1       4.179   3.693  18.465  0.00  0.00    +0.000 A 
ATOM      8  S   UNL     1       3.319   4.194  19.865  0.00  0.00    +0.000 S 
ATOM      9  H   UNL     1       2.175   6.393  20.875  0.00  0.00    +0.000 HD
ENDROOT
BRANCH   2  10
ATOM     10  C   UNL     1       1.311   8.660  20.371  0.00  0.00    +0.000 A 
ATOM     11  N   UNL     1       1.370   8.499  21.712  0.00  0.00    +0.000 NA
ATOM     12  N   UNL     1       0.549   9.465  22.181  0.00  0.00    +0.000 N 
ATOM     13  C   UNL     1      -0.082  10.196  21.211  0.00  0.00    +0.000 A 
ATOM     14  C   UNL     1      -1.001  11.250  21.277  0.00  0.00    +0.000 A 
ATOM     15  C   UNL     1      -1.463  11.774  20.062  0.00  0.00    +0.000 A 
ATOM     16  C   UNL     1      -1.023  11.266  18.842  0.00  0.00    +0.000 A 
ATOM     17  C   UNL     1      -0.094  10.225  18.800  0.00  0.00    +0.000 A 
ATOM     18  C   UNL     1       0.386   9.683  20.009  0.00  0.00    +0.000 A 
ATOM     19  H   UNL     1       0.455   9.576  23.185  0.00  0.00    +0.000 HD
ENDBRANCH   2  10
BRANCH   6  20
ATOM     20  C   UNL     1       5.243   4.723  16.431  0.00  0.00    +0.000 A 
ATOM     21  C   UNL     1       6.528   5.312  16.398  0.00  0.00    +0.000 A 
ATOM     22  C   UNL     1       7.315   5.283  15.243  0.00  0.00    +0.000 A 
ATOM     23  C   UNL     1       6.801   4.654  14.132  0.00  0.00    +0.000 A 
ATOM     24  C   UNL     1       5.540   4.079  14.130  0.00  0.00    +0.000 A 
ATOM     25  C   UNL     1       4.740   4.115  15.265  0.00  0.00    +0.000 A 
ATOM     26  C   UNL     1       5.253   3.566  12.770  0.00  0.00    +0.000 C 
ATOM     27  C   UNL     1       6.669   3.604  12.191  0.00  0.00    +0.000 C 
ATOM     28  O   UNL     1       7.459   4.560  12.933  0.00  0.00    +0.000 OA
ENDBRANCH   6  20
TORSDOF 2
ENDMDL
MODEL 4
REMARK VINA RESULT:      -8.5      1.807      2.039
REMARK  Name = 
REMARK  2 active torsions:
REMARK  status: ('A' for Active; 'I' for Inactive)
REMARK    1  A    between atoms: C_2  and  C_18
REMARK    2  A    between atoms: C_6  and  C_7
REMARK                            x       y       z     vdW  Elec       q    Type
REMARK                         _______ _______ _______ _____ _____    ______ ____
ROOT
ATOM      1  O   UNL     1       1.710   9.661  18.092  0.00  0.00    +0.000 OA
ATOM      2  C   UNL     1       1.092   9.579  19.149  0.00  0.00    +0.000 C 
ATOM      3  N   UNL     1       1.161   8.547  20.051  0.00  0.00    +0.000 N 
ATOM      4  C   UNL     1       1.970   7.471  19.829  0.00  0.00    +0.000 A 
ATOM      5  N   UNL     1       2.926   7.334  18.946  0.00  0.00    +0.000 NA
ATOM      6  C   UNL     1       3.479   6.070  19.041  0.00  0.00    +0.000 A 
ATOM      7  C   UNL     1       2.855   5.245  19.962  0.00  0.00    +0.000 A 
ATOM      8  S   UNL     1       1.662   6.127  20.829  0.00  0.00    +0.000 S 
ATOM      9  H   UNL     1       0.526   8.550  20.839  0.00  0.00    +0.000 HD
ENDROOT
BRANCH   2  10
ATOM     10  C   UNL     1       0.137  10.628  19.545  0.00  0.00    +0.000 A 
ATOM     11  N   UNL     1      -0.318  11.571  18.690  0.00  0.00    +0.000 NA
ATOM     12  N   UNL     1      -1.206  12.268  19.433  0.00  0.00    +0.000 N 
ATOM     13  C   UNL     1      -1.299  11.862  20.737  0.00  0.00    +0.000 A 
ATOM     14  C   UNL     1      -2.070  12.322  21.812  0.00  0.00    +0.000 A 
ATOM     15  C   UNL     1      -1.908  11.668  23.041  0.00  0.00    +0.000 A 
ATOM     16  C   UNL     1      -1.019  10.605  23.184  0.00  0.00    +0.000 A 
ATOM     17  C   UNL     1      -0.272  10.154  22.094  0.00  0.00    +0.000 A 
ATOM     18  C   UNL     1      -0.419  10.794  20.847  0.00  0.00    +0.000 A 
ATOM     19  H   UNL     1      -1.722  13.021  18.992  0.00  0.00    +0.000 HD
ENDBRANCH   2  10
BRANCH   6  20
ATOM     20  C   UNL     1       4.618   5.664  18.218  0.00  0.00    +0.000 A 
ATOM     21  C   UNL     1       5.849   5.316  18.822  0.00  0.00    +0.000 A 
ATOM     22  C   UNL     1       6.957   4.941  18.058  0.00  0.00    +0.000 A 
ATOM     23  C   UNL     1       6.813   4.913  16.689  0.00  0.00    +0.000 A 
ATOM     24  C   UNL     1       5.624   5.262  16.068  0.00  0.00    +0.000 A 
ATOM     25  C   UNL     1       4.519   5.654  16.814  0.00  0.00    +0.000 A 
ATOM     26  C   UNL     1       5.821   5.212  14.600  0.00  0.00    +0.000 C 
ATOM     27  C   UNL     1       7.132   4.424  14.557  0.00  0.00    +0.000 C 
ATOM     28  O   UNL     1       7.818   4.575  15.820  0.00  0.00    +0.000 OA
ENDBRANCH   6  20
TORSDOF 2
ENDMDL
MODEL 5
REMARK VINA RESULT:      -8.5      3.223      4.388
REMARK  Name = 
REMARK  2 active torsions:
REMARK  status: ('A' for Active; 'I' for Inactive)
REMARK    1  A    between atoms: C_2  and  C_18
REMARK    2  A    between atoms: C_6  and  C_7
REMARK                            x       y       z     vdW  Elec       q    Type
REMARK                         _______ _______ _______ _____ _____    ______ ____
ROOT
ATOM      1  O   UNL     1       0.819  10.075  22.232  0.00  0.00    +0.000 OA
ATOM      2  C   UNL     1       0.585  10.979  21.435  0.00  0.00    +0.000 C 
ATOM      3  N   UNL     1       0.788  10.936  20.078  0.00  0.00    +0.000 N 
ATOM      4  C   UNL     1       1.293   9.820  19.476  0.00  0.00    +0.000 A 
ATOM      5  N   UNL     1       1.431   8.616  19.969  0.00  0.00    +0.000 NA
ATOM      6  C   UNL     1       2.014   7.785  19.029  0.00  0.00    +0.000 A 
ATOM      7  C   UNL     1       2.378   8.424  17.855  0.00  0.00    +0.000 A 
ATOM      8  S   UNL     1       1.834  10.054  17.878  0.00  0.00    +0.000 S 
ATOM      9  H   UNL     1       0.649  11.783  19.542  0.00  0.00    +0.000 HD
ENDROOT
BRANCH   2  10
ATOM     10  C   UNL     1       0.071  12.277  21.901  0.00  0.00    +0.000 A 
ATOM     11  N   UNL     1       0.730  13.442  21.707  0.00  0.00    +0.000 NA
ATOM     12  N   UNL     1      -0.112  14.368  22.216  0.00  0.00    +0.000 N 
ATOM     13  C   UNL     1      -1.247  13.854  22.784  0.00  0.00    +0.000 A 
ATOM     14  C   UNL     1      -2.337  14.460  23.421  0.00  0.00    +0.000 A 
ATOM     15  C   UNL     1      -3.346  13.617  23.903  0.00  0.00    +0.000 A 
ATOM     16  C   UNL     1      -3.267  12.234  23.753  0.00  0.00    +0.000 A 
ATOM     17  C   UNL     1      -2.178  11.652  23.101  0.00  0.00    +0.000 A 
ATOM     18  C   UNL     1      -1.151  12.481  22.605  0.00  0.00    +0.000 A 
ATOM     19  H   UNL     1       0.146  15.347  22.152  0.00  0.00    +0.000 HD
ENDBRANCH   2  10
BRANCH   6  20
ATOM     20  C   UNL     1       2.223   6.361  19.284  0.00  0.00    +0.000 A 
ATOM     21  C   UNL     1       1.936   5.812  20.556  0.00  0.00    +0.000 A 
ATOM     22  C   UNL     1       2.143   4.458  20.831  0.00  0.00    +0.000 A 
ATOM     23  C   UNL     1       2.633   3.665  19.818  0.00  0.00    +0.000 A 
ATOM     24  C   UNL     1       2.937   4.176  18.566  0.00  0.00    +0.000 A 
ATOM     25  C   UNL     1       2.753   5.524  18.284  0.00  0.00    +0.000 A 
ATOM     26  C   UNL     1       3.521   3.094  17.739  0.00  0.00    +0.000 C 
ATOM     27  C   UNL     1       3.116   1.890  18.591  0.00  0.00    +0.000 C 
ATOM     28  O   UNL     1       2.893   2.326  19.952  0.00  0.00    +0.000 OA
ENDBRANCH   6  20
TORSDOF 2
ENDMDL
MODEL 6
REMARK VINA RESULT:      -8.4      3.257      4.735
REMARK  Name = 
REMARK  2 active torsions:
REMARK  status: ('A' for Active; 'I' for Inactive)
REMARK    1  A    between atoms: C_2  and  C_18
REMARK    2  A    between atoms: C_6  and  C_7
REMARK                            x       y       z     vdW  Elec       q    Type
REMARK                         _______ _______ _______ _____ _____    ______ ____
ROOT
ATOM      1  O   UNL     1       1.059  10.227  22.306  0.00  0.00    +0.000 OA
ATOM      2  C   UNL     1       0.640  11.035  21.482  0.00  0.00    +0.000 C 
ATOM      3  N   UNL     1       0.685  10.899  20.117  0.00  0.00    +0.000 N 
ATOM      4  C   UNL     1       1.230   9.791  19.538  0.00  0.00    +0.000 A 
ATOM      5  N   UNL     1       1.550   8.650  20.093  0.00  0.00    +0.000 NA
ATOM      6  C   UNL     1       2.102   7.803  19.149  0.00  0.00    +0.000 A 
ATOM      7  C   UNL     1       2.257   8.374  17.896  0.00  0.00    +0.000 A 
ATOM      8  S   UNL     1       1.552   9.941  17.872  0.00  0.00    +0.000 S 
ATOM      9  H   UNL     1       0.395  11.681  19.543  0.00  0.00    +0.000 HD
ENDROOT
BRANCH   2  10
ATOM     10  C   UNL     1       0.051  12.314  21.915  0.00  0.00    +0.000 A 
ATOM     11  N   UNL     1       0.643  13.509  21.695  0.00  0.00    +0.000 NA
ATOM     12  N   UNL     1      -0.253  14.397  22.179  0.00  0.00    +0.000 N 
ATOM     13  C   UNL     1      -1.359  13.833  22.756  0.00  0.00    +0.000 A 
ATOM     14  C   UNL     1      -2.484  14.391  23.376  0.00  0.00    +0.000 A 
ATOM     15  C   UNL     1      -3.445  13.503  23.876  0.00  0.00    +0.000 A 
ATOM     16  C   UNL     1      -3.287  12.124  23.759  0.00  0.00    +0.000 A 
ATOM     17  C   UNL     1      -2.163  11.590  23.124  0.00  0.00    +0.000 A 
ATOM     18  C   UNL     1      -1.184  12.464  22.611  0.00  0.00    +0.000 A 
ATOM     19  H   UNL     1      -0.050  15.387  22.092  0.00  0.00    +0.000 HD
ENDBRANCH   2  10
BRANCH   6  20
ATOM     20  C   UNL     1       2.489   6.432  19.477  0.00  0.00    +0.000 A 
ATOM     21  C   UNL     1       3.612   5.836  18.857  0.00  0.00    +0.000 A 
ATOM     22  C   UNL     1       3.992   4.522  19.141  0.00  0.00    +0.000 A 
ATOM     23  C   UNL     1       3.240   3.820  20.054  0.00  0.00    +0.000 A 
ATOM     24  C   UNL     1       2.126   4.370  20.668  0.00  0.00    +0.000 A 
ATOM     25  C   UNL     1       1.726   5.670  20.382  0.00  0.00    +0.000 A 
ATOM     26  C   UNL     1       1.493   3.338  21.521  0.00  0.00    +0.000 C 
ATOM     27  C   UNL     1       2.637   2.323  21.566  0.00  0.00    +0.000 C 
ATOM     28  O   UNL     1       3.493   2.522  20.418  0.00  0.00    +0.000 OA
ENDBRANCH   6  20
TORSDOF 2
ENDMDL
MODEL 7
REMARK VINA RESULT:      -8.3      2.719      9.650
REMARK  Name = 
REMARK  2 active torsions:
REMARK  status: ('A' for Active; 'I' for Inactive)
REMARK    1  A    between atoms: C_2  and  C_18
REMARK    2  A    between atoms: C_6  and  C_7
REMARK                            x       y       z     vdW  Elec       q    Type
REMARK                         _______ _______ _______ _____ _____    ______ ____
ROOT
ATOM      1  O   UNL     1       5.266   7.128  15.852  0.00  0.00    +0.000 OA
ATOM      2  C   UNL     1       5.431   5.912  15.810  0.00  0.00    +0.000 C 
ATOM      3  N   UNL     1       4.900   4.991  16.678  0.00  0.00    +0.000 N 
ATOM      4  C   UNL     1       4.101   5.378  17.713  0.00  0.00    +0.000 A 
ATOM      5  N   UNL     1       3.532   6.539  17.919  0.00  0.00    +0.000 NA
ATOM      6  C   UNL     1       2.826   6.515  19.108  0.00  0.00    +0.000 A 
ATOM      7  C   UNL     1       2.952   5.332  19.819  0.00  0.00    +0.000 A 
ATOM      8  S   UNL     1       3.840   4.184  18.899  0.00  0.00    +0.000 S 
ATOM      9  H   UNL     1       5.192   4.025  16.595  0.00  0.00    +0.000 HD
ENDROOT
BRANCH   2  10
ATOM     10  C   UNL     1       6.296   5.306  14.784  0.00  0.00    +0.000 A 
ATOM     11  N   UNL     1       7.634   5.502  14.739  0.00  0.00    +0.000 NA
ATOM     12  N   UNL     1       8.031   4.723  13.709  0.00  0.00    +0.000 N 
ATOM     13  C   UNL     1       7.013   4.088  13.050  0.00  0.00    +0.000 A 
ATOM     14  C   UNL     1       7.001   3.226  11.946  0.00  0.00    +0.000 A 
ATOM     15  C   UNL     1       5.754   2.754  11.517  0.00  0.00    +0.000 A 
ATOM     16  C   UNL     1       4.577   3.127  12.163  0.00  0.00    +0.000 A 
ATOM     17  C   UNL     1       4.614   3.975  13.272  0.00  0.00    +0.000 A 
ATOM     18  C   UNL     1       5.858   4.461  13.724  0.00  0.00    +0.000 A 
ATOM     19  H   UNL     1       9.021   4.667  13.497  0.00  0.00    +0.000 HD
ENDBRANCH   2  10
BRANCH   6  20
ATOM     20  C   UNL     1       2.032   7.658  19.556  0.00  0.00    +0.000 A 
ATOM     21  C   UNL     1       1.732   8.714  18.664  0.00  0.00    +0.000 A 
ATOM     22  C   UNL     1       0.990   9.825  19.071  0.00  0.00    +0.000 A 
ATOM     23  C   UNL     1       0.550   9.860  20.375  0.00  0.00    +0.000 A 
ATOM     24  C   UNL     1       0.839   8.848  21.276  0.00  0.00    +0.000 A 
ATOM     25  C   UNL     1       1.591   7.745  20.889  0.00  0.00    +0.000 A 
ATOM     26  C   UNL     1       0.302   9.224  22.604  0.00  0.00    +0.000 C 
ATOM     27  C   UNL     1      -0.627  10.363  22.178  0.00  0.00    +0.000 C 
ATOM     28  O   UNL     1      -0.178  10.892  20.910  0.00  0.00    +0.000 OA
ENDBRANCH   6  20
TORSDOF 2
ENDMDL
MODEL 8
REMARK VINA RESULT:      -8.3      1.796      2.241
REMARK  Name = 
REMARK  2 active torsions:
REMARK  status: ('A' for Active; 'I' for Inactive)
REMARK    1  A    between atoms: C_2  and  C_18
REMARK    2  A    between atoms: C_6  and  C_7
REMARK                            x       y       z     vdW  Elec       q    Type
REMARK                         _______ _______ _______ _____ _____    ______ ____
ROOT
ATOM      1  O   UNL     1       2.041   9.186  17.434  0.00  0.00    +0.000 OA
ATOM      2  C   UNL     1       1.703   8.999  18.599  0.00  0.00    +0.000 C 
ATOM      3  N   UNL     1       2.021   7.910  19.372  0.00  0.00    +0.000 N 
ATOM      4  C   UNL     1       2.783   6.893  18.875  0.00  0.00    +0.000 A 
ATOM      5  N   UNL     1       3.497   6.866  17.779  0.00  0.00    +0.000 NA
ATOM      6  C   UNL     1       4.095   5.626  17.636  0.00  0.00    +0.000 A 
ATOM      7  C   UNL     1       3.739   4.709  18.612  0.00  0.00    +0.000 A 
ATOM      8  S   UNL     1       2.769   5.469  19.809  0.00  0.00    +0.000 S 
ATOM      9  H   UNL     1       1.598   7.827  20.288  0.00  0.00    +0.000 HD
ENDROOT
BRANCH   2  10
ATOM     10  C   UNL     1       0.843   9.970  19.297  0.00  0.00    +0.000 A 
ATOM     11  N   UNL     1       0.339  11.072  18.697  0.00  0.00    +0.000 NA
ATOM     12  N   UNL     1      -0.432  11.628  19.658  0.00  0.00    +0.000 N 
ATOM     13  C   UNL     1      -0.400  10.976  20.861  0.00  0.00    +0.000 A 
ATOM     14  C   UNL     1      -1.028  11.233  22.086  0.00  0.00    +0.000 A 
ATOM     15  C   UNL     1      -0.762  10.348  23.139  0.00  0.00    +0.000 A 
ATOM     16  C   UNL     1       0.090   9.259  22.972  0.00  0.00    +0.000 A 
ATOM     17  C   UNL     1       0.694   9.014  21.737  0.00  0.00    +0.000 A 
ATOM     18  C   UNL     1       0.440   9.889  20.662  0.00  0.00    +0.000 A 
ATOM     19  H   UNL     1      -0.960  12.464  19.432  0.00  0.00    +0.000 HD
ENDBRANCH   2  10
BRANCH   6  20
ATOM     20  C   UNL     1       5.009   5.335  16.533  0.00  0.00    +0.000 A 
ATOM     21  C   UNL     1       6.353   5.775  16.582  0.00  0.00    +0.000 A 
ATOM     22  C   UNL     1       7.242   5.524  15.534  0.00  0.00    +0.000 A 
ATOM     23  C   UNL     1       6.771   4.824  14.446  0.00  0.00    +0.000 A 
ATOM     24  C   UNL     1       5.457   4.392  14.363  0.00  0.00    +0.000 A 
ATOM     25  C   UNL     1       4.557   4.649  15.390  0.00  0.00    +0.000 A 
ATOM     26  C   UNL     1       5.248   3.753  13.043  0.00  0.00    +0.000 C 
ATOM     27  C   UNL     1       6.709   3.570  12.627  0.00  0.00    +0.000 C 
ATOM     28  O   UNL     1       7.530   4.518  13.346  0.00  0.00    +0.000 OA
ENDBRANCH   6  20
TORSDOF 2
ENDMDL
MODEL 9
REMARK VINA RESULT:      -8.3      3.405      9.614
REMARK  Name = 
REMARK  2 active torsions:
REMARK  status: ('A' for Active; 'I' for Inactive)
REMARK    1  A    between atoms: C_2  and  C_18
REMARK    2  A    between atoms: C_6  and  C_7
REMARK                            x       y       z     vdW  Elec       q    Type
REMARK                         _______ _______ _______ _____ _____    ______ ____
ROOT
ATOM      1  O   UNL     1       1.454   6.516  20.789  0.00  0.00    +0.000 OA
ATOM      2  C   UNL     1       2.264   6.628  19.872  0.00  0.00    +0.000 C 
ATOM      3  N   UNL     1       2.424   7.724  19.061  0.00  0.00    +0.000 N 
ATOM      4  C   UNL     1       1.651   8.837  19.221  0.00  0.00    +0.000 A 
ATOM      5  N   UNL     1       0.870   9.154  20.221  0.00  0.00    +0.000 NA
ATOM      6  C   UNL     1       0.246  10.362  19.968  0.00  0.00    +0.000 A 
ATOM      7  C   UNL     1       0.523  10.893  18.719  0.00  0.00    +0.000 A 
ATOM      8  S   UNL     1       1.707   9.937  17.922  0.00  0.00    +0.000 S 
ATOM      9  H   UNL     1       3.060   7.655  18.276  0.00  0.00    +0.000 HD
ENDROOT
BRANCH   2  10
ATOM     10  C   UNL     1       3.161   5.514  19.521  0.00  0.00    +0.000 A 
ATOM     11  N   UNL     1       4.508   5.627  19.517  0.00  0.00    +0.000 NA
ATOM     12  N   UNL     1       4.927   4.378  19.214  0.00  0.00    +0.000 N 
ATOM     13  C   UNL     1       3.920   3.486  18.961  0.00  0.00    +0.000 A 
ATOM     14  C   UNL     1       3.932   2.132  18.605  0.00  0.00    +0.000 A 
ATOM     15  C   UNL     1       2.691   1.511  18.411  0.00  0.00    +0.000 A 
ATOM     16  C   UNL     1       1.498   2.212  18.568  0.00  0.00    +0.000 A 
ATOM     17  C   UNL     1       1.510   3.558  18.939  0.00  0.00    +0.000 A 
ATOM     18  C   UNL     1       2.746   4.204  19.142  0.00  0.00    +0.000 A 
ATOM     19  H   UNL     1       5.924   4.194  19.189  0.00  0.00    +0.000 HD
ENDBRANCH   2  10
BRANCH   6  20
ATOM     20  C   UNL     1      -0.634  10.995  20.950  0.00  0.00    +0.000 A 
ATOM     21  C   UNL     1      -0.610  10.583  22.303  0.00  0.00    +0.000 A 
ATOM     22  C   UNL     1      -1.452  11.161  23.257  0.00  0.00    +0.000 A 
ATOM     23  C   UNL     1      -2.308  12.155  22.840  0.00  0.00    +0.000 A 
ATOM     24  C   UNL     1      -2.364  12.570  21.519  0.00  0.00    +0.000 A 
ATOM     25  C   UNL     1      -1.545  11.993  20.556  0.00  0.00    +0.000 A 
ATOM     26  C   UNL     1      -3.437  13.583  21.383  0.00  0.00    +0.000 C 
ATOM     27  C   UNL     1      -3.653  13.910  22.863  0.00  0.00    +0.000 C 
ATOM     28  O   UNL     1      -3.193  12.798  23.665  0.00  0.00    +0.000 OA
ENDBRANCH   6  20
TORSDOF 2
ENDMDL
