MODEL 1
REMARK VINA RESULT:      -8.2      0.000      0.000
REMARK  Name = 
REMARK  4 active torsions:
REMARK  status: ('A' for Active; 'I' for Inactive)
REMARK    1  A    between atoms: C_2  and  C_3
REMARK    2  A    between atoms: C_3  and  C_4
REMARK    3  A    between atoms: N_13  and  C_14
REMARK    4  A    between atoms: C_14  and  C_15
REMARK                            x       y       z     vdW  Elec       q    Type
REMARK                         _______ _______ _______ _____ _____    ______ ____
ROOT
ATOM      1  O   UNL     1       2.010   3.579  17.034  0.00  0.00    +0.000 OA
ATOM      2  C   UNL     1       3.141   3.530  17.518  0.00  0.00    +0.000 C 
ATOM      3  N   UNL     1       3.403   3.743  18.860  0.00  0.00    +0.000 N 
ATOM      4  H   UNL     1       4.368   3.936  19.102  0.00  0.00    +0.000 HD
ENDROOT
BRANCH   3   5
ATOM      5  C   UNL     1       2.340   4.057  19.867  0.00  0.00    +0.000 C 
ATOM      6  C   UNL     1       2.617   3.297  21.229  0.00  0.00    +0.000 C 
ATOM      7  C   UNL     1       1.111   2.982  21.298  0.00  0.00    +0.000 C 
ATOM      8  C   UNL     1       1.085   3.101  19.767  0.00  0.00    +0.000 C 
BRANCH   5   9
ATOM      9  C   UNL     1       2.058   5.639  19.986  0.00  0.00    +0.000 A 
ATOM     10  C   UNL     1       2.510   6.547  19.007  0.00  0.00    +0.000 A 
ATOM     11  C   UNL     1       2.214   7.912  19.065  0.00  0.00    +0.000 A 
ATOM     12  C   UNL     1       1.464   8.417  20.122  0.00  0.00    +0.000 A 
ATOM     13  C   UNL     1       1.038   7.563  21.131  0.00  0.00    +0.000 A 
ATOM     14  C   UNL     1       1.344   6.201  21.067  0.00  0.00    +0.000 A 
ENDBRANCH   5   9
ENDBRANCH   3   5
BRANCH   2  15
ATOM     15  C   UNL     1       4.358   3.143  16.693  0.00  0.00    +0.000 C 
BRANCH  15  16
ATOM     16  C   UNL     1       5.264   4.290  16.372  0.00  0.00    +0.000 A 
ATOM     17  C   UNL     1       5.378   4.924  15.147  0.00  0.00    +0.000 A 
ATOM     18  N   UNL     1       6.270   5.956  15.275  0.00  0.00    +0.000 N 
ATOM     19  C   UNL     1       6.736   6.026  16.565  0.00  0.00    +0.000 A 
ATOM     20  C   UNL     1       7.645   6.919  17.147  0.00  0.00    +0.000 A 
ATOM     21  C   UNL     1       7.929   6.761  18.506  0.00  0.00    +0.000 A 
ATOM     22  C   UNL     1       7.322   5.754  19.252  0.00  0.00    +0.000 A 
ATOM     23  C   UNL     1       6.415   4.871  18.653  0.00  0.00    +0.000 A 
ATOM     24  C   UNL     1       6.118   4.999  17.281  0.00  0.00    +0.000 A 
ATOM     25  H   UNL     1       6.535   6.596  14.537  0.00  0.00    +0.000 HD
ENDBRANCH  15  16
ENDBRANCH   2  15
TORSDOF 4
ENDMDL
MODEL 2
REMARK VINA RESULT:      -8.2      1.768      2.919
REMARK  Name = 
REMARK  4 active torsions:
REMARK  status: ('A' for Active; 'I' for Inactive)
REMARK    1  A    between atoms: C_2  and  C_3
REMARK    2  A    between atoms: C_3  and  C_4
REMARK    3  A    between atoms: N_13  and  C_14
REMARK    4  A    between atoms: C_14  and  C_15
REMARK                            x       y       z     vdW  Elec       q    Type
REMARK                         _______ _______ _______ _____ _____    ______ ____
ROOT
ATOM      1  O   UNL     1       5.087   4.250  18.665  0.00  0.00    +0.000 OA
ATOM      2  C   UNL     1       4.323   3.730  17.852  0.00  0.00    +0.000 C 
ATOM      3  N   UNL     1       2.957   3.627  18.050  0.00  0.00    +0.000 N 
ATOM      4  H   UNL     1       2.468   2.965  17.459  0.00  0.00    +0.000 HD
ENDROOT
BRANCH   3   5
ATOM      5  C   UNL     1       2.262   4.135  19.275  0.00  0.00    +0.000 C 
ATOM      6  C   UNL     1       2.855   3.456  20.577  0.00  0.00    +0.000 C 
ATOM      7  C   UNL     1       1.413   3.320  21.099  0.00  0.00    +0.000 C 
ATOM      8  C   UNL     1       0.954   3.324  19.634  0.00  0.00    +0.000 C 
BRANCH   5   9
ATOM      9  C   UNL     1       2.166   5.743  19.300  0.00  0.00    +0.000 A 
ATOM     10  C   UNL     1       2.413   6.518  18.148  0.00  0.00    +0.000 A 
ATOM     11  C   UNL     1       2.268   7.908  18.141  0.00  0.00    +0.000 A 
ATOM     12  C   UNL     1       1.881   8.574  19.299  0.00  0.00    +0.000 A 
ATOM     13  C   UNL     1       1.671   7.852  20.467  0.00  0.00    +0.000 A 
ATOM     14  C   UNL     1       1.826   6.463  20.466  0.00  0.00    +0.000 A 
ENDBRANCH   5   9
ENDBRANCH   3   5
BRANCH   2  15
ATOM     15  C   UNL     1       4.803   3.224  16.500  0.00  0.00    +0.000 C 
BRANCH  15  16
ATOM     16  C   UNL     1       5.820   4.108  15.847  0.00  0.00    +0.000 A 
ATOM     17  C   UNL     1       6.630   5.031  16.485  0.00  0.00    +0.000 A 
ATOM     18  N   UNL     1       7.458   5.598  15.552  0.00  0.00    +0.000 N 
ATOM     19  C   UNL     1       7.220   5.056  14.312  0.00  0.00    +0.000 A 
ATOM     20  C   UNL     1       7.830   5.323  13.080  0.00  0.00    +0.000 A 
ATOM     21  C   UNL     1       7.391   4.601  11.968  0.00  0.00    +0.000 A 
ATOM     22  C   UNL     1       6.385   3.645  12.088  0.00  0.00    +0.000 A 
ATOM     23  C   UNL     1       5.787   3.390  13.327  0.00  0.00    +0.000 A 
ATOM     24  C   UNL     1       6.203   4.112  14.464  0.00  0.00    +0.000 A 
ATOM     25  H   UNL     1       8.163   6.297  15.743  0.00  0.00    +0.000 HD
ENDBRANCH  15  16
ENDBRANCH   2  15
TORSDOF 4
ENDMDL
MODEL 3
REMARK VINA RESULT:      -8.0      1.624      5.980
REMARK  Name = 
REMARK  4 active torsions:
REMARK  status: ('A' for Active; 'I' for Inactive)
REMARK    1  A    between atoms: C_2  and  C_3
REMARK    2  A    between atoms: C_3  and  C_4
REMARK    3  A    between atoms: N_13  and  C_14
REMARK    4  A    between atoms: C_14  and  C_15
REMARK                            x       y       z     vdW  Elec       q    Type
REMARK                         _______ _______ _______ _____ _____    ______ ____
ROOT
ATOM      1  O   UNL     1       4.452   3.615  18.504  0.00  0.00    +0.000 OA
ATOM      2  C   UNL     1       3.740   4.417  17.900  0.00  0.00    +0.000 C 
ATOM      3  N   UNL     1       4.183   5.169  16.826  0.00  0.00    +0.000 N 
ATOM      4  H   UNL     1       3.615   5.968  16.575  0.00  0.00    +0.000 HD
ENDROOT
BRANCH   3   5
ATOM      5  C   UNL     1       5.577   5.087  16.284  0.00  0.00    +0.000 C 
ATOM      6  C   UNL     1       5.592   5.393  14.730  0.00  0.00    +0.000 C 
ATOM      7  C   UNL     1       6.587   4.230  14.564  0.00  0.00    +0.000 C 
ATOM      8  C   UNL     1       5.991   3.627  15.844  0.00  0.00    +0.000 C 
BRANCH   5   9
ATOM      9  C   UNL     1       6.630   5.919  17.176  0.00  0.00    +0.000 A 
ATOM     10  C   UNL     1       6.939   7.265  16.894  0.00  0.00    +0.000 A 
ATOM     11  C   UNL     1       7.799   8.016  17.701  0.00  0.00    +0.000 A 
ATOM     12  C   UNL     1       8.394   7.434  18.815  0.00  0.00    +0.000 A 
ATOM     13  C   UNL     1       8.150   6.097  19.102  0.00  0.00    +0.000 A 
ATOM     14  C   UNL     1       7.294   5.353  18.286  0.00  0.00    +0.000 A 
ENDBRANCH   5   9
ENDBRANCH   3   5
BRANCH   2  15
ATOM     15  C   UNL     1       2.266   4.596  18.228  0.00  0.00    +0.000 C 
BRANCH  15  16
ATOM     16  C   UNL     1       1.991   5.695  19.207  0.00  0.00    +0.000 A 
ATOM     17  C   UNL     1       1.878   5.558  20.579  0.00  0.00    +0.000 A 
ATOM     18  N   UNL     1       1.679   6.799  21.123  0.00  0.00    +0.000 N 
ATOM     19  C   UNL     1       1.673   7.756  20.137  0.00  0.00    +0.000 A 
ATOM     20  C   UNL     1       1.514   9.145  20.231  0.00  0.00    +0.000 A 
ATOM     21  C   UNL     1       1.567   9.885  19.047  0.00  0.00    +0.000 A 
ATOM     22  C   UNL     1       1.777   9.259  17.820  0.00  0.00    +0.000 A 
ATOM     23  C   UNL     1       1.935   7.870  17.746  0.00  0.00    +0.000 A 
ATOM     24  C   UNL     1       1.875   7.097  18.923  0.00  0.00    +0.000 A 
ATOM     25  H   UNL     1       1.574   6.996  22.110  0.00  0.00    +0.000 HD
ENDBRANCH  15  16
ENDBRANCH   2  15
TORSDOF 4
ENDMDL
MODEL 4
REMARK VINA RESULT:      -7.9      2.277      6.168
REMARK  Name = 
REMARK  4 active torsions:
REMARK  status: ('A' for Active; 'I' for Inactive)
REMARK    1  A    between atoms: C_2  and  C_3
REMARK    2  A    between atoms: C_3  and  C_4
REMARK    3  A    between atoms: N_13  and  C_14
REMARK    4  A    between atoms: C_14  and  C_15
REMARK                            x       y       z     vdW  Elec       q    Type
REMARK                         _______ _______ _______ _____ _____    ______ ____
ROOT
ATOM      1  O   UNL     1       2.136   5.801  17.794  0.00  0.00    +0.000 OA
ATOM      2  C   UNL     1       2.581   5.837  18.940  0.00  0.00    +0.000 C 
ATOM      3  N   UNL     1       3.446   4.884  19.451  0.00  0.00    +0.000 N 
ATOM      4  H   UNL     1       3.541   4.862  20.459  0.00  0.00    +0.000 HD
ENDROOT
BRANCH   3   5
ATOM      5  C   UNL     1       3.931   3.707  18.663  0.00  0.00    +0.000 C 
ATOM      6  C   UNL     1       2.711   2.845  18.136  0.00  0.00    +0.000 C 
ATOM      7  C   UNL     1       3.506   1.583  18.517  0.00  0.00    +0.000 C 
ATOM      8  C   UNL     1       4.239   2.441  19.558  0.00  0.00    +0.000 C 
BRANCH   5   9
ATOM      9  C   UNL     1       5.031   4.120  17.561  0.00  0.00    +0.000 A 
ATOM     10  C   UNL     1       6.320   4.555  17.929  0.00  0.00    +0.000 A 
ATOM     11  C   UNL     1       7.305   4.852  16.982  0.00  0.00    +0.000 A 
ATOM     12  C   UNL     1       7.022   4.738  15.625  0.00  0.00    +0.000 A 
ATOM     13  C   UNL     1       5.750   4.355  15.220  0.00  0.00    +0.000 A 
ATOM     14  C   UNL     1       4.771   4.066  16.175  0.00  0.00    +0.000 A 
ENDBRANCH   5   9
ENDBRANCH   3   5
BRANCH   2  15
ATOM     15  C   UNL     1       2.287   6.992  19.886  0.00  0.00    +0.000 C 
BRANCH  15  16
ATOM     16  C   UNL     1       1.920   8.266  19.192  0.00  0.00    +0.000 A 
ATOM     17  C   UNL     1       2.332   8.658  17.931  0.00  0.00    +0.000 A 
ATOM     18  N   UNL     1       1.739   9.857  17.634  0.00  0.00    +0.000 N 
ATOM     19  C   UNL     1       0.930  10.257  18.670  0.00  0.00    +0.000 A 
ATOM     20  C   UNL     1       0.130  11.400  18.798  0.00  0.00    +0.000 A 
ATOM     21  C   UNL     1      -0.610  11.545  19.974  0.00  0.00    +0.000 A 
ATOM     22  C   UNL     1      -0.556  10.580  20.978  0.00  0.00    +0.000 A 
ATOM     23  C   UNL     1       0.248   9.443  20.831  0.00  0.00    +0.000 A 
ATOM     24  C   UNL     1       1.014   9.277  19.660  0.00  0.00    +0.000 A 
ATOM     25  H   UNL     1       1.854  10.369  16.770  0.00  0.00    +0.000 HD
ENDBRANCH  15  16
ENDBRANCH   2  15
TORSDOF 4
ENDMDL
MODEL 5
REMARK VINA RESULT:      -7.9      1.857      6.500
REMARK  Name = 
REMARK  4 active torsions:
REMARK  status: ('A' for Active; 'I' for Inactive)
REMARK    1  A    between atoms: C_2  and  C_3
REMARK    2  A    between atoms: C_3  and  C_4
REMARK    3  A    between atoms: N_13  and  C_14
REMARK    4  A    between atoms: C_14  and  C_15
REMARK                            x       y       z     vdW  Elec       q    Type
REMARK                         _______ _______ _______ _____ _____    ______ ____
ROOT
ATOM      1  O   UNL     1       4.394   7.577  16.167  0.00  0.00    +0.000 OA
ATOM      2  C   UNL     1       4.010   7.134  17.249  0.00  0.00    +0.000 C 
ATOM      3  N   UNL     1       4.790   6.330  18.063  0.00  0.00    +0.000 N 
ATOM      4  H   UNL     1       4.300   5.816  18.785  0.00  0.00    +0.000 HD
ENDROOT
BRANCH   3   5
ATOM      5  C   UNL     1       6.185   5.913  17.713  0.00  0.00    +0.000 C 
ATOM      6  C   UNL     1       6.875   5.184  18.938  0.00  0.00    +0.000 C 
ATOM      7  C   UNL     1       8.157   5.973  18.618  0.00  0.00    +0.000 C 
ATOM      8  C   UNL     1       7.259   7.041  17.978  0.00  0.00    +0.000 C 
BRANCH   5   9
ATOM      9  C   UNL     1       6.256   5.140  16.301  0.00  0.00    +0.000 A 
ATOM     10  C   UNL     1       5.445   4.020  16.028  0.00  0.00    +0.000 A 
ATOM     11  C   UNL     1       5.449   3.383  14.784  0.00  0.00    +0.000 A 
ATOM     12  C   UNL     1       6.284   3.841  13.770  0.00  0.00    +0.000 A 
ATOM     13  C   UNL     1       7.131   4.914  14.012  0.00  0.00    +0.000 A 
ATOM     14  C   UNL     1       7.124   5.540  15.262  0.00  0.00    +0.000 A 
ENDBRANCH   5   9
ENDBRANCH   3   5
BRANCH   2  15
ATOM     15  C   UNL     1       2.657   7.502  17.839  0.00  0.00    +0.000 C 
BRANCH  15  16
ATOM     16  C   UNL     1       2.259   6.665  19.014  0.00  0.00    +0.000 A 
ATOM     17  C   UNL     1       2.112   7.103  20.318  0.00  0.00    +0.000 A 
ATOM     18  N   UNL     1       1.686   6.051  21.084  0.00  0.00    +0.000 N 
ATOM     19  C   UNL     1       1.534   4.928  20.307  0.00  0.00    +0.000 A 
ATOM     20  C   UNL     1       1.114   3.639  20.660  0.00  0.00    +0.000 A 
ATOM     21  C   UNL     1       1.038   2.681  19.646  0.00  0.00    +0.000 A 
ATOM     22  C   UNL     1       1.364   3.004  18.331  0.00  0.00    +0.000 A 
ATOM     23  C   UNL     1       1.781   4.298  17.997  0.00  0.00    +0.000 A 
ATOM     24  C   UNL     1       1.878   5.281  19.002  0.00  0.00    +0.000 A 
ATOM     25  H   UNL     1       1.486   6.090  22.075  0.00  0.00    +0.000 HD
ENDBRANCH  15  16
ENDBRANCH   2  15
TORSDOF 4
ENDMDL
MODEL 6
REMARK VINA RESULT:      -7.9      2.272      6.136
REMARK  Name = 
REMARK  4 active torsions:
REMARK  status: ('A' for Active; 'I' for Inactive)
REMARK    1  A    between atoms: C_2  and  C_3
REMARK    2  A    between atoms: C_3  and  C_4
REMARK    3  A    between atoms: N_13  and  C_14
REMARK    4  A    between atoms: C_14  and  C_15
REMARK                            x       y       z     vdW  Elec       q    Type
REMARK                         _______ _______ _______ _____ _____    ______ ____
ROOT
ATOM      1  O   UNL     1       1.950   5.691  17.958  0.00  0.00    +0.000 OA
ATOM      2  C   UNL     1       2.537   5.820  19.032  0.00  0.00    +0.000 C 
ATOM      3  N   UNL     1       3.513   4.944  19.476  0.00  0.00    +0.000 N 
ATOM      4  H   UNL     1       3.739   4.989  20.462  0.00  0.00    +0.000 HD
ENDROOT
BRANCH   3   5
ATOM      5  C   UNL     1       3.959   3.746  18.696  0.00  0.00    +0.000 C 
ATOM      6  C   UNL     1       2.712   2.908  18.196  0.00  0.00    +0.000 C 
ATOM      7  C   UNL     1       3.481   1.631  18.582  0.00  0.00    +0.000 C 
ATOM      8  C   UNL     1       4.249   2.484  19.602  0.00  0.00    +0.000 C 
BRANCH   5   9
ATOM      9  C   UNL     1       5.054   4.119  17.574  0.00  0.00    +0.000 A 
ATOM     10  C   UNL     1       4.731   4.140  16.203  0.00  0.00    +0.000 A 
ATOM     11  C   UNL     1       5.653   4.527  15.226  0.00  0.00    +0.000 A 
ATOM     12  C   UNL     1       6.944   4.893  15.594  0.00  0.00    +0.000 A 
ATOM     13  C   UNL     1       7.316   4.843  16.931  0.00  0.00    +0.000 A 
ATOM     14  C   UNL     1       6.388   4.449  17.899  0.00  0.00    +0.000 A 
ENDBRANCH   5   9
ENDBRANCH   3   5
BRANCH   2  15
ATOM     15  C   UNL     1       2.302   7.015  19.944  0.00  0.00    +0.000 C 
BRANCH  15  16
ATOM     16  C   UNL     1       1.937   8.271  19.216  0.00  0.00    +0.000 A 
ATOM     17  C   UNL     1       2.385   8.649  17.963  0.00  0.00    +0.000 A 
ATOM     18  N   UNL     1       1.783   9.832  17.626  0.00  0.00    +0.000 N 
ATOM     19  C   UNL     1       0.933  10.236  18.628  0.00  0.00    +0.000 A 
ATOM     20  C   UNL     1       0.111  11.367  18.710  0.00  0.00    +0.000 A 
ATOM     21  C   UNL     1      -0.670  11.519  19.858  0.00  0.00    +0.000 A 
ATOM     22  C   UNL     1      -0.634  10.572  20.879  0.00  0.00    +0.000 A 
ATOM     23  C   UNL     1       0.193   9.447  20.779  0.00  0.00    +0.000 A 
ATOM     24  C   UNL     1       1.001   9.274  19.636  0.00  0.00    +0.000 A 
ATOM     25  H   UNL     1       1.918  10.332  16.757  0.00  0.00    +0.000 HD
ENDBRANCH  15  16
ENDBRANCH   2  15
TORSDOF 4
ENDMDL
MODEL 7
REMARK VINA RESULT:      -7.9      1.629      6.042
REMARK  Name = 
REMARK  4 active torsions:
REMARK  status: ('A' for Active; 'I' for Inactive)
REMARK    1  A    between atoms: C_2  and  C_3
REMARK    2  A    between atoms: C_3  and  C_4
REMARK    3  A    between atoms: N_13  and  C_14
REMARK    4  A    between atoms: C_14  and  C_15
REMARK                            x       y       z     vdW  Elec       q    Type
REMARK                         _______ _______ _______ _____ _____    ______ ____
ROOT
ATOM      1  O   UNL     1       4.752   3.742  18.740  0.00  0.00    +0.000 OA
ATOM      2  C   UNL     1       3.944   4.406  18.091  0.00  0.00    +0.000 C 
ATOM      3  N   UNL     1       4.285   5.119  16.955  0.00  0.00    +0.000 N 
ATOM      4  H   UNL     1       3.624   5.825  16.655  0.00  0.00    +0.000 HD
ENDROOT
BRANCH   3   5
ATOM      5  C   UNL     1       5.673   5.160  16.394  0.00  0.00    +0.000 C 
ATOM      6  C   UNL     1       5.639   5.441  14.836  0.00  0.00    +0.000 C 
ATOM      7  C   UNL     1       6.737   4.374  14.673  0.00  0.00    +0.000 C 
ATOM      8  C   UNL     1       6.216   3.737  15.970  0.00  0.00    +0.000 C 
BRANCH   5   9
ATOM      9  C   UNL     1       6.655   6.099  17.260  0.00  0.00    +0.000 A 
ATOM     10  C   UNL     1       7.366   5.602  18.371  0.00  0.00    +0.000 A 
ATOM     11  C   UNL     1       8.271   6.389  19.088  0.00  0.00    +0.000 A 
ATOM     12  C   UNL     1       8.483   7.714  18.723  0.00  0.00    +0.000 A 
ATOM     13  C   UNL     1       7.769   8.256  17.662  0.00  0.00    +0.000 A 
ATOM     14  C   UNL     1       6.862   7.462  16.955  0.00  0.00    +0.000 A 
ENDBRANCH   5   9
ENDBRANCH   3   5
BRANCH   2  15
ATOM     15  C   UNL     1       2.462   4.436  18.432  0.00  0.00    +0.000 C 
BRANCH  15  16
ATOM     16  C   UNL     1       2.075   5.549  19.355  0.00  0.00    +0.000 A 
ATOM     17  C   UNL     1       1.884   5.449  20.722  0.00  0.00    +0.000 A 
ATOM     18  N   UNL     1       1.592   6.694  21.212  0.00  0.00    +0.000 N 
ATOM     19  C   UNL     1       1.601   7.619  20.196  0.00  0.00    +0.000 A 
ATOM     20  C   UNL     1       1.371   9.000  20.234  0.00  0.00    +0.000 A 
ATOM     21  C   UNL     1       1.461   9.706  19.032  0.00  0.00    +0.000 A 
ATOM     22  C   UNL     1       1.777   9.055  17.842  0.00  0.00    +0.000 A 
ATOM     23  C   UNL     1       2.005   7.674  17.823  0.00  0.00    +0.000 A 
ATOM     24  C   UNL     1       1.909   6.935  19.019  0.00  0.00    +0.000 A 
ATOM     25  H   UNL     1       1.417   6.915  22.183  0.00  0.00    +0.000 HD
ENDBRANCH  15  16
ENDBRANCH   2  15
TORSDOF 4
ENDMDL
MODEL 8
REMARK VINA RESULT:      -7.9      3.333      6.925
REMARK  Name = 
REMARK  4 active torsions:
REMARK  status: ('A' for Active; 'I' for Inactive)
REMARK    1  A    between atoms: C_2  and  C_3
REMARK    2  A    between atoms: C_3  and  C_4
REMARK    3  A    between atoms: N_13  and  C_14
REMARK    4  A    between atoms: C_14  and  C_15
REMARK                            x       y       z     vdW  Elec       q    Type
REMARK                         _______ _______ _______ _____ _____    ______ ____
ROOT
ATOM      1  O   UNL     1       2.122   7.568  19.684  0.00  0.00    +0.000 OA
ATOM      2  C   UNL     1       2.372   7.732  18.490  0.00  0.00    +0.000 C 
ATOM      3  N   UNL     1       3.119   6.840  17.740  0.00  0.00    +0.000 N 
ATOM      4  H   UNL     1       3.480   7.188  16.860  0.00  0.00    +0.000 HD
ENDROOT
BRANCH   3   5
ATOM      5  C   UNL     1       3.702   5.580  18.301  0.00  0.00    +0.000 C 
ATOM      6  C   UNL     1       4.939   5.904  19.236  0.00  0.00    +0.000 C 
ATOM      7  C   UNL     1       5.669   4.709  18.596  0.00  0.00    +0.000 C 
ATOM      8  C   UNL     1       4.785   4.920  17.358  0.00  0.00    +0.000 C 
BRANCH   5   9
ATOM      9  C   UNL     1       2.577   4.612  18.929  0.00  0.00    +0.000 A 
ATOM     10  C   UNL     1       1.713   3.856  18.112  0.00  0.00    +0.000 A 
ATOM     11  C   UNL     1       0.778   2.962  18.644  0.00  0.00    +0.000 A 
ATOM     12  C   UNL     1       0.669   2.808  20.022  0.00  0.00    +0.000 A 
ATOM     13  C   UNL     1       1.472   3.568  20.863  0.00  0.00    +0.000 A 
ATOM     14  C   UNL     1       2.398   4.463  20.321  0.00  0.00    +0.000 A 
ENDBRANCH   5   9
ENDBRANCH   3   5
BRANCH   2  15
ATOM     15  C   UNL     1       1.806   8.901  17.698  0.00  0.00    +0.000 C 
BRANCH  15  16
ATOM     16  C   UNL     1       0.944   9.821  18.505  0.00  0.00    +0.000 A 
ATOM     17  C   UNL     1       1.346  10.566  19.600  0.00  0.00    +0.000 A 
ATOM     18  N   UNL     1       0.283  11.318  20.025  0.00  0.00    +0.000 N 
ATOM     19  C   UNL     1      -0.810  11.095  19.223  0.00  0.00    +0.000 A 
ATOM     20  C   UNL     1      -2.095  11.648  19.279  0.00  0.00    +0.000 A 
ATOM     21  C   UNL     1      -3.018  11.243  18.311  0.00  0.00    +0.000 A 
ATOM     22  C   UNL     1      -2.664  10.326  17.324  0.00  0.00    +0.000 A 
ATOM     23  C   UNL     1      -1.374   9.784  17.284  0.00  0.00    +0.000 A 
ATOM     24  C   UNL     1      -0.426  10.166  18.254  0.00  0.00    +0.000 A 
ATOM     25  H   UNL     1       0.298  11.966  20.802  0.00  0.00    +0.000 HD
ENDBRANCH  15  16
ENDBRANCH   2  15
TORSDOF 4
ENDMDL
MODEL 9
REMARK VINA RESULT:      -7.8      3.298      6.928
REMARK  Name = 
REMARK  4 active torsions:
REMARK  status: ('A' for Active; 'I' for Inactive)
REMARK    1  A    between atoms: C_2  and  C_3
REMARK    2  A    between atoms: C_3  and  C_4
REMARK    3  A    between atoms: N_13  and  C_14
REMARK    4  A    between atoms: C_14  and  C_15
REMARK                            x       y       z     vdW  Elec       q    Type
REMARK                         _______ _______ _______ _____ _____    ______ ____
ROOT
ATOM      1  O   UNL     1       2.221   7.536  19.647  0.00  0.00    +0.000 OA
ATOM      2  C   UNL     1       2.425   7.674  18.441  0.00  0.00    +0.000 C 
ATOM      3  N   UNL     1       3.150   6.770  17.683  0.00  0.00    +0.000 N 
ATOM      4  H   UNL     1       3.475   7.101  16.783  0.00  0.00    +0.000 HD
ENDROOT
BRANCH   3   5
ATOM      5  C   UNL     1       3.764   5.528  18.250  0.00  0.00    +0.000 C 
ATOM      6  C   UNL     1       5.007   5.884  19.164  0.00  0.00    +0.000 C 
ATOM      7  C   UNL     1       5.749   4.695  18.527  0.00  0.00    +0.000 C 
ATOM      8  C   UNL     1       4.844   4.875  17.299  0.00  0.00    +0.000 C 
BRANCH   5   9
ATOM      9  C   UNL     1       2.665   4.547  18.905  0.00  0.00    +0.000 A 
ATOM     10  C   UNL     1       2.550   4.393  20.301  0.00  0.00    +0.000 A 
ATOM     11  C   UNL     1       1.558   3.597  20.883  0.00  0.00    +0.000 A 
ATOM     12  C   UNL     1       0.652   2.914  20.077  0.00  0.00    +0.000 A 
ATOM     13  C   UNL     1       0.760   3.005  18.696  0.00  0.00    +0.000 A 
ATOM     14  C   UNL     1       1.759   3.797  18.124  0.00  0.00    +0.000 A 
ENDBRANCH   5   9
ENDBRANCH   3   5
BRANCH   2  15
ATOM     15  C   UNL     1       1.821   8.821  17.645  0.00  0.00    +0.000 C 
BRANCH  15  16
ATOM     16  C   UNL     1       0.977   9.749  18.462  0.00  0.00    +0.000 A 
ATOM     17  C   UNL     1       1.398  10.488  19.553  0.00  0.00    +0.000 A 
ATOM     18  N   UNL     1       0.347  11.251  19.990  0.00  0.00    +0.000 N 
ATOM     19  C   UNL     1      -0.756  11.041  19.198  0.00  0.00    +0.000 A 
ATOM     20  C   UNL     1      -2.035  11.608  19.266  0.00  0.00    +0.000 A 
ATOM     21  C   UNL     1      -2.970  11.215  18.307  0.00  0.00    +0.000 A 
ATOM     22  C   UNL     1      -2.636  10.296  17.315  0.00  0.00    +0.000 A 
ATOM     23  C   UNL     1      -1.352   9.740  17.262  0.00  0.00    +0.000 A 
ATOM     24  C   UNL     1      -0.391  10.110  18.224  0.00  0.00    +0.000 A 
ATOM     25  H   UNL     1       0.376  11.897  20.768  0.00  0.00    +0.000 HD
ENDBRANCH  15  16
ENDBRANCH   2  15
TORSDOF 4
ENDMDL
