MODEL 1
REMARK VINA RESULT:      -8.5      0.000      0.000
REMARK  Name = 
REMARK  3 active torsions:
REMARK  status: ('A' for Active; 'I' for Inactive)
REMARK    1  A    between atoms: C_8  and  S_9
REMARK    2  A    between atoms: S_9  and  N_12
REMARK    3  A    between atoms: C_19  and  C_20
REMARK                            x       y       z     vdW  Elec       q    Type
REMARK                         _______ _______ _______ _____ _____    ______ ____
ROOT
ATOM      1  S   UNL     1       2.576   6.257  18.965  0.00  0.00    +0.000 S 
ATOM      2  O   UNL     1       2.555   5.734  20.308  0.00  0.00    +0.000 OA
ATOM      3  O   UNL     1       1.780   5.684  17.889  0.00  0.00    +0.000 OA
ENDROOT
BRANCH   1  11
ATOM      4  O   UNL     1      -1.110  13.129  20.703  0.00  0.00    +0.000 OA
ATOM      5  C   UNL     1      -0.413  12.115  20.642  0.00  0.00    +0.000 A 
ATOM      6  N   UNL     1      -0.145  11.353  21.742  0.00  0.00    +0.000 N 
ATOM      7  C   UNL     1       0.559  10.174  21.758  0.00  0.00    +0.000 A 
ATOM      8  O   UNL     1       0.756   9.546  22.789  0.00  0.00    +0.000 OA
ATOM      9  C   UNL     1       1.064   9.695  20.460  0.00  0.00    +0.000 A 
ATOM     10  C   UNL     1       1.685   8.447  20.356  0.00  0.00    +0.000 A 
ATOM     11  C   UNL     1       2.075   7.985  19.099  0.00  0.00    +0.000 A 
ATOM     12  C   UNL     1       1.916   8.798  17.966  0.00  0.00    +0.000 A 
ATOM     13  C   UNL     1       1.291  10.052  18.087  0.00  0.00    +0.000 A 
ATOM     14  C   UNL     1       0.840  10.486  19.336  0.00  0.00    +0.000 A 
ATOM     15  N   UNL     1       0.114  11.681  19.459  0.00  0.00    +0.000 N 
ATOM     16  H   UNL     1      -0.532  11.667  22.620  0.00  0.00    +0.000 HD
ATOM     17  H   UNL     1      -0.109  12.242  18.647  0.00  0.00    +0.000 HD
ENDBRANCH   1  11
BRANCH   1  18
ATOM     18  N   UNL     1       4.222   6.396  18.419  0.00  0.00    +0.000 NA
ATOM     19  C   UNL     1       4.315   6.758  16.941  0.00  0.00    +0.000 C 
ATOM     20  C   UNL     1       5.702   6.168  16.918  0.00  0.00    +0.000 C 
ATOM     21  C   UNL     1       6.618   7.403  17.264  0.00  0.00    +0.000 C 
ATOM     22  C   UNL     1       7.854   7.023  18.050  0.00  0.00    +0.000 C 
ATOM     23  C   UNL     1       7.452   6.143  19.212  0.00  0.00    +0.000 C 
ATOM     24  C   UNL     1       6.660   4.977  18.695  0.00  0.00    +0.000 C 
ATOM     25  C   UNL     1       5.227   5.240  18.124  0.00  0.00    +0.000 C 
BRANCH  25  26
ATOM     26  C   UNL     1       4.542   3.763  18.306  0.00  0.00    +0.000 A 
ATOM     27  C   UNL     1       4.715   3.115  19.581  0.00  0.00    +0.000 A 
ATOM     28  C   UNL     1       4.363   1.792  19.857  0.00  0.00    +0.000 A 
ATOM     29  C   UNL     1       3.722   1.059  18.880  0.00  0.00    +0.000 A 
ATOM     30  C   UNL     1       3.449   1.665  17.650  0.00  0.00    +0.000 A 
ATOM     31  C   UNL     1       3.862   2.989  17.364  0.00  0.00    +0.000 A 
ENDBRANCH  25  26
ENDBRANCH   1  18
TORSDOF 3
ENDMDL
MODEL 2
REMARK VINA RESULT:      -7.6      2.495      7.804
REMARK  Name = 
REMARK  3 active torsions:
REMARK  status: ('A' for Active; 'I' for Inactive)
REMARK    1  A    between atoms: C_8  and  S_9
REMARK    2  A    between atoms: S_9  and  N_12
REMARK    3  A    between atoms: C_19  and  C_20
REMARK                            x       y       z     vdW  Elec       q    Type
REMARK                         _______ _______ _______ _____ _____    ______ ____
ROOT
ATOM      1  S   UNL     1       0.568   9.777  21.149  0.00  0.00    +0.000 S 
ATOM      2  O   UNL     1      -0.854   9.654  20.952  0.00  0.00    +0.000 OA
ATOM      3  O   UNL     1       1.202   9.548  22.440  0.00  0.00    +0.000 OA
ENDROOT
BRANCH   1  11
ATOM      4  O   UNL     1       5.063   4.167  17.664  0.00  0.00    +0.000 OA
ATOM      5  C   UNL     1       4.222   4.842  18.258  0.00  0.00    +0.000 A 
ATOM      6  N   UNL     1       3.665   4.434  19.436  0.00  0.00    +0.000 N 
ATOM      7  C   UNL     1       2.776   5.148  20.201  0.00  0.00    +0.000 A 
ATOM      8  O   UNL     1       2.322   4.712  21.250  0.00  0.00    +0.000 OA
ATOM      9  C   UNL     1       2.399   6.479  19.697  0.00  0.00    +0.000 A 
ATOM     10  C   UNL     1       1.598   7.329  20.465  0.00  0.00    +0.000 A 
ATOM     11  C   UNL     1       1.330   8.615  19.999  0.00  0.00    +0.000 A 
ATOM     12  C   UNL     1       1.793   9.021  18.738  0.00  0.00    +0.000 A 
ATOM     13  C   UNL     1       2.597   8.154  17.976  0.00  0.00    +0.000 A 
ATOM     14  C   UNL     1       2.921   6.890  18.474  0.00  0.00    +0.000 A 
ATOM     15  N   UNL     1       3.813   6.056  17.782  0.00  0.00    +0.000 N 
ATOM     16  H   UNL     1       3.962   3.538  19.794  0.00  0.00    +0.000 HD
ATOM     17  H   UNL     1       4.248   6.357  16.920  0.00  0.00    +0.000 HD
ENDBRANCH   1  11
BRANCH   1  18
ATOM     18  N   UNL     1       1.112  11.311  20.533  0.00  0.00    +0.000 NA
ATOM     19  C   UNL     1       0.814  12.459  21.490  0.00  0.00    +0.000 C 
ATOM     20  C   UNL     1       0.886  13.408  20.320  0.00  0.00    +0.000 C 
ATOM     21  C   UNL     1       2.402  13.834  20.302  0.00  0.00    +0.000 C 
ATOM     22  C   UNL     1       2.926  14.100  18.907  0.00  0.00    +0.000 C 
ATOM     23  C   UNL     1       2.545  12.948  18.005  0.00  0.00    +0.000 C 
ATOM     24  C   UNL     1       1.061  12.733  18.082  0.00  0.00    +0.000 C 
ATOM     25  C   UNL     1       0.454  12.172  19.411  0.00  0.00    +0.000 C 
BRANCH  25  26
ATOM     26  C   UNL     1      -0.942  11.512  18.862  0.00  0.00    +0.000 A 
ATOM     27  C   UNL     1      -0.831  10.505  17.839  0.00  0.00    +0.000 A 
ATOM     28  C   UNL     1      -1.907   9.968  17.129  0.00  0.00    +0.000 A 
ATOM     29  C   UNL     1      -3.186  10.350  17.474  0.00  0.00    +0.000 A 
ATOM     30  C   UNL     1      -3.360  11.262  18.520  0.00  0.00    +0.000 A 
ATOM     31  C   UNL     1      -2.257  11.841  19.194  0.00  0.00    +0.000 A 
ENDBRANCH  25  26
ENDBRANCH   1  18
TORSDOF 3
ENDMDL
MODEL 3
REMARK VINA RESULT:      -7.3      2.589      8.983
REMARK  Name = 
REMARK  3 active torsions:
REMARK  status: ('A' for Active; 'I' for Inactive)
REMARK    1  A    between atoms: C_8  and  S_9
REMARK    2  A    between atoms: S_9  and  N_12
REMARK    3  A    between atoms: C_19  and  C_20
REMARK                            x       y       z     vdW  Elec       q    Type
REMARK                         _______ _______ _______ _____ _____    ______ ____
ROOT
ATOM      1  S   UNL     1       0.333  10.103  20.684  0.00  0.00    +0.000 S 
ATOM      2  O   UNL     1      -0.397   9.356  21.678  0.00  0.00    +0.000 OA
ATOM      3  O   UNL     1       1.317  11.118  21.034  0.00  0.00    +0.000 OA
ENDROOT
BRANCH   1  11
ATOM      4  O   UNL     1       5.183   4.352  17.994  0.00  0.00    +0.000 OA
ATOM      5  C   UNL     1       4.286   5.050  18.466  0.00  0.00    +0.000 A 
ATOM      6  N   UNL     1       3.638   4.715  19.621  0.00  0.00    +0.000 N 
ATOM      7  C   UNL     1       2.679   5.463  20.258  0.00  0.00    +0.000 A 
ATOM      8  O   UNL     1       2.146   5.094  21.294  0.00  0.00    +0.000 OA
ATOM      9  C   UNL     1       2.326   6.748  19.629  0.00  0.00    +0.000 A 
ATOM     10  C   UNL     1       1.452   7.633  20.266  0.00  0.00    +0.000 A 
ATOM     11  C   UNL     1       1.205   8.878  19.687  0.00  0.00    +0.000 A 
ATOM     12  C   UNL     1       1.766   9.203  18.442  0.00  0.00    +0.000 A 
ATOM     13  C   UNL     1       2.642   8.300  17.813  0.00  0.00    +0.000 A 
ATOM     14  C   UNL     1       2.942   7.081  18.426  0.00  0.00    +0.000 A 
ATOM     15  N   UNL     1       3.900   6.218  17.872  0.00  0.00    +0.000 N 
ATOM     16  H   UNL     1       3.918   3.853  20.067  0.00  0.00    +0.000 HD
ATOM     17  H   UNL     1       4.401   6.467  17.029  0.00  0.00    +0.000 HD
ENDBRANCH   1  11
BRANCH   1  18
ATOM     18  N   UNL     1      -0.778  10.786  19.533  0.00  0.00    +0.000 NA
ATOM     19  C   UNL     1      -0.071  11.604  18.458  0.00  0.00    +0.000 C 
ATOM     20  C   UNL     1      -1.363  12.346  18.222  0.00  0.00    +0.000 C 
ATOM     21  C   UNL     1      -2.060  11.494  17.096  0.00  0.00    +0.000 C 
ATOM     22  C   UNL     1      -3.570  11.492  17.204  0.00  0.00    +0.000 C 
ATOM     23  C   UNL     1      -3.966  11.169  18.627  0.00  0.00    +0.000 C 
ATOM     24  C   UNL     1      -3.276  12.125  19.557  0.00  0.00    +0.000 C 
ATOM     25  C   UNL     1      -1.725  12.008  19.737  0.00  0.00    +0.000 C 
BRANCH  25  26
ATOM     26  C   UNL     1      -1.528  12.706  21.206  0.00  0.00    +0.000 A 
ATOM     27  C   UNL     1      -2.426  12.293  22.253  0.00  0.00    +0.000 A 
ATOM     28  C   UNL     1      -2.526  12.904  23.505  0.00  0.00    +0.000 A 
ATOM     29  C   UNL     1      -1.651  13.923  23.817  0.00  0.00    +0.000 A 
ATOM     30  C   UNL     1      -0.698  14.310  22.870  0.00  0.00    +0.000 A 
ATOM     31  C   UNL     1      -0.645  13.720  21.583  0.00  0.00    +0.000 A 
ENDBRANCH  25  26
ENDBRANCH   1  18
TORSDOF 3
ENDMDL
MODEL 4
REMARK VINA RESULT:      -7.2      4.808     11.012
REMARK  Name = 
REMARK  3 active torsions:
REMARK  status: ('A' for Active; 'I' for Inactive)
REMARK    1  A    between atoms: C_8  and  S_9
REMARK    2  A    between atoms: S_9  and  N_12
REMARK    3  A    between atoms: C_19  and  C_20
REMARK                            x       y       z     vdW  Elec       q    Type
REMARK                         _______ _______ _______ _____ _____    ______ ____
ROOT
ATOM      1  S   UNL     1      -2.907  12.454  22.621  0.00  0.00    +0.000 S 
ATOM      2  O   UNL     1      -3.628  11.902  23.740  0.00  0.00    +0.000 OA
ATOM      3  O   UNL     1      -2.391  13.816  22.618  0.00  0.00    +0.000 OA
ENDROOT
BRANCH   1  11
ATOM      4  O   UNL     1       2.407   7.194  19.807  0.00  0.00    +0.000 OA
ATOM      5  C   UNL     1       1.719   8.169  20.110  0.00  0.00    +0.000 A 
ATOM      6  N   UNL     1       1.354   9.112  19.193  0.00  0.00    +0.000 N 
ATOM      7  C   UNL     1       0.534  10.189  19.421  0.00  0.00    +0.000 A 
ATOM      8  O   UNL     1       0.251  10.991  18.543  0.00  0.00    +0.000 OA
ATOM      9  C   UNL     1       0.002  10.329  20.788  0.00  0.00    +0.000 A 
ATOM     10  C   UNL     1      -0.935  11.322  21.086  0.00  0.00    +0.000 A 
ATOM     11  C   UNL     1      -1.484  11.375  22.367  0.00  0.00    +0.000 A 
ATOM     12  C   UNL     1      -1.041  10.491  23.364  0.00  0.00    +0.000 A 
ATOM     13  C   UNL     1      -0.095   9.499  23.048  0.00  0.00    +0.000 A 
ATOM     14  C   UNL     1       0.404   9.404  21.747  0.00  0.00    +0.000 A 
ATOM     15  N   UNL     1       1.260   8.352  21.384  0.00  0.00    +0.000 N 
ATOM     16  H   UNL     1       1.689   8.983  18.249  0.00  0.00    +0.000 HD
ATOM     17  H   UNL     1       1.519   7.637  22.050  0.00  0.00    +0.000 HD
ENDBRANCH   1  11
BRANCH   1  18
ATOM     18  N   UNL     1      -3.818  12.207  21.160  0.00  0.00    +0.000 NA
ATOM     19  C   UNL     1      -3.430  13.189  20.060  0.00  0.00    +0.000 C 
ATOM     20  C   UNL     1      -4.778  12.957  19.425  0.00  0.00    +0.000 C 
ATOM     21  C   UNL     1      -4.502  11.763  18.435  0.00  0.00    +0.000 C 
ATOM     22  C   UNL     1      -5.693  10.843  18.272  0.00  0.00    +0.000 C 
ATOM     23  C   UNL     1      -6.226  10.471  19.637  0.00  0.00    +0.000 C 
ATOM     24  C   UNL     1      -6.509  11.725  20.412  0.00  0.00    +0.000 C 
ATOM     25  C   UNL     1      -5.302  12.601  20.887  0.00  0.00    +0.000 C 
BRANCH  25  26
ATOM     26  C   UNL     1      -5.973  13.399  22.151  0.00  0.00    +0.000 A 
ATOM     27  C   UNL     1      -6.894  12.660  22.976  0.00  0.00    +0.000 A 
ATOM     28  C   UNL     1      -7.693  13.218  23.976  0.00  0.00    +0.000 A 
ATOM     29  C   UNL     1      -7.545  14.556  24.273  0.00  0.00    +0.000 A 
ATOM     30  C   UNL     1      -6.603  15.307  23.563  0.00  0.00    +0.000 A 
ATOM     31  C   UNL     1      -5.839  14.740  22.513  0.00  0.00    +0.000 A 
ENDBRANCH  25  26
ENDBRANCH   1  18
TORSDOF 3
ENDMDL
MODEL 5
REMARK VINA RESULT:      -7.2      8.252     10.712
REMARK  Name = 
REMARK  3 active torsions:
REMARK  status: ('A' for Active; 'I' for Inactive)
REMARK    1  A    between atoms: C_8  and  S_9
REMARK    2  A    between atoms: S_9  and  N_12
REMARK    3  A    between atoms: C_19  and  C_20
REMARK                            x       y       z     vdW  Elec       q    Type
REMARK                         _______ _______ _______ _____ _____    ______ ____
ROOT
ATOM      1  S   UNL     1       8.476  14.412  22.015  0.00  0.00    +0.000 S 
ATOM      2  O   UNL     1       7.520  15.287  21.385  0.00  0.00    +0.000 OA
ATOM      3  O   UNL     1       9.673  14.909  22.678  0.00  0.00    +0.000 OA
ENDROOT
BRANCH   1  11
ATOM      4  O   UNL     1       6.235  10.032  28.309  0.00  0.00    +0.000 OA
ATOM      5  C   UNL     1       6.551  10.898  27.494  0.00  0.00    +0.000 A 
ATOM      6  N   UNL     1       7.368  11.942  27.824  0.00  0.00    +0.000 N 
ATOM      7  C   UNL     1       7.830  12.911  26.968  0.00  0.00    +0.000 A 
ATOM      8  O   UNL     1       8.563  13.815  27.342  0.00  0.00    +0.000 OA
ATOM      9  C   UNL     1       7.401  12.803  25.563  0.00  0.00    +0.000 A 
ATOM     10  C   UNL     1       7.915  13.669  24.595  0.00  0.00    +0.000 A 
ATOM     11  C   UNL     1       7.556  13.487  23.260  0.00  0.00    +0.000 A 
ATOM     12  C   UNL     1       6.627  12.496  22.907  0.00  0.00    +0.000 A 
ATOM     13  C   UNL     1       6.116  11.633  23.893  0.00  0.00    +0.000 A 
ATOM     14  C   UNL     1       6.529  11.773  25.220  0.00  0.00    +0.000 A 
ATOM     15  N   UNL     1       6.120  10.852  26.197  0.00  0.00    +0.000 N 
ATOM     16  H   UNL     1       7.691  11.982  28.780  0.00  0.00    +0.000 HD
ATOM     17  H   UNL     1       5.534  10.063  25.959  0.00  0.00    +0.000 HD
ENDBRANCH   1  11
BRANCH   1  18
ATOM     18  N   UNL     1       8.944  13.159  20.902  0.00  0.00    +0.000 NA
ATOM     19  C   UNL     1       9.971  12.204  21.500  0.00  0.00    +0.000 C 
ATOM     20  C   UNL     1      10.397  11.840  20.100  0.00  0.00    +0.000 C 
ATOM     21  C   UNL     1       9.474  10.610  19.758  0.00  0.00    +0.000 C 
ATOM     22  C   UNL     1       9.105  10.537  18.291  0.00  0.00    +0.000 C 
ATOM     23  C   UNL     1       8.612  11.891  17.834  0.00  0.00    +0.000 C 
ATOM     24  C   UNL     1       9.646  12.928  18.166  0.00  0.00    +0.000 C 
ATOM     25  C   UNL     1       9.891  13.288  19.669  0.00  0.00    +0.000 C 
BRANCH  25  26
ATOM     26  C   UNL     1      10.526  14.792  19.530  0.00  0.00    +0.000 A 
ATOM     27  C   UNL     1       9.805  15.733  18.712  0.00  0.00    +0.000 A 
ATOM     28  C   UNL     1      10.283  16.990  18.335  0.00  0.00    +0.000 A 
ATOM     29  C   UNL     1      11.492  17.419  18.839  0.00  0.00    +0.000 A 
ATOM     30  C   UNL     1      12.198  16.582  19.709  0.00  0.00    +0.000 A 
ATOM     31  C   UNL     1      11.728  15.287  20.039  0.00  0.00    +0.000 A 
ENDBRANCH  25  26
ENDBRANCH   1  18
TORSDOF 3
ENDMDL
MODEL 6
REMARK VINA RESULT:      -7.1      3.288      9.148
REMARK  Name = 
REMARK  3 active torsions:
REMARK  status: ('A' for Active; 'I' for Inactive)
REMARK    1  A    between atoms: C_8  and  S_9
REMARK    2  A    between atoms: S_9  and  N_12
REMARK    3  A    between atoms: C_19  and  C_20
REMARK                            x       y       z     vdW  Elec       q    Type
REMARK                         _______ _______ _______ _____ _____    ______ ____
ROOT
ATOM      1  S   UNL     1      -1.155  11.242  18.685  0.00  0.00    +0.000 S 
ATOM      2  O   UNL     1      -0.377  12.270  18.041  0.00  0.00    +0.000 OA
ATOM      3  O   UNL     1      -2.147  10.449  17.972  0.00  0.00    +0.000 OA
ENDROOT
BRANCH   1  11
ATOM      4  O   UNL     1       3.740   5.059  19.965  0.00  0.00    +0.000 OA
ATOM      5  C   UNL     1       3.183   6.113  19.657  0.00  0.00    +0.000 A 
ATOM      6  N   UNL     1       3.352   6.691  18.432  0.00  0.00    +0.000 N 
ATOM      7  C   UNL     1       2.719   7.822  17.977  0.00  0.00    +0.000 A 
ATOM      8  O   UNL     1       2.924   8.278  16.861  0.00  0.00    +0.000 OA
ATOM      9  C   UNL     1       1.770   8.460  18.904  0.00  0.00    +0.000 A 
ATOM     10  C   UNL     1       0.989   9.542  18.488  0.00  0.00    +0.000 A 
ATOM     11  C   UNL     1       0.038  10.069  19.361  0.00  0.00    +0.000 A 
ATOM     12  C   UNL     1      -0.077   9.569  20.667  0.00  0.00    +0.000 A 
ATOM     13  C   UNL     1       0.718   8.482  21.072  0.00  0.00    +0.000 A 
ATOM     14  C   UNL     1       1.623   7.910  20.175  0.00  0.00    +0.000 A 
ATOM     15  N   UNL     1       2.340   6.755  20.521  0.00  0.00    +0.000 N 
ATOM     16  H   UNL     1       3.972   6.222  17.788  0.00  0.00    +0.000 HD
ATOM     17  H   UNL     1       2.207   6.306  21.417  0.00  0.00    +0.000 HD
ENDBRANCH   1  11
BRANCH   1  18
ATOM     18  N   UNL     1      -1.893  11.882  20.124  0.00  0.00    +0.000 NA
ATOM     19  C   UNL     1      -3.069  12.802  19.814  0.00  0.00    +0.000 C 
ATOM     20  C   UNL     1      -2.877  13.446  21.164  0.00  0.00    +0.000 C 
ATOM     21  C   UNL     1      -3.812  12.590  22.100  0.00  0.00    +0.000 C 
ATOM     22  C   UNL     1      -3.277  12.460  23.511  0.00  0.00    +0.000 C 
ATOM     23  C   UNL     1      -1.824  12.044  23.455  0.00  0.00    +0.000 C 
ATOM     24  C   UNL     1      -1.069  13.011  22.590  0.00  0.00    +0.000 C 
ATOM     25  C   UNL     1      -1.348  13.013  21.050  0.00  0.00    +0.000 C 
BRANCH  25  26
ATOM     26  C   UNL     1       0.046  13.660  20.481  0.00  0.00    +0.000 A 
ATOM     27  C   UNL     1       1.276  13.046  20.913  0.00  0.00    +0.000 A 
ATOM     28  C   UNL     1       2.551  13.566  20.680  0.00  0.00    +0.000 A 
ATOM     29  C   UNL     1       2.672  14.704  19.910  0.00  0.00    +0.000 A 
ATOM     30  C   UNL     1       1.517  15.296  19.391  0.00  0.00    +0.000 A 
ATOM     31  C   UNL     1       0.226  14.790  19.681  0.00  0.00    +0.000 A 
ENDBRANCH  25  26
ENDBRANCH   1  18
TORSDOF 3
ENDMDL
MODEL 7
REMARK VINA RESULT:      -7.1      1.884      3.982
REMARK  Name = 
REMARK  3 active torsions:
REMARK  status: ('A' for Active; 'I' for Inactive)
REMARK    1  A    between atoms: C_8  and  S_9
REMARK    2  A    between atoms: S_9  and  N_12
REMARK    3  A    between atoms: C_19  and  C_20
REMARK                            x       y       z     vdW  Elec       q    Type
REMARK                         _______ _______ _______ _____ _____    ______ ____
ROOT
ATOM      1  S   UNL     1       2.827   6.990  18.584  0.00  0.00    +0.000 S 
ATOM      2  O   UNL     1       2.398   7.174  17.221  0.00  0.00    +0.000 OA
ATOM      3  O   UNL     1       4.186   7.279  19.022  0.00  0.00    +0.000 OA
ENDROOT
BRANCH   1  11
ATOM      4  O   UNL     1      -0.636  12.993  22.560  0.00  0.00    +0.000 OA
ATOM      5  C   UNL     1      -0.242  12.146  21.758  0.00  0.00    +0.000 A 
ATOM      6  N   UNL     1       0.060  12.457  20.463  0.00  0.00    +0.000 N 
ATOM      7  C   UNL     1       0.570  11.598  19.521  0.00  0.00    +0.000 A 
ATOM      8  O   UNL     1       0.817  11.956  18.378  0.00  0.00    +0.000 OA
ATOM      9  C   UNL     1       0.816  10.214  19.962  0.00  0.00    +0.000 A 
ATOM     10  C   UNL     1       1.446   9.301  19.113  0.00  0.00    +0.000 A 
ATOM     11  C   UNL     1       1.742   8.023  19.588  0.00  0.00    +0.000 A 
ATOM     12  C   UNL     1       1.340   7.638  20.877  0.00  0.00    +0.000 A 
ATOM     13  C   UNL     1       0.704   8.569  21.718  0.00  0.00    +0.000 A 
ATOM     14  C   UNL     1       0.468   9.868  21.265  0.00  0.00    +0.000 A 
ATOM     15  N   UNL     1      -0.060  10.842  22.126  0.00  0.00    +0.000 N 
ATOM     16  H   UNL     1      -0.072  13.418  20.184  0.00  0.00    +0.000 HD
ATOM     17  H   UNL     1      -0.266  10.627  23.093  0.00  0.00    +0.000 HD
ENDBRANCH   1  11
BRANCH   1  18
ATOM     18  N   UNL     1       2.405   5.390  19.119  0.00  0.00    +0.000 NA
ATOM     19  C   UNL     1       2.743   5.161  20.588  0.00  0.00    +0.000 C 
ATOM     20  C   UNL     1       2.773   3.678  20.315  0.00  0.00    +0.000 C 
ATOM     21  C   UNL     1       1.289   3.234  20.601  0.00  0.00    +0.000 C 
ATOM     22  C   UNL     1       0.832   2.091  19.720  0.00  0.00    +0.000 C 
ATOM     23  C   UNL     1       1.169   2.407  18.281  0.00  0.00    +0.000 C 
ATOM     24  C   UNL     1       2.633   2.726  18.178  0.00  0.00    +0.000 C 
ATOM     25  C   UNL     1       3.156   4.057  18.815  0.00  0.00    +0.000 C 
BRANCH  25  26
ATOM     26  C   UNL     1       4.524   4.301  17.948  0.00  0.00    +0.000 A 
ATOM     27  C   UNL     1       4.418   4.199  16.515  0.00  0.00    +0.000 A 
ATOM     28  C   UNL     1       5.501   4.196  15.633  0.00  0.00    +0.000 A 
ATOM     29  C   UNL     1       6.769   4.389  16.140  0.00  0.00    +0.000 A 
ATOM     30  C   UNL     1       6.925   4.580  17.516  0.00  0.00    +0.000 A 
ATOM     31  C   UNL     1       5.824   4.525  18.405  0.00  0.00    +0.000 A 
ENDBRANCH  25  26
ENDBRANCH   1  18
TORSDOF 3
ENDMDL
MODEL 8
REMARK VINA RESULT:      -7.0      5.357     11.488
REMARK  Name = 
REMARK  3 active torsions:
REMARK  status: ('A' for Active; 'I' for Inactive)
REMARK    1  A    between atoms: C_8  and  S_9
REMARK    2  A    between atoms: S_9  and  N_12
REMARK    3  A    between atoms: C_19  and  C_20
REMARK                            x       y       z     vdW  Elec       q    Type
REMARK                         _______ _______ _______ _____ _____    ______ ____
ROOT
ATOM      1  S   UNL     1      -3.588  12.823  21.990  0.00  0.00    +0.000 S 
ATOM      2  O   UNL     1      -3.794  12.208  23.278  0.00  0.00    +0.000 OA
ATOM      3  O   UNL     1      -3.498  14.267  21.819  0.00  0.00    +0.000 OA
ENDROOT
BRANCH   1  11
ATOM      4  O   UNL     1       2.014   8.577  18.193  0.00  0.00    +0.000 OA
ATOM      5  C   UNL     1       1.159   9.376  18.577  0.00  0.00    +0.000 A 
ATOM      6  N   UNL     1       0.184   9.849  17.747  0.00  0.00    +0.000 N 
ATOM      7  C   UNL     1      -0.848  10.683  18.102  0.00  0.00    +0.000 A 
ATOM      8  O   UNL     1      -1.686  11.062  17.297  0.00  0.00    +0.000 OA
ATOM      9  C   UNL     1      -0.900  11.095  19.515  0.00  0.00    +0.000 A 
ATOM     10  C   UNL     1      -1.978  11.841  19.998  0.00  0.00    +0.000 A 
ATOM     11  C   UNL     1      -2.042  12.143  21.358  0.00  0.00    +0.000 A 
ATOM     12  C   UNL     1      -0.995  11.769  22.215  0.00  0.00    +0.000 A 
ATOM     13  C   UNL     1       0.085  11.020  21.713  0.00  0.00    +0.000 A 
ATOM     14  C   UNL     1       0.114  10.660  20.364  0.00  0.00    +0.000 A 
ATOM     15  N   UNL     1       1.123   9.818  19.870  0.00  0.00    +0.000 N 
ATOM     16  H   UNL     1       0.203   9.526  16.790  0.00  0.00    +0.000 HD
ATOM     17  H   UNL     1       1.837   9.444  20.481  0.00  0.00    +0.000 HD
ENDBRANCH   1  11
BRANCH   1  18
ATOM     18  N   UNL     1      -4.751  12.204  20.855  0.00  0.00    +0.000 NA
ATOM     19  C   UNL     1      -4.696  12.929  19.514  0.00  0.00    +0.000 C 
ATOM     20  C   UNL     1      -6.116  12.491  19.258  0.00  0.00    +0.000 C 
ATOM     21  C   UNL     1      -5.933  11.118  18.508  0.00  0.00    +0.000 C 
ATOM     22  C   UNL     1      -7.036  10.126  18.811  0.00  0.00    +0.000 C 
ATOM     23  C   UNL     1      -7.237  10.049  20.308  0.00  0.00    +0.000 C 
ATOM     24  C   UNL     1      -7.477  11.431  20.843  0.00  0.00    +0.000 C 
ATOM     25  C   UNL     1      -6.291  12.451  20.841  0.00  0.00    +0.000 C 
BRANCH  25  26
ATOM     26  C   UNL     1      -6.763  13.481  22.025  0.00  0.00    +0.000 A 
ATOM     27  C   UNL     1      -7.176  12.895  23.275  0.00  0.00    +0.000 A 
ATOM     28  C   UNL     1      -7.777  13.596  24.323  0.00  0.00    +0.000 A 
ATOM     29  C   UNL     1      -7.917  14.963  24.213  0.00  0.00    +0.000 A 
ATOM     30  C   UNL     1      -7.454  15.599  23.056  0.00  0.00    +0.000 A 
ATOM     31  C   UNL     1      -6.898  14.870  21.977  0.00  0.00    +0.000 A 
ENDBRANCH  25  26
ENDBRANCH   1  18
TORSDOF 3
ENDMDL
MODEL 9
REMARK VINA RESULT:      -7.0      6.140      8.507
REMARK  Name = 
REMARK  3 active torsions:
REMARK  status: ('A' for Active; 'I' for Inactive)
REMARK    1  A    between atoms: C_8  and  S_9
REMARK    2  A    between atoms: S_9  and  N_12
REMARK    3  A    between atoms: C_19  and  C_20
REMARK                            x       y       z     vdW  Elec       q    Type
REMARK                         _______ _______ _______ _____ _____    ______ ____
ROOT
ATOM      1  S   UNL     1      -1.828  11.716  18.584  0.00  0.00    +0.000 S 
ATOM      2  O   UNL     1      -1.364  10.459  19.114  0.00  0.00    +0.000 OA
ATOM      3  O   UNL     1      -2.042  11.933  17.160  0.00  0.00    +0.000 OA
ENDROOT
BRANCH   1  11
ATOM      4  O   UNL     1      -7.914  12.311  23.726  0.00  0.00    +0.000 OA
ATOM      5  C   UNL     1      -6.913  12.442  23.021  0.00  0.00    +0.000 A 
ATOM      6  N   UNL     1      -5.739  12.936  23.513  0.00  0.00    +0.000 N 
ATOM      7  C   UNL     1      -4.557  13.052  22.824  0.00  0.00    +0.000 A 
ATOM      8  O   UNL     1      -3.545  13.504  23.338  0.00  0.00    +0.000 OA
ATOM      9  C   UNL     1      -4.567  12.593  21.424  0.00  0.00    +0.000 A 
ATOM     10  C   UNL     1      -3.385  12.557  20.680  0.00  0.00    +0.000 A 
ATOM     11  C   UNL     1      -3.412  12.037  19.386  0.00  0.00    +0.000 A 
ATOM     12  C   UNL     1      -4.626  11.629  18.813  0.00  0.00    +0.000 A 
ATOM     13  C   UNL     1      -5.808  11.674  19.574  0.00  0.00    +0.000 A 
ATOM     14  C   UNL     1      -5.769  12.132  20.893  0.00  0.00    +0.000 A 
ATOM     15  N   UNL     1      -6.913  12.077  21.704  0.00  0.00    +0.000 N 
ATOM     16  H   UNL     1      -5.731  13.208  24.485  0.00  0.00    +0.000 HD
ATOM     17  H   UNL     1      -7.782  11.692  21.356  0.00  0.00    +0.000 HD
ENDBRANCH   1  11
BRANCH   1  18
ATOM     18  N   UNL     1      -0.840  13.009  19.196  0.00  0.00    +0.000 NA
ATOM     19  C   UNL     1       0.441  13.192  18.390  0.00  0.00    +0.000 C 
ATOM     20  C   UNL     1       1.061  13.861  19.591  0.00  0.00    +0.000 C 
ATOM     21  C   UNL     1       0.718  15.382  19.365  0.00  0.00    +0.000 C 
ATOM     22  C   UNL     1       0.498  16.138  20.658  0.00  0.00    +0.000 C 
ATOM     23  C   UNL     1      -0.458  15.359  21.533  0.00  0.00    +0.000 C 
ATOM     24  C   UNL     1       0.063  13.962  21.708  0.00  0.00    +0.000 C 
ATOM     25  C   UNL     1       0.054  12.999  20.475  0.00  0.00    +0.000 C 
BRANCH  25  26
ATOM     26  C   UNL     1       0.054  11.539  21.219  0.00  0.00    +0.000 A 
ATOM     27  C   UNL     1      -0.858  11.366  22.319  0.00  0.00    +0.000 A 
ATOM     28  C   UNL     1      -0.870  10.266  23.180  0.00  0.00    +0.000 A 
ATOM     29  C   UNL     1      -0.013   9.216  22.925  0.00  0.00    +0.000 A 
ATOM     30  C   UNL     1       0.837   9.290  21.818  0.00  0.00    +0.000 A 
ATOM     31  C   UNL     1       0.878  10.436  20.986  0.00  0.00    +0.000 A 
ENDBRANCH  25  26
ENDBRANCH   1  18
TORSDOF 3
ENDMDL
