MODEL 1
REMARK VINA RESULT:      -8.2      0.000      0.000
REMARK  Name = 
REMARK  4 active torsions:
REMARK  status: ('A' for Active; 'I' for Inactive)
REMARK    1  A    between atoms: C_1  and  S_2
REMARK    2  A    between atoms: S_2  and  C_4
REMARK    3  A    between atoms: C_7  and  N_8
REMARK    4  A    between atoms: C_9  and  C_11
REMARK                            x       y       z     vdW  Elec       q    Type
REMARK                         _______ _______ _______ _____ _____    ______ ____
ROOT
ATOM      1  C   UNL     1       0.000  10.143  22.160  0.00  0.00    +0.000 C 
ATOM      2  O   UNL     1      -0.097  10.183  23.384  0.00  0.00    +0.000 OA
ATOM      3  N   UNL     1      -0.069  11.252  21.311  0.00  0.00    +0.000 N 
ATOM      4  C   UNL     1      -0.144  12.595  21.911  0.00  0.00    +0.000 C 
ATOM      5  C   UNL     1      -1.580  13.108  21.639  0.00  0.00    +0.000 C 
ATOM      6  C   UNL     1      -2.491  12.859  22.854  0.00  0.00    +0.000 C 
ATOM      7  C   UNL     1      -2.765  14.233  23.468  0.00  0.00    +0.000 C 
ATOM      8  C   UNL     1      -1.810  15.202  22.789  0.00  0.00    +0.000 C 
ATOM      9  C   UNL     1      -1.622  14.621  21.400  0.00  0.00    +0.000 C 
ATOM     10  C   UNL     1      -1.927  12.276  20.435  0.00  0.00    +0.000 A 
ATOM     11  C   UNL     1      -3.026  12.367  19.602  0.00  0.00    +0.000 A 
ATOM     12  F   UNL     1      -3.984  13.273  19.835  0.00  0.00    +0.000 F 
ATOM     13  C   UNL     1      -3.156  11.488  18.531  0.00  0.00    +0.000 A 
ATOM     14  C   UNL     1      -2.178  10.511  18.302  0.00  0.00    +0.000 A 
ATOM     15  C   UNL     1      -1.095  10.373  19.176  0.00  0.00    +0.000 A 
ATOM     16  C   UNL     1      -1.000  11.249  20.247  0.00  0.00    +0.000 A 
ENDROOT
BRANCH   1  18
ATOM     17  N   UNL     1       1.446   8.642  20.890  0.00  0.00    +0.000 N 
ATOM     18  C   UNL     1       0.212   8.780  21.507  0.00  0.00    +0.000 C 
ATOM     19  O   UNL     1      -0.697   7.965  21.584  0.00  0.00    +0.000 OA
ATOM     20  H   UNL     1       2.069   9.443  20.938  0.00  0.00    +0.000 HD
BRANCH  17  24
ATOM     21  C   UNL     1       2.739   5.317  18.594  0.00  0.00    +0.000 A 
ATOM     22  C   UNL     1       2.320   5.135  19.912  0.00  0.00    +0.000 A 
ATOM     23  C   UNL     1       1.893   6.224  20.678  0.00  0.00    +0.000 A 
ATOM     24  C   UNL     1       1.883   7.518  20.155  0.00  0.00    +0.000 A 
ATOM     25  C   UNL     1       2.327   7.705  18.838  0.00  0.00    +0.000 A 
ATOM     26  C   UNL     1       2.752   6.612  18.064  0.00  0.00    +0.000 A 
BRANCH  21  28
ATOM     27  C   UNL     1       3.824   2.834  19.011  0.00  0.00    +0.000 C 
ATOM     28  S   UNL     1       3.320   3.899  17.635  0.00  0.00    +0.000 S 
ATOM     29  O   UNL     1       2.096   3.290  17.016  0.00  0.00    +0.000 OA
ENDBRANCH  21  28
ENDBRANCH  17  24
ENDBRANCH   1  18
TORSDOF 3
ENDMDL
MODEL 2
REMARK VINA RESULT:      -7.6      1.738      2.369
REMARK  Name = 
REMARK  4 active torsions:
REMARK  status: ('A' for Active; 'I' for Inactive)
REMARK    1  A    between atoms: C_1  and  S_2
REMARK    2  A    between atoms: S_2  and  C_4
REMARK    3  A    between atoms: C_7  and  N_8
REMARK    4  A    between atoms: C_9  and  C_11
REMARK                            x       y       z     vdW  Elec       q    Type
REMARK                         _______ _______ _______ _____ _____    ______ ____
ROOT
ATOM      1  C   UNL     1      -0.322  12.289  21.513  0.00  0.00    +0.000 C 
ATOM      2  O   UNL     1      -0.258  12.133  22.730  0.00  0.00    +0.000 OA
ATOM      3  N   UNL     1      -1.202  13.156  20.858  0.00  0.00    +0.000 N 
ATOM      4  C   UNL     1      -2.045  14.049  21.671  0.00  0.00    +0.000 C 
ATOM      5  C   UNL     1      -3.493  13.516  21.537  0.00  0.00    +0.000 C 
ATOM      6  C   UNL     1      -3.856  12.609  22.727  0.00  0.00    +0.000 C 
ATOM      7  C   UNL     1      -4.867  13.393  23.565  0.00  0.00    +0.000 C 
ATOM      8  C   UNL     1      -4.864  14.813  23.020  0.00  0.00    +0.000 C 
ATOM      9  C   UNL     1      -4.533  14.640  21.549  0.00  0.00    +0.000 C 
ATOM     10  C   UNL     1      -3.379  12.785  20.227  0.00  0.00    +0.000 A 
ATOM     11  C   UNL     1      -4.375  12.213  19.460  0.00  0.00    +0.000 A 
ATOM     12  F   UNL     1      -5.649  12.236  19.871  0.00  0.00    +0.000 F 
ATOM     13  C   UNL     1      -4.049  11.578  18.265  0.00  0.00    +0.000 A 
ATOM     14  C   UNL     1      -2.712  11.515  17.846  0.00  0.00    +0.000 A 
ATOM     15  C   UNL     1      -1.692  12.038  18.647  0.00  0.00    +0.000 A 
ATOM     16  C   UNL     1      -2.043  12.647  19.842  0.00  0.00    +0.000 A 
ENDROOT
BRANCH   1  18
ATOM     17  N   UNL     1       0.337  10.120  20.609  0.00  0.00    +0.000 N 
ATOM     18  C   UNL     1       0.629  11.476  20.640  0.00  0.00    +0.000 C 
ATOM     19  O   UNL     1       1.532  12.074  20.071  0.00  0.00    +0.000 OA
ATOM     20  H   UNL     1      -0.463   9.817  21.156  0.00  0.00    +0.000 HD
BRANCH  17  24
ATOM     21  C   UNL     1       2.624   7.106  18.691  0.00  0.00    +0.000 A 
ATOM     22  C   UNL     1       2.195   8.220  17.971  0.00  0.00    +0.000 A 
ATOM     23  C   UNL     1       1.441   9.220  18.593  0.00  0.00    +0.000 A 
ATOM     24  C   UNL     1       1.086   9.127  19.940  0.00  0.00    +0.000 A 
ATOM     25  C   UNL     1       1.497   7.994  20.658  0.00  0.00    +0.000 A 
ATOM     26  C   UNL     1       2.260   6.991  20.036  0.00  0.00    +0.000 A 
BRANCH  21  28
ATOM     27  C   UNL     1       4.636   5.325  19.237  0.00  0.00    +0.000 C 
ATOM     28  S   UNL     1       3.569   5.811  17.856  0.00  0.00    +0.000 S 
ATOM     29  O   UNL     1       2.604   4.687  17.612  0.00  0.00    +0.000 OA
ENDBRANCH  21  28
ENDBRANCH  17  24
ENDBRANCH   1  18
TORSDOF 3
ENDMDL
MODEL 3
REMARK VINA RESULT:      -7.4      1.994      2.428
REMARK  Name = 
REMARK  4 active torsions:
REMARK  status: ('A' for Active; 'I' for Inactive)
REMARK    1  A    between atoms: C_1  and  S_2
REMARK    2  A    between atoms: S_2  and  C_4
REMARK    3  A    between atoms: C_7  and  N_8
REMARK    4  A    between atoms: C_9  and  C_11
REMARK                            x       y       z     vdW  Elec       q    Type
REMARK                         _______ _______ _______ _____ _____    ______ ____
ROOT
ATOM      1  C   UNL     1      -0.363  12.311  21.203  0.00  0.00    +0.000 C 
ATOM      2  O   UNL     1      -0.328  12.251  22.429  0.00  0.00    +0.000 OA
ATOM      3  N   UNL     1      -1.239  13.111  20.461  0.00  0.00    +0.000 N 
ATOM      4  C   UNL     1      -2.115  14.051  21.180  0.00  0.00    +0.000 C 
ATOM      5  C   UNL     1      -3.551  13.485  21.054  0.00  0.00    +0.000 C 
ATOM      6  C   UNL     1      -3.931  12.668  22.301  0.00  0.00    +0.000 C 
ATOM      7  C   UNL     1      -4.974  13.499  23.050  0.00  0.00    +0.000 C 
ATOM      8  C   UNL     1      -4.977  14.872  22.396  0.00  0.00    +0.000 C 
ATOM      9  C   UNL     1      -4.606  14.591  20.952  0.00  0.00    +0.000 C 
ATOM     10  C   UNL     1      -3.393  12.657  19.808  0.00  0.00    +0.000 A 
ATOM     11  C   UNL     1      -4.361  12.012  19.063  0.00  0.00    +0.000 A 
ATOM     12  F   UNL     1      -5.645  12.046  19.440  0.00  0.00    +0.000 F 
ATOM     13  C   UNL     1      -3.996  11.290  17.930  0.00  0.00    +0.000 A 
ATOM     14  C   UNL     1      -2.648  11.217  17.549  0.00  0.00    +0.000 A 
ATOM     15  C   UNL     1      -1.657  11.816  18.332  0.00  0.00    +0.000 A 
ATOM     16  C   UNL     1      -2.046  12.511  19.467  0.00  0.00    +0.000 A 
ENDROOT
BRANCH   1  18
ATOM     17  N   UNL     1       0.338  10.091  20.473  0.00  0.00    +0.000 N 
ATOM     18  C   UNL     1       0.621  11.448  20.419  0.00  0.00    +0.000 C 
ATOM     19  O   UNL     1       1.539  12.013  19.839  0.00  0.00    +0.000 OA
ATOM     20  H   UNL     1      -0.477   9.819  21.013  0.00  0.00    +0.000 HD
BRANCH  17  24
ATOM     21  C   UNL     1       2.637   7.023  18.656  0.00  0.00    +0.000 A 
ATOM     22  C   UNL     1       2.304   6.937  20.008  0.00  0.00    +0.000 A 
ATOM     23  C   UNL     1       1.547   7.943  20.617  0.00  0.00    +0.000 A 
ATOM     24  C   UNL     1       1.115   9.060  19.899  0.00  0.00    +0.000 A 
ATOM     25  C   UNL     1       1.470   9.157  18.546  0.00  0.00    +0.000 A 
ATOM     26  C   UNL     1       2.226   8.146  17.930  0.00  0.00    +0.000 A 
BRANCH  21  28
ATOM     27  C   UNL     1       4.681   6.775  16.846  0.00  0.00    +0.000 C 
ATOM     28  S   UNL     1       3.645   5.727  17.899  0.00  0.00    +0.000 S 
ATOM     29  O   UNL     1       4.515   5.187  18.997  0.00  0.00    +0.000 OA
ENDBRANCH  21  28
ENDBRANCH  17  24
ENDBRANCH   1  18
TORSDOF 3
ENDMDL
MODEL 4
REMARK VINA RESULT:      -7.1      1.626      1.906
REMARK  Name = 
REMARK  4 active torsions:
REMARK  status: ('A' for Active; 'I' for Inactive)
REMARK    1  A    between atoms: C_1  and  S_2
REMARK    2  A    between atoms: S_2  and  C_4
REMARK    3  A    between atoms: C_7  and  N_8
REMARK    4  A    between atoms: C_9  and  C_11
REMARK                            x       y       z     vdW  Elec       q    Type
REMARK                         _______ _______ _______ _____ _____    ______ ____
ROOT
ATOM      1  C   UNL     1       0.768  10.833  20.461  0.00  0.00    +0.000 C 
ATOM      2  O   UNL     1       0.982  10.865  21.670  0.00  0.00    +0.000 OA
ATOM      3  N   UNL     1       0.030  11.784  19.749  0.00  0.00    +0.000 N 
ATOM      4  C   UNL     1      -0.437  12.988  20.458  0.00  0.00    +0.000 C 
ATOM      5  C   UNL     1      -1.973  12.841  20.591  0.00  0.00    +0.000 C 
ATOM      6  C   UNL     1      -2.352  12.268  21.968  0.00  0.00    +0.000 C 
ATOM      7  C   UNL     1      -3.002  13.417  22.742  0.00  0.00    +0.000 C 
ATOM      8  C   UNL     1      -2.743  14.677  21.931  0.00  0.00    +0.000 C 
ATOM      9  C   UNL     1      -2.698  14.187  20.495  0.00  0.00    +0.000 C 
ATOM     10  C   UNL     1      -2.243  11.904  19.446  0.00  0.00    +0.000 A 
ATOM     11  C   UNL     1      -3.455  11.500  18.919  0.00  0.00    +0.000 A 
ATOM     12  F   UNL     1      -4.606  11.924  19.455  0.00  0.00    +0.000 F 
ATOM     13  C   UNL     1      -3.481  10.616  17.845  0.00  0.00    +0.000 A 
ATOM     14  C   UNL     1      -2.281  10.135  17.302  0.00  0.00    +0.000 A 
ATOM     15  C   UNL     1      -1.053  10.492  17.868  0.00  0.00    +0.000 A 
ATOM     16  C   UNL     1      -1.056  11.358  18.951  0.00  0.00    +0.000 A 
ENDROOT
BRANCH   1  18
ATOM     17  N   UNL     1       1.397   8.477  20.377  0.00  0.00    +0.000 N 
ATOM     18  C   UNL     1       1.348   9.667  19.666  0.00  0.00    +0.000 C 
ATOM     19  O   UNL     1       1.707   9.884  18.516  0.00  0.00    +0.000 OA
ATOM     20  H   UNL     1       1.047   8.503  21.329  0.00  0.00    +0.000 HD
BRANCH  17  24
ATOM     21  C   UNL     1       3.038   4.784  19.086  0.00  0.00    +0.000 A 
ATOM     22  C   UNL     1       3.191   5.927  18.302  0.00  0.00    +0.000 A 
ATOM     23  C   UNL     1       2.654   7.149  18.718  0.00  0.00    +0.000 A 
ATOM     24  C   UNL     1       1.944   7.259  19.915  0.00  0.00    +0.000 A 
ATOM     25  C   UNL     1       1.769   6.104  20.691  0.00  0.00    +0.000 A 
ATOM     26  C   UNL     1       2.312   4.876  20.278  0.00  0.00    +0.000 A 
BRANCH  21  28
ATOM     27  C   UNL     1       4.504   3.794  16.991  0.00  0.00    +0.000 C 
ATOM     28  S   UNL     1       3.712   3.208  18.511  0.00  0.00    +0.000 S 
ATOM     29  O   UNL     1       4.801   2.846  19.479  0.00  0.00    +0.000 OA
ENDBRANCH  21  28
ENDBRANCH  17  24
ENDBRANCH   1  18
TORSDOF 3
ENDMDL
MODEL 5
REMARK VINA RESULT:      -7.0      1.421      1.503
REMARK  Name = 
REMARK  4 active torsions:
REMARK  status: ('A' for Active; 'I' for Inactive)
REMARK    1  A    between atoms: C_1  and  S_2
REMARK    2  A    between atoms: S_2  and  C_4
REMARK    3  A    between atoms: C_7  and  N_8
REMARK    4  A    between atoms: C_9  and  C_11
REMARK                            x       y       z     vdW  Elec       q    Type
REMARK                         _______ _______ _______ _____ _____    ______ ____
ROOT
ATOM      1  C   UNL     1       0.873  10.634  20.401  0.00  0.00    +0.000 C 
ATOM      2  O   UNL     1       1.103  10.653  21.608  0.00  0.00    +0.000 OA
ATOM      3  N   UNL     1       0.169  11.618  19.700  0.00  0.00    +0.000 N 
ATOM      4  C   UNL     1      -0.236  12.839  20.417  0.00  0.00    +0.000 C 
ATOM      5  C   UNL     1      -1.775  12.759  20.569  0.00  0.00    +0.000 C 
ATOM      6  C   UNL     1      -2.163  12.200  21.949  0.00  0.00    +0.000 C 
ATOM      7  C   UNL     1      -2.752  13.374  22.733  0.00  0.00    +0.000 C 
ATOM      8  C   UNL     1      -2.449  14.624  21.921  0.00  0.00    +0.000 C 
ATOM      9  C   UNL     1      -2.442  14.136  20.484  0.00  0.00    +0.000 C 
ATOM     10  C   UNL     1      -2.100  11.838  19.425  0.00  0.00    +0.000 A 
ATOM     11  C   UNL     1      -3.334  11.487  18.913  0.00  0.00    +0.000 A 
ATOM     12  F   UNL     1      -4.459  11.960  19.463  0.00  0.00    +0.000 F 
ATOM     13  C   UNL     1      -3.412  10.608  17.837  0.00  0.00    +0.000 A 
ATOM     14  C   UNL     1      -2.241  10.077  17.278  0.00  0.00    +0.000 A 
ATOM     15  C   UNL     1      -0.992  10.378  17.830  0.00  0.00    +0.000 A 
ATOM     16  C   UNL     1      -0.944  11.241  18.915  0.00  0.00    +0.000 A 
ENDROOT
BRANCH   1  18
ATOM     17  N   UNL     1       1.450   8.264  20.322  0.00  0.00    +0.000 N 
ATOM     18  C   UNL     1       1.393   9.446  19.597  0.00  0.00    +0.000 C 
ATOM     19  O   UNL     1       1.702   9.639  18.430  0.00  0.00    +0.000 OA
ATOM     20  H   UNL     1       1.144   8.311  21.289  0.00  0.00    +0.000 HD
BRANCH  17  24
ATOM     21  C   UNL     1       2.950   4.593  18.817  0.00  0.00    +0.000 A 
ATOM     22  C   UNL     1       2.295   4.626  20.047  0.00  0.00    +0.000 A 
ATOM     23  C   UNL     1       1.797   5.831  20.553  0.00  0.00    +0.000 A 
ATOM     24  C   UNL     1       1.950   7.029  19.853  0.00  0.00    +0.000 A 
ATOM     25  C   UNL     1       2.630   6.999  18.627  0.00  0.00    +0.000 A 
ATOM     26  C   UNL     1       3.127   5.789  18.114  0.00  0.00    +0.000 A 
BRANCH  21  28
ATOM     27  C   UNL     1       4.165   2.330  19.779  0.00  0.00    +0.000 C 
ATOM     28  S   UNL     1       3.616   3.029  18.200  0.00  0.00    +0.000 S 
ATOM     29  O   UNL     1       2.433   2.230  17.737  0.00  0.00    +0.000 OA
ENDBRANCH  21  28
ENDBRANCH  17  24
ENDBRANCH   1  18
TORSDOF 3
ENDMDL
MODEL 6
REMARK VINA RESULT:      -6.9      1.567      1.893
REMARK  Name = 
REMARK  4 active torsions:
REMARK  status: ('A' for Active; 'I' for Inactive)
REMARK    1  A    between atoms: C_1  and  S_2
REMARK    2  A    between atoms: S_2  and  C_4
REMARK    3  A    between atoms: C_7  and  N_8
REMARK    4  A    between atoms: C_9  and  C_11
REMARK                            x       y       z     vdW  Elec       q    Type
REMARK                         _______ _______ _______ _____ _____    ______ ____
ROOT
ATOM      1  C   UNL     1       1.090   9.844  21.047  0.00  0.00    +0.000 C 
ATOM      2  O   UNL     1       1.135   9.753  22.271  0.00  0.00    +0.000 OA
ATOM      3  N   UNL     1       0.684  10.980  20.339  0.00  0.00    +0.000 N 
ATOM      4  C   UNL     1       0.400  12.214  21.090  0.00  0.00    +0.000 C 
ATOM      5  C   UNL     1      -1.134  12.416  21.022  0.00  0.00    +0.000 C 
ATOM      6  C   UNL     1      -1.817  11.864  22.286  0.00  0.00    +0.000 C 
ATOM      7  C   UNL     1      -2.300  13.083  23.074  0.00  0.00    +0.000 C 
ATOM      8  C   UNL     1      -1.661  14.297  22.417  0.00  0.00    +0.000 C 
ATOM      9  C   UNL     1      -1.525  13.896  20.959  0.00  0.00    +0.000 C 
ATOM     10  C   UNL     1      -1.442  11.636  19.773  0.00  0.00    +0.000 A 
ATOM     11  C   UNL     1      -2.628  11.553  19.069  0.00  0.00    +0.000 A 
ATOM     12  F   UNL     1      -3.720  12.197  19.496  0.00  0.00    +0.000 F 
ATOM     13  C   UNL     1      -2.698  10.764  17.925  0.00  0.00    +0.000 A 
ATOM     14  C   UNL     1      -1.570  10.054  17.491  0.00  0.00    +0.000 A 
ATOM     15  C   UNL     1      -0.384  10.085  18.232  0.00  0.00    +0.000 A 
ATOM     16  C   UNL     1      -0.347  10.862  19.379  0.00  0.00    +0.000 A 
ENDROOT
BRANCH   1  18
ATOM     17  N   UNL     1       1.526   7.445  20.956  0.00  0.00    +0.000 N 
ATOM     18  C   UNL     1       1.504   8.625  20.228  0.00  0.00    +0.000 C 
ATOM     19  O   UNL     1       1.771   8.797  19.046  0.00  0.00    +0.000 OA
ATOM     20  H   UNL     1       1.268   7.512  21.935  0.00  0.00    +0.000 HD
BRANCH  17  24
ATOM     21  C   UNL     1       2.682   3.607  19.566  0.00  0.00    +0.000 A 
ATOM     22  C   UNL     1       3.549   4.690  19.425  0.00  0.00    +0.000 A 
ATOM     23  C   UNL     1       3.178   5.959  19.879  0.00  0.00    +0.000 A 
ATOM     24  C   UNL     1       1.934   6.181  20.472  0.00  0.00    +0.000 A 
ATOM     25  C   UNL     1       1.052   5.098  20.591  0.00  0.00    +0.000 A 
ATOM     26  C   UNL     1       1.424   3.820  20.141  0.00  0.00    +0.000 A 
BRANCH  21  28
ATOM     27  C   UNL     1       3.594   2.465  17.245  0.00  0.00    +0.000 C 
ATOM     28  S   UNL     1       3.170   1.983  18.940  0.00  0.00    +0.000 S 
ATOM     29  O   UNL     1       4.448   1.635  19.645  0.00  0.00    +0.000 OA
ENDBRANCH  21  28
ENDBRANCH  17  24
ENDBRANCH   1  18
TORSDOF 3
ENDMDL
MODEL 7
REMARK VINA RESULT:      -6.8      2.782      3.517
REMARK  Name = 
REMARK  4 active torsions:
REMARK  status: ('A' for Active; 'I' for Inactive)
REMARK    1  A    between atoms: C_1  and  S_2
REMARK    2  A    between atoms: S_2  and  C_4
REMARK    3  A    between atoms: C_7  and  N_8
REMARK    4  A    between atoms: C_9  and  C_11
REMARK                            x       y       z     vdW  Elec       q    Type
REMARK                         _______ _______ _______ _____ _____    ______ ____
ROOT
ATOM      1  C   UNL     1       1.575  11.311  18.305  0.00  0.00    +0.000 C 
ATOM      2  O   UNL     1       2.707  11.623  17.942  0.00  0.00    +0.000 OA
ATOM      3  N   UNL     1       0.569  12.212  18.668  0.00  0.00    +0.000 N 
ATOM      4  C   UNL     1       0.819  13.653  18.497  0.00  0.00    +0.000 C 
ATOM      5  C   UNL     1       0.963  14.237  19.925  0.00  0.00    +0.000 C 
ATOM      6  C   UNL     1       2.445  14.348  20.326  0.00  0.00    +0.000 C 
ATOM      7  C   UNL     1       2.771  15.843  20.335  0.00  0.00    +0.000 C 
ATOM      8  C   UNL     1       1.587  16.542  19.685  0.00  0.00    +0.000 C 
ATOM      9  C   UNL     1       0.402  15.659  20.032  0.00  0.00    +0.000 C 
ATOM     10  C   UNL     1       0.196  13.204  20.705  0.00  0.00    +0.000 A 
ATOM     11  C   UNL     1      -0.186  13.223  22.032  0.00  0.00    +0.000 A 
ATOM     12  F   UNL     1       0.151  14.249  22.824  0.00  0.00    +0.000 F 
ATOM     13  C   UNL     1      -0.899  12.151  22.561  0.00  0.00    +0.000 A 
ATOM     14  C   UNL     1      -1.223  11.054  21.750  0.00  0.00    +0.000 A 
ATOM     15  C   UNL     1      -0.786  11.001  20.423  0.00  0.00    +0.000 A 
ATOM     16  C   UNL     1      -0.060  12.072  19.927  0.00  0.00    +0.000 A 
ENDROOT
BRANCH   1  18
ATOM     17  N   UNL     1       2.143   9.074  19.100  0.00  0.00    +0.000 N 
ATOM     18  C   UNL     1       1.234   9.825  18.369  0.00  0.00    +0.000 C 
ATOM     19  O   UNL     1       0.226   9.447  17.787  0.00  0.00    +0.000 OA
ATOM     20  H   UNL     1       2.922   9.580  19.510  0.00  0.00    +0.000 HD
BRANCH  17  24
ATOM     21  C   UNL     1       2.041   4.853  19.504  0.00  0.00    +0.000 A 
ATOM     22  C   UNL     1       1.717   5.666  20.590  0.00  0.00    +0.000 A 
ATOM     23  C   UNL     1       1.748   7.058  20.468  0.00  0.00    +0.000 A 
ATOM     24  C   UNL     1       2.112   7.672  19.268  0.00  0.00    +0.000 A 
ATOM     25  C   UNL     1       2.461   6.855  18.184  0.00  0.00    +0.000 A 
ATOM     26  C   UNL     1       2.426   5.455  18.302  0.00  0.00    +0.000 A 
BRANCH  21  28
ATOM     27  C   UNL     1       1.661   2.978  21.469  0.00  0.00    +0.000 C 
ATOM     28  S   UNL     1       2.027   3.055  19.696  0.00  0.00    +0.000 S 
ATOM     29  O   UNL     1       0.812   2.570  18.961  0.00  0.00    +0.000 OA
ENDBRANCH  21  28
ENDBRANCH  17  24
ENDBRANCH   1  18
TORSDOF 3
ENDMDL
MODEL 8
REMARK VINA RESULT:      -6.8      3.993      9.119
REMARK  Name = 
REMARK  4 active torsions:
REMARK  status: ('A' for Active; 'I' for Inactive)
REMARK    1  A    between atoms: C_1  and  S_2
REMARK    2  A    between atoms: S_2  and  C_4
REMARK    3  A    between atoms: C_7  and  N_8
REMARK    4  A    between atoms: C_9  and  C_11
REMARK                            x       y       z     vdW  Elec       q    Type
REMARK                         _______ _______ _______ _____ _____    ______ ____
ROOT
ATOM      1  C   UNL     1       2.887   7.983  17.852  0.00  0.00    +0.000 C 
ATOM      2  O   UNL     1       3.166   8.274  16.692  0.00  0.00    +0.000 OA
ATOM      3  N   UNL     1       3.618   7.107  18.660  0.00  0.00    +0.000 N 
ATOM      4  C   UNL     1       4.891   6.572  18.147  0.00  0.00    +0.000 C 
ATOM      5  C   UNL     1       4.641   5.070  17.858  0.00  0.00    +0.000 C 
ATOM      6  C   UNL     1       4.310   4.844  16.373  0.00  0.00    +0.000 C 
ATOM      7  C   UNL     1       5.525   4.137  15.770  0.00  0.00    +0.000 C 
ATOM      8  C   UNL     1       6.626   4.212  16.816  0.00  0.00    +0.000 C 
ATOM      9  C   UNL     1       5.878   4.210  18.137  0.00  0.00    +0.000 C 
ATOM     10  C   UNL     1       3.484   4.818  18.786  0.00  0.00    +0.000 A 
ATOM     11  C   UNL     1       2.884   3.620  19.124  0.00  0.00    +0.000 A 
ATOM     12  F   UNL     1       3.303   2.471  18.579  0.00  0.00    +0.000 F 
ATOM     13  C   UNL     1       1.813   3.610  20.012  0.00  0.00    +0.000 A 
ATOM     14  C   UNL     1       1.343   4.812  20.559  0.00  0.00    +0.000 A 
ATOM     15  C   UNL     1       1.904   6.034  20.174  0.00  0.00    +0.000 A 
ATOM     16  C   UNL     1       2.957   6.018  19.272  0.00  0.00    +0.000 A 
ENDROOT
BRANCH   1  18
ATOM     17  N   UNL     1       1.889   9.278  19.664  0.00  0.00    +0.000 N 
ATOM     18  C   UNL     1       1.645   8.622  18.467  0.00  0.00    +0.000 C 
ATOM     19  O   UNL     1       0.585   8.497  17.868  0.00  0.00    +0.000 OA
ATOM     20  H   UNL     1       2.848   9.268  19.999  0.00  0.00    +0.000 HD
BRANCH  17  24
ATOM     21  C   UNL     1      -0.994  11.233  22.085  0.00  0.00    +0.000 A 
ATOM     22  C   UNL     1      -0.604   9.927  22.382  0.00  0.00    +0.000 A 
ATOM     23  C   UNL     1       0.345   9.273  21.590  0.00  0.00    +0.000 A 
ATOM     24  C   UNL     1       0.918   9.898  20.481  0.00  0.00    +0.000 A 
ATOM     25  C   UNL     1       0.508  11.202  20.169  0.00  0.00    +0.000 A 
ATOM     26  C   UNL     1      -0.442  11.864  20.965  0.00  0.00    +0.000 A 
BRANCH  21  28
ATOM     27  C   UNL     1      -1.369  13.596  23.425  0.00  0.00    +0.000 C 
ATOM     28  S   UNL     1      -2.248  12.045  23.103  0.00  0.00    +0.000 S 
ATOM     29  O   UNL     1      -3.391  12.356  22.180  0.00  0.00    +0.000 OA
ENDBRANCH  21  28
ENDBRANCH  17  24
ENDBRANCH   1  18
TORSDOF 3
ENDMDL
MODEL 9
REMARK VINA RESULT:      -6.8      7.230      8.124
REMARK  Name = 
REMARK  4 active torsions:
REMARK  status: ('A' for Active; 'I' for Inactive)
REMARK    1  A    between atoms: C_1  and  S_2
REMARK    2  A    between atoms: S_2  and  C_4
REMARK    3  A    between atoms: C_7  and  N_8
REMARK    4  A    between atoms: C_9  and  C_11
REMARK                            x       y       z     vdW  Elec       q    Type
REMARK                         _______ _______ _______ _____ _____    ______ ____
ROOT
ATOM      1  C   UNL     1       4.156  16.715  19.222  0.00  0.00    +0.000 C 
ATOM      2  O   UNL     1       4.146  17.736  19.906  0.00  0.00    +0.000 OA
ATOM      3  N   UNL     1       3.170  16.355  18.298  0.00  0.00    +0.000 N 
ATOM      4  C   UNL     1       2.086  17.312  18.017  0.00  0.00    +0.000 C 
ATOM      5  C   UNL     1       0.805  16.709  18.645  0.00  0.00    +0.000 C 
ATOM      6  C   UNL     1       0.544  17.307  20.039  0.00  0.00    +0.000 C 
ATOM      7  C   UNL     1      -0.682  18.209  19.890  0.00  0.00    +0.000 C 
ATOM      8  C   UNL     1      -0.937  18.340  18.396  0.00  0.00    +0.000 C 
ATOM      9  C   UNL     1      -0.449  17.022  17.824  0.00  0.00    +0.000 C 
ATOM     10  C   UNL     1       1.189  15.255  18.667  0.00  0.00    +0.000 A 
ATOM     11  C   UNL     1       0.411  14.154  18.970  0.00  0.00    +0.000 A 
ATOM     12  F   UNL     1      -0.869  14.303  19.333  0.00  0.00    +0.000 F 
ATOM     13  C   UNL     1       0.970  12.880  18.930  0.00  0.00    +0.000 A 
ATOM     14  C   UNL     1       2.320  12.716  18.588  0.00  0.00    +0.000 A 
ATOM     15  C   UNL     1       3.129  13.830  18.341  0.00  0.00    +0.000 A 
ATOM     16  C   UNL     1       2.552  15.089  18.408  0.00  0.00    +0.000 A 
ENDROOT
BRANCH   1  18
ATOM     17  N   UNL     1       6.182  15.720  18.293  0.00  0.00    +0.000 N 
ATOM     18  C   UNL     1       5.333  15.759  19.390  0.00  0.00    +0.000 C 
ATOM     19  O   UNL     1       5.415  15.134  20.439  0.00  0.00    +0.000 OA
ATOM     20  H   UNL     1       5.939  16.321  17.511  0.00  0.00    +0.000 HD
BRANCH  17  24
ATOM     21  C   UNL     1       9.500  13.115  17.851  0.00  0.00    +0.000 A 
ATOM     22  C   UNL     1       9.678  14.384  18.399  0.00  0.00    +0.000 A 
ATOM     23  C   UNL     1       8.592  15.251  18.549  0.00  0.00    +0.000 A 
ATOM     24  C   UNL     1       7.308  14.880  18.147  0.00  0.00    +0.000 A 
ATOM     25  C   UNL     1       7.133  13.612  17.574  0.00  0.00    +0.000 A 
ATOM     26  C   UNL     1       8.222  12.737  17.427  0.00  0.00    +0.000 A 
BRANCH  21  28
ATOM     27  C   UNL     1      12.188  13.290  17.339  0.00  0.00    +0.000 C 
ATOM     28  S   UNL     1      10.926  12.024  17.636  0.00  0.00    +0.000 S 
ATOM     29  O   UNL     1      11.195  11.424  18.985  0.00  0.00    +0.000 OA
ENDBRANCH  21  28
ENDBRANCH  17  24
ENDBRANCH   1  18
TORSDOF 3
ENDMDL
