MODEL 1
REMARK VINA RESULT:      -9.1      0.000      0.000
REMARK  Name = 
REMARK  4 active torsions:
REMARK  status: ('A' for Active; 'I' for Inactive)
REMARK    1  A    between atoms: C_2  and  C_4
REMARK    2  A    between atoms: C_6  and  N_7
REMARK    3  A    between atoms: C_8  and  C_10
REMARK    4  A    between atoms: N_12  and  C_13
REMARK                            x       y       z     vdW  Elec       q    Type
REMARK                         _______ _______ _______ _____ _____    ______ ____
ROOT
ATOM      1  N   UNL     1       1.392   8.788  19.106  0.00  0.00    +0.000 N 
ATOM      2  C   UNL     1       1.678   7.749  19.983  0.00  0.00    +0.000 C 
ATOM      3  O   UNL     1       1.182   7.653  21.105  0.00  0.00    +0.000 OA
ATOM      4  H   UNL     1       1.723   8.653  18.154  0.00  0.00    +0.000 HD
ENDROOT
BRANCH   2   5
ATOM      5  C   UNL     1       2.590   6.683  19.494  0.00  0.00    +0.000 A 
ATOM      6  N   UNL     1       3.567   6.846  18.570  0.00  0.00    +0.000 NA
ATOM      7  N   UNL     1       4.069   5.577  18.356  0.00  0.00    +0.000 N 
ATOM      8  C   UNL     1       3.529   4.666  19.243  0.00  0.00    +0.000 A 
ATOM      9  C   UNL     1       2.564   5.339  19.959  0.00  0.00    +0.000 A 
ATOM     10  C   UNL     1       1.716   4.697  21.010  0.00  0.00    +0.000 C 
ATOM     11  C   UNL     1       2.297   3.349  21.464  0.00  0.00    +0.000 C 
ATOM     12  C   UNL     1       2.829   2.523  20.285  0.00  0.00    +0.000 C 
ATOM     13  C   UNL     1       3.956   3.264  19.544  0.00  0.00    +0.000 C 
BRANCH   7  14
ATOM     14  C   UNL     1       5.020   5.334  17.319  0.00  0.00    +0.000 A 
ATOM     15  C   UNL     1       4.704   4.458  16.272  0.00  0.00    +0.000 A 
ATOM     16  C   UNL     1       5.627   4.241  15.240  0.00  0.00    +0.000 A 
ATOM     17  C   UNL     1       6.864   4.879  15.269  0.00  0.00    +0.000 A 
ATOM     18  F   UNL     1       7.747   4.657  14.286  0.00  0.00    +0.000 F 
ATOM     19  C   UNL     1       7.203   5.726  16.312  0.00  0.00    +0.000 A 
ATOM     20  C   UNL     1       6.285   5.946  17.342  0.00  0.00    +0.000 A 
ENDBRANCH   7  14
ENDBRANCH   2   5
BRANCH   1  23
ATOM     21  C   UNL     1      -1.320  11.426  18.963  0.00  0.00    +0.000 A 
ATOM     22  C   UNL     1      -0.544  10.285  18.657  0.00  0.00    +0.000 A 
ATOM     23  C   UNL     1       0.578   9.914  19.414  0.00  0.00    +0.000 A 
ATOM     24  C   UNL     1       0.900  10.693  20.528  0.00  0.00    +0.000 A 
ATOM     25  C   UNL     1       0.141  11.833  20.844  0.00  0.00    +0.000 A 
ATOM     26  C   UNL     1      -0.965  12.204  20.069  0.00  0.00    +0.000 A 
ATOM     27 CL   UNL     1      -1.844  13.598  20.590  0.00  0.00    +0.000 Cl
BRANCH  21  29
ATOM     28  N   UNL     1      -2.269  11.901  16.744  0.00  0.00    +0.000 N 
ATOM     29  C   UNL     1      -2.488  11.684  18.074  0.00  0.00    +0.000 C 
ATOM     30  O   UNL     1      -3.635  11.673  18.512  0.00  0.00    +0.000 OA
ATOM     31  H   UNL     1      -3.073  12.112  16.169  0.00  0.00    +0.000 HD
ATOM     32  H   UNL     1      -1.347  12.013  16.344  0.00  0.00    +0.000 HD
ENDBRANCH  21  29
ENDBRANCH   1  23
TORSDOF 4
ENDMDL
MODEL 2
REMARK VINA RESULT:      -8.8      1.964      2.172
REMARK  Name = 
REMARK  4 active torsions:
REMARK  status: ('A' for Active; 'I' for Inactive)
REMARK    1  A    between atoms: C_2  and  C_4
REMARK    2  A    between atoms: C_6  and  N_7
REMARK    3  A    between atoms: C_8  and  C_10
REMARK    4  A    between atoms: N_12  and  C_13
REMARK                            x       y       z     vdW  Elec       q    Type
REMARK                         _______ _______ _______ _____ _____    ______ ____
ROOT
ATOM      1  N   UNL     1       1.586   8.444  20.937  0.00  0.00    +0.000 N 
ATOM      2  C   UNL     1       1.713   8.180  19.579  0.00  0.00    +0.000 C 
ATOM      3  O   UNL     1       1.189   8.866  18.703  0.00  0.00    +0.000 OA
ATOM      4  H   UNL     1       2.210   7.916  21.541  0.00  0.00    +0.000 HD
ENDROOT
BRANCH   2   5
ATOM      5  C   UNL     1       2.578   7.035  19.192  0.00  0.00    +0.000 A 
ATOM      6  N   UNL     1       3.589   7.083  18.291  0.00  0.00    +0.000 NA
ATOM      7  N   UNL     1       4.026   5.778  18.178  0.00  0.00    +0.000 N 
ATOM      8  C   UNL     1       3.411   4.960  19.106  0.00  0.00    +0.000 A 
ATOM      9  C   UNL     1       2.466   5.730  19.744  0.00  0.00    +0.000 A 
ATOM     10  C   UNL     1       1.553   5.207  20.807  0.00  0.00    +0.000 C 
ATOM     11  C   UNL     1       2.046   3.864  21.368  0.00  0.00    +0.000 C 
ATOM     12  C   UNL     1       2.565   2.933  20.265  0.00  0.00    +0.000 C 
ATOM     13  C   UNL     1       3.752   3.560  19.512  0.00  0.00    +0.000 C 
BRANCH   7  14
ATOM     14  C   UNL     1       4.991   5.415  17.191  0.00  0.00    +0.000 A 
ATOM     15  C   UNL     1       4.671   4.457  16.219  0.00  0.00    +0.000 A 
ATOM     16  C   UNL     1       5.609   4.121  15.234  0.00  0.00    +0.000 A 
ATOM     17  C   UNL     1       6.864   4.722  15.235  0.00  0.00    +0.000 A 
ATOM     18  F   UNL     1       7.762   4.387  14.298  0.00  0.00    +0.000 F 
ATOM     19  C   UNL     1       7.207   5.650  16.206  0.00  0.00    +0.000 A 
ATOM     20  C   UNL     1       6.274   5.989  17.189  0.00  0.00    +0.000 A 
ENDBRANCH   7  14
ENDBRANCH   2   5
BRANCH   1  23
ATOM     21  C   UNL     1      -0.009  11.806  21.640  0.00  0.00    +0.000 A 
ATOM     22  C   UNL     1       0.789  10.799  21.051  0.00  0.00    +0.000 A 
ATOM     23  C   UNL     1       0.768   9.467  21.494  0.00  0.00    +0.000 A 
ATOM     24  C   UNL     1      -0.107   9.140  22.532  0.00  0.00    +0.000 A 
ATOM     25  C   UNL     1      -0.905  10.129  23.131  0.00  0.00    +0.000 A 
ATOM     26  C   UNL     1      -0.861  11.458  22.693  0.00  0.00    +0.000 A 
ATOM     27 CL   UNL     1      -1.926  12.570  23.479  0.00  0.00    +0.000 Cl
BRANCH  21  29
ATOM     28  N   UNL     1      -0.740  13.538  20.054  0.00  0.00    +0.000 N 
ATOM     29  C   UNL     1       0.115  13.169  21.053  0.00  0.00    +0.000 C 
ATOM     30  O   UNL     1       0.946  13.969  21.473  0.00  0.00    +0.000 OA
ATOM     31  H   UNL     1      -0.610  14.453  19.645  0.00  0.00    +0.000 HD
ATOM     32  H   UNL     1      -1.380  12.896  19.605  0.00  0.00    +0.000 HD
ENDBRANCH  21  29
ENDBRANCH   1  23
TORSDOF 4
ENDMDL
MODEL 3
REMARK VINA RESULT:      -8.7      2.032      2.377
REMARK  Name = 
REMARK  4 active torsions:
REMARK  status: ('A' for Active; 'I' for Inactive)
REMARK    1  A    between atoms: C_2  and  C_4
REMARK    2  A    between atoms: C_6  and  N_7
REMARK    3  A    between atoms: C_8  and  C_10
REMARK    4  A    between atoms: N_12  and  C_13
REMARK                            x       y       z     vdW  Elec       q    Type
REMARK                         _______ _______ _______ _____ _____    ______ ____
ROOT
ATOM      1  N   UNL     1       1.588   8.469  20.918  0.00  0.00    +0.000 N 
ATOM      2  C   UNL     1       1.686   8.187  19.562  0.00  0.00    +0.000 C 
ATOM      3  O   UNL     1       1.135   8.856  18.688  0.00  0.00    +0.000 OA
ATOM      4  H   UNL     1       2.231   7.955  21.515  0.00  0.00    +0.000 HD
ENDROOT
BRANCH   2   5
ATOM      5  C   UNL     1       2.553   7.045  19.170  0.00  0.00    +0.000 A 
ATOM      6  N   UNL     1       3.545   7.091  18.249  0.00  0.00    +0.000 NA
ATOM      7  N   UNL     1       3.991   5.788  18.142  0.00  0.00    +0.000 N 
ATOM      8  C   UNL     1       3.401   4.975  19.091  0.00  0.00    +0.000 A 
ATOM      9  C   UNL     1       2.462   5.745  19.739  0.00  0.00    +0.000 A 
ATOM     10  C   UNL     1       1.574   5.227  20.825  0.00  0.00    +0.000 C 
ATOM     11  C   UNL     1       2.089   3.894  21.391  0.00  0.00    +0.000 C 
ATOM     12  C   UNL     1       2.594   2.955  20.288  0.00  0.00    +0.000 C 
ATOM     13  C   UNL     1       3.761   3.583  19.506  0.00  0.00    +0.000 C 
BRANCH   7  14
ATOM     14  C   UNL     1       4.940   5.421  17.140  0.00  0.00    +0.000 A 
ATOM     15  C   UNL     1       6.213   6.007  17.136  0.00  0.00    +0.000 A 
ATOM     16  C   UNL     1       7.154   5.627  16.170  0.00  0.00    +0.000 A 
ATOM     17  C   UNL     1       6.815   4.685  15.203  0.00  0.00    +0.000 A 
ATOM     18  F   UNL     1       7.714   4.335  14.273  0.00  0.00    +0.000 F 
ATOM     19  C   UNL     1       5.551   4.117  15.176  0.00  0.00    +0.000 A 
ATOM     20  C   UNL     1       4.610   4.492  16.138  0.00  0.00    +0.000 A 
ENDBRANCH   7  14
ENDBRANCH   2   5
BRANCH   1  23
ATOM     21  C   UNL     1      -0.006  11.830  21.626  0.00  0.00    +0.000 A 
ATOM     22  C   UNL     1       0.788  10.823  21.033  0.00  0.00    +0.000 A 
ATOM     23  C   UNL     1       0.774   9.493  21.480  0.00  0.00    +0.000 A 
ATOM     24  C   UNL     1      -0.091   9.166  22.527  0.00  0.00    +0.000 A 
ATOM     25  C   UNL     1      -0.885  10.156  23.131  0.00  0.00    +0.000 A 
ATOM     26  C   UNL     1      -0.847  11.484  22.688  0.00  0.00    +0.000 A 
ATOM     27 CL   UNL     1      -1.907  12.597  23.481  0.00  0.00    +0.000 Cl
BRANCH  21  29
ATOM     28  N   UNL     1       0.793  14.155  21.721  0.00  0.00    +0.000 N 
ATOM     29  C   UNL     1       0.110  13.192  21.034  0.00  0.00    +0.000 C 
ATOM     30  O   UNL     1      -0.369  13.449  19.933  0.00  0.00    +0.000 OA
ATOM     31  H   UNL     1       0.823  15.080  21.316  0.00  0.00    +0.000 HD
ATOM     32  H   UNL     1       1.127  14.030  22.667  0.00  0.00    +0.000 HD
ENDBRANCH  21  29
ENDBRANCH   1  23
TORSDOF 4
ENDMDL
MODEL 4
REMARK VINA RESULT:      -8.7      1.157      1.474
REMARK  Name = 
REMARK  4 active torsions:
REMARK  status: ('A' for Active; 'I' for Inactive)
REMARK    1  A    between atoms: C_2  and  C_4
REMARK    2  A    between atoms: C_6  and  N_7
REMARK    3  A    between atoms: C_8  and  C_10
REMARK    4  A    between atoms: N_12  and  C_13
REMARK                            x       y       z     vdW  Elec       q    Type
REMARK                         _______ _______ _______ _____ _____    ______ ____
ROOT
ATOM      1  N   UNL     1       1.408   8.644  19.404  0.00  0.00    +0.000 N 
ATOM      2  C   UNL     1       1.725   7.549  20.197  0.00  0.00    +0.000 C 
ATOM      3  O   UNL     1       1.368   7.434  21.369  0.00  0.00    +0.000 OA
ATOM      4  H   UNL     1       1.606   8.533  18.413  0.00  0.00    +0.000 HD
ENDROOT
BRANCH   2   5
ATOM      5  C   UNL     1       2.489   6.448  19.555  0.00  0.00    +0.000 A 
ATOM      6  N   UNL     1       3.572   6.604  18.756  0.00  0.00    +0.000 NA
ATOM      7  N   UNL     1       3.872   5.331  18.310  0.00  0.00    +0.000 N 
ATOM      8  C   UNL     1       3.093   4.381  18.943  0.00  0.00    +0.000 A 
ATOM      9  C   UNL     1       2.187   5.069  19.719  0.00  0.00    +0.000 A 
ATOM     10  C   UNL     1       1.135   4.403  20.547  0.00  0.00    +0.000 C 
ATOM     11  C   UNL     1       1.427   2.906  20.741  0.00  0.00    +0.000 C 
ATOM     12  C   UNL     1       1.933   2.246  19.452  0.00  0.00    +0.000 C 
ATOM     13  C   UNL     1       3.242   2.892  18.965  0.00  0.00    +0.000 C 
BRANCH   7  14
ATOM     14  C   UNL     1       4.872   5.124  17.314  0.00  0.00    +0.000 A 
ATOM     15  C   UNL     1       6.140   5.702  17.464  0.00  0.00    +0.000 A 
ATOM     16  C   UNL     1       7.130   5.475  16.500  0.00  0.00    +0.000 A 
ATOM     17  C   UNL     1       6.847   4.695  15.383  0.00  0.00    +0.000 A 
ATOM     18  F   UNL     1       7.794   4.492  14.457  0.00  0.00    +0.000 F 
ATOM     19  C   UNL     1       5.590   4.139  15.205  0.00  0.00    +0.000 A 
ATOM     20  C   UNL     1       4.600   4.361  16.165  0.00  0.00    +0.000 A 
ENDBRANCH   7  14
ENDBRANCH   2   5
BRANCH   1  23
ATOM     21  C   UNL     1      -0.287  12.029  19.489  0.00  0.00    +0.000 A 
ATOM     22  C   UNL     1       0.366  10.870  19.012  0.00  0.00    +0.000 A 
ATOM     23  C   UNL     1       0.723   9.807  19.857  0.00  0.00    +0.000 A 
ATOM     24  C   UNL     1       0.378   9.903  21.207  0.00  0.00    +0.000 A 
ATOM     25  C   UNL     1      -0.268  11.050  21.698  0.00  0.00    +0.000 A 
ATOM     26  C   UNL     1      -0.601  12.113  20.848  0.00  0.00    +0.000 A 
ATOM     27 CL   UNL     1      -1.437  13.446  21.565  0.00  0.00    +0.000 Cl
BRANCH  21  29
ATOM     28  N   UNL     1      -1.338  12.708  17.371  0.00  0.00    +0.000 N 
ATOM     29  C   UNL     1      -0.611  13.067  18.470  0.00  0.00    +0.000 C 
ATOM     30  O   UNL     1      -0.262  14.235  18.619  0.00  0.00    +0.000 OA
ATOM     31  H   UNL     1      -1.510  13.421  16.676  0.00  0.00    +0.000 HD
ATOM     32  H   UNL     1      -1.572  11.750  17.148  0.00  0.00    +0.000 HD
ENDBRANCH  21  29
ENDBRANCH   1  23
TORSDOF 4
ENDMDL
MODEL 5
REMARK VINA RESULT:      -8.7      1.650      2.273
REMARK  Name = 
REMARK  4 active torsions:
REMARK  status: ('A' for Active; 'I' for Inactive)
REMARK    1  A    between atoms: C_2  and  C_4
REMARK    2  A    between atoms: C_6  and  N_7
REMARK    3  A    between atoms: C_8  and  C_10
REMARK    4  A    between atoms: N_12  and  C_13
REMARK                            x       y       z     vdW  Elec       q    Type
REMARK                         _______ _______ _______ _____ _____    ______ ____
ROOT
ATOM      1  N   UNL     1       1.275   8.997  19.045  0.00  0.00    +0.000 N 
ATOM      2  C   UNL     1       1.666   8.013  19.944  0.00  0.00    +0.000 C 
ATOM      3  O   UNL     1       1.346   8.014  21.132  0.00  0.00    +0.000 OA
ATOM      4  H   UNL     1       1.452   8.784  18.067  0.00  0.00    +0.000 HD
ENDROOT
BRANCH   2   5
ATOM      5  C   UNL     1       2.466   6.883  19.404  0.00  0.00    +0.000 A 
ATOM      6  N   UNL     1       3.516   6.998  18.556  0.00  0.00    +0.000 NA
ATOM      7  N   UNL     1       3.866   5.697  18.246  0.00  0.00    +0.000 N 
ATOM      8  C   UNL     1       3.155   4.790  19.009  0.00  0.00    +0.000 A 
ATOM      9  C   UNL     1       2.238   5.519  19.733  0.00  0.00    +0.000 A 
ATOM     10  C   UNL     1       1.245   4.903  20.666  0.00  0.00    +0.000 C 
ATOM     11  C   UNL     1       1.617   3.454  21.017  0.00  0.00    +0.000 C 
ATOM     12  C   UNL     1       2.118   2.675  19.794  0.00  0.00    +0.000 C 
ATOM     13  C   UNL     1       3.379   3.322  19.193  0.00  0.00    +0.000 C 
BRANCH   7  14
ATOM     14  C   UNL     1       4.846   5.424  17.246  0.00  0.00    +0.000 A 
ATOM     15  C   UNL     1       6.100   6.048  17.307  0.00  0.00    +0.000 A 
ATOM     16  C   UNL     1       7.072   5.758  16.340  0.00  0.00    +0.000 A 
ATOM     17  C   UNL     1       6.783   4.870  15.308  0.00  0.00    +0.000 A 
ATOM     18  F   UNL     1       7.712   4.607  14.379  0.00  0.00    +0.000 F 
ATOM     19  C   UNL     1       5.539   4.267  15.217  0.00  0.00    +0.000 A 
ATOM     20  C   UNL     1       4.567   4.552  16.180  0.00  0.00    +0.000 A 
ENDBRANCH   7  14
ENDBRANCH   2   5
BRANCH   1  23
ATOM     21  C   UNL     1       0.379  12.428  20.374  0.00  0.00    +0.000 A 
ATOM     22  C   UNL     1       1.128  11.285  20.014  0.00  0.00    +0.000 A 
ATOM     23  C   UNL     1       0.546  10.171  19.388  0.00  0.00    +0.000 A 
ATOM     24  C   UNL     1      -0.816  10.231  19.086  0.00  0.00    +0.000 A 
ATOM     25  C   UNL     1      -1.576  11.358  19.439  0.00  0.00    +0.000 A 
ATOM     26  C   UNL     1      -0.988  12.455  20.081  0.00  0.00    +0.000 A 
ATOM     27 CL   UNL     1      -2.020  13.800  20.421  0.00  0.00    +0.000 Cl
BRANCH  21  29
ATOM     28  N   UNL     1       2.112  14.172  20.307  0.00  0.00    +0.000 N 
ATOM     29  C   UNL     1       1.138  13.534  21.021  0.00  0.00    +0.000 C 
ATOM     30  O   UNL     1       0.881  13.896  22.166  0.00  0.00    +0.000 OA
ATOM     31  H   UNL     1       2.639  14.892  20.782  0.00  0.00    +0.000 HD
ATOM     32  H   UNL     1       2.430  13.860  19.400  0.00  0.00    +0.000 HD
ENDBRANCH  21  29
ENDBRANCH   1  23
TORSDOF 4
ENDMDL
MODEL 6
REMARK VINA RESULT:      -8.6      1.658      2.128
REMARK  Name = 
REMARK  4 active torsions:
REMARK  status: ('A' for Active; 'I' for Inactive)
REMARK    1  A    between atoms: C_2  and  C_4
REMARK    2  A    between atoms: C_6  and  N_7
REMARK    3  A    between atoms: C_8  and  C_10
REMARK    4  A    between atoms: N_12  and  C_13
REMARK                            x       y       z     vdW  Elec       q    Type
REMARK                         _______ _______ _______ _____ _____    ______ ____
ROOT
ATOM      1  N   UNL     1       1.440   8.605  19.188  0.00  0.00    +0.000 N 
ATOM      2  C   UNL     1       1.772   7.558  20.039  0.00  0.00    +0.000 C 
ATOM      3  O   UNL     1       1.416   7.504  21.216  0.00  0.00    +0.000 OA
ATOM      4  H   UNL     1       1.639   8.441  18.204  0.00  0.00    +0.000 HD
ENDROOT
BRANCH   2   5
ATOM      5  C   UNL     1       2.548   6.433  19.457  0.00  0.00    +0.000 A 
ATOM      6  N   UNL     1       3.628   6.558  18.649  0.00  0.00    +0.000 NA
ATOM      7  N   UNL     1       3.943   5.266  18.274  0.00  0.00    +0.000 N 
ATOM      8  C   UNL     1       3.178   4.343  18.961  0.00  0.00    +0.000 A 
ATOM      9  C   UNL     1       2.264   5.061  19.699  0.00  0.00    +0.000 A 
ATOM     10  C   UNL     1       1.222   4.429  20.566  0.00  0.00    +0.000 C 
ATOM     11  C   UNL     1       1.534   2.950  20.842  0.00  0.00    +0.000 C 
ATOM     12  C   UNL     1       2.046   2.225  19.591  0.00  0.00    +0.000 C 
ATOM     13  C   UNL     1       3.346   2.860  19.065  0.00  0.00    +0.000 C 
BRANCH   7  14
ATOM     14  C   UNL     1       4.944   5.016  17.288  0.00  0.00    +0.000 A 
ATOM     15  C   UNL     1       4.571   4.768  15.960  0.00  0.00    +0.000 A 
ATOM     16  C   UNL     1       5.555   4.551  14.986  0.00  0.00    +0.000 A 
ATOM     17  C   UNL     1       6.899   4.558  15.344  0.00  0.00    +0.000 A 
ATOM     18  F   UNL     1       7.836   4.336  14.411  0.00  0.00    +0.000 F 
ATOM     19  C   UNL     1       7.284   4.773  16.658  0.00  0.00    +0.000 A 
ATOM     20  C   UNL     1       6.306   4.992  17.632  0.00  0.00    +0.000 A 
ENDBRANCH   7  14
ENDBRANCH   2   5
BRANCH   1  23
ATOM     21  C   UNL     1      -0.402  11.190  21.251  0.00  0.00    +0.000 A 
ATOM     22  C   UNL     1       0.318  10.028  20.893  0.00  0.00    +0.000 A 
ATOM     23  C   UNL     1       0.741   9.782  19.577  0.00  0.00    +0.000 A 
ATOM     24  C   UNL     1       0.462  10.750  18.610  0.00  0.00    +0.000 A 
ATOM     25  C   UNL     1      -0.256  11.910  18.949  0.00  0.00    +0.000 A 
ATOM     26  C   UNL     1      -0.690  12.135  20.261  0.00  0.00    +0.000 A 
ATOM     27 CL   UNL     1      -1.521  13.621  20.559  0.00  0.00    +0.000 Cl
BRANCH  21  29
ATOM     28  N   UNL     1      -1.101  10.189  23.386  0.00  0.00    +0.000 N 
ATOM     29  C   UNL     1      -0.773  11.316  22.689  0.00  0.00    +0.000 C 
ATOM     30  O   UNL     1      -0.755  12.405  23.256  0.00  0.00    +0.000 OA
ATOM     31  H   UNL     1      -1.387  10.306  24.349  0.00  0.00    +0.000 HD
ATOM     32  H   UNL     1      -1.223   9.284  22.953  0.00  0.00    +0.000 HD
ENDBRANCH  21  29
ENDBRANCH   1  23
TORSDOF 4
ENDMDL
MODEL 7
REMARK VINA RESULT:      -8.5      4.906      9.817
REMARK  Name = 
REMARK  4 active torsions:
REMARK  status: ('A' for Active; 'I' for Inactive)
REMARK    1  A    between atoms: C_2  and  C_4
REMARK    2  A    between atoms: C_6  and  N_7
REMARK    3  A    between atoms: C_8  and  C_10
REMARK    4  A    between atoms: N_12  and  C_13
REMARK                            x       y       z     vdW  Elec       q    Type
REMARK                         _______ _______ _______ _____ _____    ______ ____
ROOT
ATOM      1  N   UNL     1       1.958   8.420  19.251  0.00  0.00    +0.000 N 
ATOM      2  C   UNL     1       1.169   9.318  18.544  0.00  0.00    +0.000 C 
ATOM      3  O   UNL     1       0.879   9.176  17.356  0.00  0.00    +0.000 OA
ATOM      4  H   UNL     1       1.970   8.555  20.259  0.00  0.00    +0.000 HD
ENDROOT
BRANCH   2   5
ATOM      5  C   UNL     1       0.613  10.470  19.299  0.00  0.00    +0.000 A 
ATOM      6  N   UNL     1      -0.411  10.410  20.184  0.00  0.00    +0.000 NA
ATOM      7  N   UNL     1      -0.646  11.723  20.545  0.00  0.00    +0.000 N 
ATOM      8  C   UNL     1       0.314  12.568  20.021  0.00  0.00    +0.000 A 
ATOM      9  C   UNL     1       1.110  11.799  19.202  0.00  0.00    +0.000 A 
ATOM     10  C   UNL     1       2.257  12.346  18.414  0.00  0.00    +0.000 C 
ATOM     11  C   UNL     1       2.681  13.735  18.916  0.00  0.00    +0.000 C 
ATOM     12  C   UNL     1       1.473  14.623  19.245  0.00  0.00    +0.000 C 
ATOM     13  C   UNL     1       0.601  13.999  20.350  0.00  0.00    +0.000 C 
BRANCH   7  14
ATOM     14  C   UNL     1      -1.769  12.067  21.355  0.00  0.00    +0.000 A 
ATOM     15  C   UNL     1      -2.893  12.669  20.774  0.00  0.00    +0.000 A 
ATOM     16  C   UNL     1      -4.007  12.981  21.565  0.00  0.00    +0.000 A 
ATOM     17  C   UNL     1      -3.986  12.713  22.930  0.00  0.00    +0.000 A 
ATOM     18  F   UNL     1      -5.049  13.026  23.684  0.00  0.00    +0.000 F 
ATOM     19  C   UNL     1      -2.871  12.145  23.526  0.00  0.00    +0.000 A 
ATOM     20  C   UNL     1      -1.759  11.831  22.741  0.00  0.00    +0.000 A 
ENDBRANCH   7  14
ENDBRANCH   2   5
BRANCH   1  23
ATOM     21  C   UNL     1       4.278   6.242  17.199  0.00  0.00    +0.000 A 
ATOM     22  C   UNL     1       3.667   7.381  17.771  0.00  0.00    +0.000 A 
ATOM     23  C   UNL     1       2.608   7.286  18.687  0.00  0.00    +0.000 A 
ATOM     24  C   UNL     1       2.183   6.010  19.062  0.00  0.00    +0.000 A 
ATOM     25  C   UNL     1       2.777   4.867  18.501  0.00  0.00    +0.000 A 
ATOM     26  C   UNL     1       3.820   4.975  17.572  0.00  0.00    +0.000 A 
ATOM     27 CL   UNL     1       4.499   3.495  16.992  0.00  0.00    +0.000 Cl
BRANCH  21  29
ATOM     28  N   UNL     1       6.681   6.425  16.708  0.00  0.00    +0.000 N 
ATOM     29  C   UNL     1       5.397   6.503  16.251  0.00  0.00    +0.000 C 
ATOM     30  O   UNL     1       5.182   6.754  15.068  0.00  0.00    +0.000 OA
ATOM     31  H   UNL     1       7.420   6.645  16.055  0.00  0.00    +0.000 HD
ATOM     32  H   UNL     1       6.917   6.315  17.685  0.00  0.00    +0.000 HD
ENDBRANCH  21  29
ENDBRANCH   1  23
TORSDOF 4
ENDMDL
MODEL 8
REMARK VINA RESULT:      -8.5      4.806      9.714
REMARK  Name = 
REMARK  4 active torsions:
REMARK  status: ('A' for Active; 'I' for Inactive)
REMARK    1  A    between atoms: C_2  and  C_4
REMARK    2  A    between atoms: C_6  and  N_7
REMARK    3  A    between atoms: C_8  and  C_10
REMARK    4  A    between atoms: N_12  and  C_13
REMARK                            x       y       z     vdW  Elec       q    Type
REMARK                         _______ _______ _______ _____ _____    ______ ____
ROOT
ATOM      1  N   UNL     1       2.089   8.250  19.068  0.00  0.00    +0.000 N 
ATOM      2  C   UNL     1       1.420   9.235  18.354  0.00  0.00    +0.000 C 
ATOM      3  O   UNL     1       1.223   9.178  17.141  0.00  0.00    +0.000 OA
ATOM      4  H   UNL     1       2.025   8.330  20.080  0.00  0.00    +0.000 HD
ENDROOT
BRANCH   2   5
ATOM      5  C   UNL     1       0.875  10.380  19.129  0.00  0.00    +0.000 A 
ATOM      6  N   UNL     1      -0.115  10.305  20.051  0.00  0.00    +0.000 NA
ATOM      7  N   UNL     1      -0.357  11.614  20.420  0.00  0.00    +0.000 N 
ATOM      8  C   UNL     1       0.570  12.473  19.862  0.00  0.00    +0.000 A 
ATOM      9  C   UNL     1       1.348  11.716  19.015  0.00  0.00    +0.000 A 
ATOM     10  C   UNL     1       2.458  12.279  18.186  0.00  0.00    +0.000 C 
ATOM     11  C   UNL     1       2.878  13.675  18.673  0.00  0.00    +0.000 C 
ATOM     12  C   UNL     1       1.670  14.544  19.045  0.00  0.00    +0.000 C 
ATOM     13  C   UNL     1       0.848  13.909  20.181  0.00  0.00    +0.000 C 
BRANCH   7  14
ATOM     14  C   UNL     1      -1.455  11.941  21.271  0.00  0.00    +0.000 A 
ATOM     15  C   UNL     1      -2.590  12.567  20.738  0.00  0.00    +0.000 A 
ATOM     16  C   UNL     1      -3.680  12.863  21.568  0.00  0.00    +0.000 A 
ATOM     17  C   UNL     1      -3.623  12.555  22.924  0.00  0.00    +0.000 A 
ATOM     18  F   UNL     1      -4.663  12.853  23.716  0.00  0.00    +0.000 F 
ATOM     19  C   UNL     1      -2.497  11.962  23.473  0.00  0.00    +0.000 A 
ATOM     20  C   UNL     1      -1.409  11.664  22.648  0.00  0.00    +0.000 A 
ENDBRANCH   7  14
ENDBRANCH   2   5
BRANCH   1  23
ATOM     21  C   UNL     1       2.915   4.673  18.142  0.00  0.00    +0.000 A 
ATOM     22  C   UNL     1       2.261   5.795  18.698  0.00  0.00    +0.000 A 
ATOM     23  C   UNL     1       2.714   7.108  18.492  0.00  0.00    +0.000 A 
ATOM     24  C   UNL     1       3.830   7.291  17.673  0.00  0.00    +0.000 A 
ATOM     25  C   UNL     1       4.494   6.186  17.114  0.00  0.00    +0.000 A 
ATOM     26  C   UNL     1       4.044   4.880  17.344  0.00  0.00    +0.000 A 
ATOM     27 CL   UNL     1       4.919   3.610  16.562  0.00  0.00    +0.000 Cl
BRANCH  21  29
ATOM     28  N   UNL     1       2.936   2.520  19.331  0.00  0.00    +0.000 N 
ATOM     29  C   UNL     1       2.310   3.345  18.441  0.00  0.00    +0.000 C 
ATOM     30  O   UNL     1       1.250   2.999  17.928  0.00  0.00    +0.000 OA
ATOM     31  H   UNL     1       2.527   1.609  19.487  0.00  0.00    +0.000 HD
ATOM     32  H   UNL     1       3.854   2.709  19.713  0.00  0.00    +0.000 HD
ENDBRANCH  21  29
ENDBRANCH   1  23
TORSDOF 4
ENDMDL
MODEL 9
REMARK VINA RESULT:      -8.5      4.687      9.583
REMARK  Name = 
REMARK  4 active torsions:
REMARK  status: ('A' for Active; 'I' for Inactive)
REMARK    1  A    between atoms: C_2  and  C_4
REMARK    2  A    between atoms: C_6  and  N_7
REMARK    3  A    between atoms: C_8  and  C_10
REMARK    4  A    between atoms: N_12  and  C_13
REMARK                            x       y       z     vdW  Elec       q    Type
REMARK                         _______ _______ _______ _____ _____    ______ ____
ROOT
ATOM      1  N   UNL     1       1.632   8.177  19.169  0.00  0.00    +0.000 N 
ATOM      2  C   UNL     1       1.435   9.370  18.487  0.00  0.00    +0.000 C 
ATOM      3  O   UNL     1       2.027   9.664  17.449  0.00  0.00    +0.000 OA
ATOM      4  H   UNL     1       0.955   7.980  19.902  0.00  0.00    +0.000 HD
ENDROOT
BRANCH   2   5
ATOM      5  C   UNL     1       0.409  10.298  19.030  0.00  0.00    +0.000 A 
ATOM      6  N   UNL     1       0.571  11.110  20.102  0.00  0.00    +0.000 NA
ATOM      7  N   UNL     1      -0.666  11.693  20.297  0.00  0.00    +0.000 N 
ATOM      8  C   UNL     1      -1.538  11.377  19.273  0.00  0.00    +0.000 A 
ATOM      9  C   UNL     1      -0.887  10.468  18.469  0.00  0.00    +0.000 A 
ATOM     10  C   UNL     1      -1.503   9.846  17.257  0.00  0.00    +0.000 C 
ATOM     11  C   UNL     1      -2.755  10.612  16.799  0.00  0.00    +0.000 C 
ATOM     12  C   UNL     1      -3.632  11.042  17.981  0.00  0.00    +0.000 C 
ATOM     13  C   UNL     1      -2.869  11.974  18.939  0.00  0.00    +0.000 C 
BRANCH   7  14
ATOM     14  C   UNL     1      -0.919  12.501  21.446  0.00  0.00    +0.000 A 
ATOM     15  C   UNL     1      -0.214  13.699  21.626  0.00  0.00    +0.000 A 
ATOM     16  C   UNL     1      -0.482  14.507  22.740  0.00  0.00    +0.000 A 
ATOM     17  C   UNL     1      -1.431  14.106  23.676  0.00  0.00    +0.000 A 
ATOM     18  F   UNL     1      -1.674  14.876  24.746  0.00  0.00    +0.000 F 
ATOM     19  C   UNL     1      -2.116  12.911  23.527  0.00  0.00    +0.000 A 
ATOM     20  C   UNL     1      -1.853  12.103  22.417  0.00  0.00    +0.000 A 
ENDBRANCH   7  14
ENDBRANCH   2   5
BRANCH   1  23
ATOM     21  C   UNL     1       4.501   6.374  17.478  0.00  0.00    +0.000 A 
ATOM     22  C   UNL     1       3.571   7.379  17.827  0.00  0.00    +0.000 A 
ATOM     23  C   UNL     1       2.598   7.191  18.823  0.00  0.00    +0.000 A 
ATOM     24  C   UNL     1       2.592   5.972  19.505  0.00  0.00    +0.000 A 
ATOM     25  C   UNL     1       3.508   4.961  19.169  0.00  0.00    +0.000 A 
ATOM     26  C   UNL     1       4.461   5.154  18.160  0.00  0.00    +0.000 A 
ATOM     27 CL   UNL     1       5.562   3.853  17.873  0.00  0.00    +0.000 Cl
BRANCH  21  29
ATOM     28  N   UNL     1       6.742   7.099  16.769  0.00  0.00    +0.000 N 
ATOM     29  C   UNL     1       5.479   6.727  16.411  0.00  0.00    +0.000 C 
ATOM     30  O   UNL     1       5.175   6.658  15.223  0.00  0.00    +0.000 OA
ATOM     31  H   UNL     1       7.374   7.371  16.029  0.00  0.00    +0.000 HD
ATOM     32  H   UNL     1       7.022   7.263  17.727  0.00  0.00    +0.000 HD
ENDBRANCH  21  29
ENDBRANCH   1  23
TORSDOF 4
ENDMDL
