MODEL 1
REMARK VINA RESULT:      -8.4      0.000      0.000
REMARK  Name = 
REMARK  5 active torsions:
REMARK  status: ('A' for Active; 'I' for Inactive)
REMARK    1  A    between atoms: C_2  and  C_3
REMARK    2  A    between atoms: C_3  and  C_4
REMARK    3  A    between atoms: C_4  and  C_5
REMARK    4  A    between atoms: N_10  and  C_11
REMARK    5  A    between atoms: C_14  and  N_15
REMARK                            x       y       z     vdW  Elec       q    Type
REMARK                         _______ _______ _______ _____ _____    ______ ____
ROOT
ATOM      1  C   UNL     1       1.283   9.330  18.707  0.00  0.00    +0.000 A 
ATOM      2  C   UNL     1       1.263   8.740  19.966  0.00  0.00    +0.000 A 
ATOM      3  C   UNL     1       2.036   7.618  20.242  0.00  0.00    +0.000 A 
ATOM      4  C   UNL     1       2.825   7.036  19.248  0.00  0.00    +0.000 A 
ATOM      5  C   UNL     1       2.920   7.666  18.000  0.00  0.00    +0.000 A 
ATOM      6  C   UNL     1       2.154   8.814  17.736  0.00  0.00    +0.000 A 
ENDROOT
BRANCH   4   7
ATOM      7  N   UNL     1       3.293   5.694  19.422  0.00  0.00    +0.000 N 
ATOM      8  N   UNL     1       4.517   5.339  18.937  0.00  0.00    +0.000 NA
ATOM      9  C   UNL     1       4.241   4.206  18.281  0.00  0.00    +0.000 A 
ATOM     10  C   UNL     1       2.954   3.710  18.581  0.00  0.00    +0.000 A 
ATOM     11  C   UNL     1       2.133   2.656  18.148  0.00  0.00    +0.000 A 
ATOM     12  C   UNL     1       0.901   2.455  18.786  0.00  0.00    +0.000 A 
ATOM     13  C   UNL     1       0.526   3.234  19.882  0.00  0.00    +0.000 A 
ATOM     14  C   UNL     1       1.321   4.299  20.313  0.00  0.00    +0.000 A 
ATOM     15  C   UNL     1       2.488   4.563  19.578  0.00  0.00    +0.000 A 
ENDBRANCH   4   7
BRANCH   1  18
ATOM     16  O   UNL     1       1.140  12.094  19.784  0.00  0.00    +0.000 OA
ATOM     17  C   UNL     1       0.368  11.639  18.943  0.00  0.00    +0.000 C 
ATOM     18  N   UNL     1       0.415  10.385  18.355  0.00  0.00    +0.000 N 
ATOM     19  H   UNL     1      -0.235  10.201  17.594  0.00  0.00    +0.000 HD
BRANCH  17  20
ATOM     20  C   UNL     1      -0.728  12.529  18.404  0.00  0.00    +0.000 C 
BRANCH  20  21
ATOM     21  C   UNL     1      -2.084  11.915  18.731  0.00  0.00    +0.000 C 
BRANCH  21  22
ATOM     22  C   UNL     1      -2.807  11.537  17.489  0.00  0.00    +0.000 A 
ATOM     23  N   UNL     1      -4.069  11.180  17.388  0.00  0.00    +0.000 NA
ATOM     24  N   UNL     1      -4.301  10.816  16.084  0.00  0.00    +0.000 NA
ATOM     25  C   UNL     1      -3.179  10.962  15.424  0.00  0.00    +0.000 A 
ATOM     26  N   UNL     1      -2.208  11.409  16.265  0.00  0.00    +0.000 N 
ATOM     27  H   UNL     1      -1.236  11.575  16.041  0.00  0.00    +0.000 HD
ENDBRANCH  21  22
ENDBRANCH  20  21
ENDBRANCH  17  20
ENDBRANCH   1  18
TORSDOF 5
ENDMDL
MODEL 2
REMARK VINA RESULT:      -8.3      6.081      8.121
REMARK  Name = 
REMARK  5 active torsions:
REMARK  status: ('A' for Active; 'I' for Inactive)
REMARK    1  A    between atoms: C_2  and  C_3
REMARK    2  A    between atoms: C_3  and  C_4
REMARK    3  A    between atoms: C_4  and  C_5
REMARK    4  A    between atoms: N_10  and  C_11
REMARK    5  A    between atoms: C_14  and  N_15
REMARK                            x       y       z     vdW  Elec       q    Type
REMARK                         _______ _______ _______ _____ _____    ______ ____
ROOT
ATOM      1  C   UNL     1       6.231   6.814  17.146  0.00  0.00    +0.000 A 
ATOM      2  C   UNL     1       6.843   5.566  17.131  0.00  0.00    +0.000 A 
ATOM      3  C   UNL     1       6.105   4.404  17.328  0.00  0.00    +0.000 A 
ATOM      4  C   UNL     1       4.733   4.468  17.582  0.00  0.00    +0.000 A 
ATOM      5  C   UNL     1       4.088   5.710  17.517  0.00  0.00    +0.000 A 
ATOM      6  C   UNL     1       4.838   6.878  17.293  0.00  0.00    +0.000 A 
ENDROOT
BRANCH   4   7
ATOM      7  N   UNL     1       4.075   3.336  18.159  0.00  0.00    +0.000 N 
ATOM      8  N   UNL     1       3.844   2.229  17.397  0.00  0.00    +0.000 NA
ATOM      9  C   UNL     1       2.554   1.980  17.647  0.00  0.00    +0.000 A 
ATOM     10  C   UNL     1       2.065   2.722  18.745  0.00  0.00    +0.000 A 
ATOM     11  C   UNL     1       0.828   2.923  19.380  0.00  0.00    +0.000 A 
ATOM     12  C   UNL     1       0.786   3.711  20.538  0.00  0.00    +0.000 A 
ATOM     13  C   UNL     1       1.956   4.226  21.098  0.00  0.00    +0.000 A 
ATOM     14  C   UNL     1       3.191   4.053  20.469  0.00  0.00    +0.000 A 
ATOM     15  C   UNL     1       3.192   3.370  19.242  0.00  0.00    +0.000 A 
ENDBRANCH   4   7
BRANCH   1  18
ATOM     16  O   UNL     1       8.514   7.721  18.815  0.00  0.00    +0.000 OA
ATOM     17  C   UNL     1       7.990   8.398  17.934  0.00  0.00    +0.000 C 
ATOM     18  N   UNL     1       6.967   8.016  17.081  0.00  0.00    +0.000 N 
ATOM     19  H   UNL     1       6.718   8.658  16.332  0.00  0.00    +0.000 HD
BRANCH  17  20
ATOM     20  C   UNL     1       8.531   9.783  17.661  0.00  0.00    +0.000 C 
BRANCH  20  21
ATOM     21  C   UNL     1       9.194  10.324  18.921  0.00  0.00    +0.000 C 
BRANCH  21  22
ATOM     22  C   UNL     1      10.103  11.453  18.596  0.00  0.00    +0.000 A 
ATOM     23  N   UNL     1       9.774  12.595  18.031  0.00  0.00    +0.000 NA
ATOM     24  N   UNL     1      10.929  13.309  17.819  0.00  0.00    +0.000 NA
ATOM     25  C   UNL     1      11.929  12.588  18.261  0.00  0.00    +0.000 A 
ATOM     26  N   UNL     1      11.462  11.410  18.756  0.00  0.00    +0.000 N 
ATOM     27  H   UNL     1      12.009  10.645  19.128  0.00  0.00    +0.000 HD
ENDBRANCH  21  22
ENDBRANCH  20  21
ENDBRANCH  17  20
ENDBRANCH   1  18
TORSDOF 5
ENDMDL
MODEL 3
REMARK VINA RESULT:      -8.3      6.240      7.922
REMARK  Name = 
REMARK  5 active torsions:
REMARK  status: ('A' for Active; 'I' for Inactive)
REMARK    1  A    between atoms: C_2  and  C_3
REMARK    2  A    between atoms: C_3  and  C_4
REMARK    3  A    between atoms: C_4  and  C_5
REMARK    4  A    between atoms: N_10  and  C_11
REMARK    5  A    between atoms: C_14  and  N_15
REMARK                            x       y       z     vdW  Elec       q    Type
REMARK                         _______ _______ _______ _____ _____    ______ ____
ROOT
ATOM      1  C   UNL     1       6.131   6.383  17.369  0.00  0.00    +0.000 A 
ATOM      2  C   UNL     1       5.941   5.819  18.626  0.00  0.00    +0.000 A 
ATOM      3  C   UNL     1       5.122   4.708  18.795  0.00  0.00    +0.000 A 
ATOM      4  C   UNL     1       4.441   4.155  17.709  0.00  0.00    +0.000 A 
ATOM      5  C   UNL     1       4.688   4.659  16.424  0.00  0.00    +0.000 A 
ATOM      6  C   UNL     1       5.536   5.767  16.259  0.00  0.00    +0.000 A 
ENDROOT
BRANCH   4   7
ATOM      7  N   UNL     1       3.327   3.289  17.948  0.00  0.00    +0.000 N 
ATOM      8  N   UNL     1       2.309   3.233  17.042  0.00  0.00    +0.000 NA
ATOM      9  C   UNL     1       1.231   3.363  17.824  0.00  0.00    +0.000 A 
ATOM     10  C   UNL     1       1.538   3.214  19.194  0.00  0.00    +0.000 A 
ATOM     11  C   UNL     1       0.857   3.326  20.417  0.00  0.00    +0.000 A 
ATOM     12  C   UNL     1       1.537   3.005  21.599  0.00  0.00    +0.000 A 
ATOM     13  C   UNL     1       2.841   2.506  21.563  0.00  0.00    +0.000 A 
ATOM     14  C   UNL     1       3.539   2.407  20.358  0.00  0.00    +0.000 A 
ATOM     15  C   UNL     1       2.883   2.857  19.201  0.00  0.00    +0.000 A 
ENDBRANCH   4   7
BRANCH   1  18
ATOM     16  O   UNL     1       8.503   7.412  18.831  0.00  0.00    +0.000 OA
ATOM     17  C   UNL     1       7.917   8.028  17.944  0.00  0.00    +0.000 C 
ATOM     18  N   UNL     1       6.847   7.584  17.183  0.00  0.00    +0.000 N 
ATOM     19  H   UNL     1       6.545   8.175  16.412  0.00  0.00    +0.000 HD
BRANCH  17  20
ATOM     20  C   UNL     1       8.423   9.396  17.551  0.00  0.00    +0.000 C 
BRANCH  20  21
ATOM     21  C   UNL     1       9.030  10.080  18.770  0.00  0.00    +0.000 C 
BRANCH  21  22
ATOM     22  C   UNL     1       9.629  11.388  18.399  0.00  0.00    +0.000 A 
ATOM     23  N   UNL     1      10.707  11.584  17.671  0.00  0.00    +0.000 NA
ATOM     24  N   UNL     1      10.968  12.934  17.659  0.00  0.00    +0.000 NA
ATOM     25  C   UNL     1      10.044  13.524  18.375  0.00  0.00    +0.000 A 
ATOM     26  N   UNL     1       9.180  12.594  18.866  0.00  0.00    +0.000 N 
ATOM     27  H   UNL     1       8.394  12.756  19.481  0.00  0.00    +0.000 HD
ENDBRANCH  21  22
ENDBRANCH  20  21
ENDBRANCH  17  20
ENDBRANCH   1  18
TORSDOF 5
ENDMDL
MODEL 4
REMARK VINA RESULT:      -8.2      5.641      8.052
REMARK  Name = 
REMARK  5 active torsions:
REMARK  status: ('A' for Active; 'I' for Inactive)
REMARK    1  A    between atoms: C_2  and  C_3
REMARK    2  A    between atoms: C_3  and  C_4
REMARK    3  A    between atoms: C_4  and  C_5
REMARK    4  A    between atoms: N_10  and  C_11
REMARK    5  A    between atoms: C_14  and  N_15
REMARK                            x       y       z     vdW  Elec       q    Type
REMARK                         _______ _______ _______ _____ _____    ______ ____
ROOT
ATOM      1  C   UNL     1       5.688   6.685  16.976  0.00  0.00    +0.000 A 
ATOM      2  C   UNL     1       5.956   5.402  16.511  0.00  0.00    +0.000 A 
ATOM      3  C   UNL     1       5.007   4.391  16.615  0.00  0.00    +0.000 A 
ATOM      4  C   UNL     1       3.774   4.633  17.224  0.00  0.00    +0.000 A 
ATOM      5  C   UNL     1       3.457   5.939  17.622  0.00  0.00    +0.000 A 
ATOM      6  C   UNL     1       4.413   6.961  17.491  0.00  0.00    +0.000 A 
ENDROOT
BRANCH   4   7
ATOM      7  N   UNL     1       2.985   3.526  17.671  0.00  0.00    +0.000 N 
ATOM      8  N   UNL     1       1.742   3.329  17.146  0.00  0.00    +0.000 NA
ATOM      9  C   UNL     1       0.998   3.149  18.243  0.00  0.00    +0.000 A 
ATOM     10  C   UNL     1       1.784   2.951  19.399  0.00  0.00    +0.000 A 
ATOM     11  C   UNL     1       1.563   2.803  20.779  0.00  0.00    +0.000 A 
ATOM     12  C   UNL     1       2.658   2.536  21.612  0.00  0.00    +0.000 A 
ATOM     13  C   UNL     1       3.933   2.341  21.079  0.00  0.00    +0.000 A 
ATOM     14  C   UNL     1       4.175   2.504  19.713  0.00  0.00    +0.000 A 
ATOM     15  C   UNL     1       3.088   2.899  18.916  0.00  0.00    +0.000 A 
ENDBRANCH   4   7
BRANCH   1  18
ATOM     16  O   UNL     1       8.069   6.952  18.732  0.00  0.00    +0.000 OA
ATOM     17  C   UNL     1       7.730   7.786  17.896  0.00  0.00    +0.000 C 
ATOM     18  N   UNL     1       6.671   7.697  17.006  0.00  0.00    +0.000 N 
ATOM     19  H   UNL     1       6.589   8.426  16.302  0.00  0.00    +0.000 HD
BRANCH  17  20
ATOM     20  C   UNL     1       8.568   9.032  17.729  0.00  0.00    +0.000 C 
BRANCH  20  21
ATOM     21  C   UNL     1       8.950   9.572  19.101  0.00  0.00    +0.000 C 
BRANCH  21  22
ATOM     22  C   UNL     1       9.723  10.835  18.976  0.00  0.00    +0.000 A 
ATOM     23  N   UNL     1       9.969  11.504  17.871  0.00  0.00    +0.000 NA
ATOM     24  N   UNL     1      10.801  12.550  18.187  0.00  0.00    +0.000 NA
ATOM     25  C   UNL     1      11.040  12.494  19.474  0.00  0.00    +0.000 A 
ATOM     26  N   UNL     1      10.388  11.430  20.015  0.00  0.00    +0.000 N 
ATOM     27  H   UNL     1      10.419  11.120  20.977  0.00  0.00    +0.000 HD
ENDBRANCH  21  22
ENDBRANCH  20  21
ENDBRANCH  17  20
ENDBRANCH   1  18
TORSDOF 5
ENDMDL
MODEL 5
REMARK VINA RESULT:      -8.1      2.392      8.410
REMARK  Name = 
REMARK  5 active torsions:
REMARK  status: ('A' for Active; 'I' for Inactive)
REMARK    1  A    between atoms: C_2  and  C_3
REMARK    2  A    between atoms: C_3  and  C_4
REMARK    3  A    between atoms: C_4  and  C_5
REMARK    4  A    between atoms: N_10  and  C_11
REMARK    5  A    between atoms: C_14  and  N_15
REMARK                            x       y       z     vdW  Elec       q    Type
REMARK                         _______ _______ _______ _____ _____    ______ ____
ROOT
ATOM      1  C   UNL     1       2.041   7.840  19.644  0.00  0.00    +0.000 A 
ATOM      2  C   UNL     1       2.247   8.411  18.393  0.00  0.00    +0.000 A 
ATOM      3  C   UNL     1       1.640   9.613  18.046  0.00  0.00    +0.000 A 
ATOM      4  C   UNL     1       0.776  10.255  18.936  0.00  0.00    +0.000 A 
ATOM      5  C   UNL     1       0.623   9.737  20.229  0.00  0.00    +0.000 A 
ATOM      6  C   UNL     1       1.262   8.535  20.580  0.00  0.00    +0.000 A 
ENDROOT
BRANCH   4   7
ATOM      7  N   UNL     1      -0.126  11.249  18.440  0.00  0.00    +0.000 N 
ATOM      8  N   UNL     1      -0.061  12.522  18.926  0.00  0.00    +0.000 NA
ATOM      9  C   UNL     1      -1.343  12.782  19.207  0.00  0.00    +0.000 A 
ATOM     10  C   UNL     1      -2.220  11.825  18.653  0.00  0.00    +0.000 A 
ATOM     11  C   UNL     1      -3.598  11.552  18.689  0.00  0.00    +0.000 A 
ATOM     12  C   UNL     1      -4.098  10.507  17.900  0.00  0.00    +0.000 A 
ATOM     13  C   UNL     1      -3.263   9.798  17.035  0.00  0.00    +0.000 A 
ATOM     14  C   UNL     1      -1.888  10.043  17.001  0.00  0.00    +0.000 A 
ATOM     15  C   UNL     1      -1.389  11.005  17.894  0.00  0.00    +0.000 A 
ENDBRANCH   4   7
BRANCH   1  18
ATOM     16  O   UNL     1       2.106   5.355  18.018  0.00  0.00    +0.000 OA
ATOM     17  C   UNL     1       2.481   5.427  19.186  0.00  0.00    +0.000 C 
ATOM     18  N   UNL     1       2.535   6.562  19.980  0.00  0.00    +0.000 N 
ATOM     19  H   UNL     1       2.973   6.473  20.893  0.00  0.00    +0.000 HD
BRANCH  17  20
ATOM     20  C   UNL     1       3.019   4.184  19.856  0.00  0.00    +0.000 C 
BRANCH  20  21
ATOM     21  C   UNL     1       3.893   3.417  18.872  0.00  0.00    +0.000 C 
BRANCH  21  22
ATOM     22  C   UNL     1       5.237   4.039  18.761  0.00  0.00    +0.000 A 
ATOM     23  N   UNL     1       5.858   4.745  19.680  0.00  0.00    +0.000 NA
ATOM     24  N   UNL     1       7.026   5.218  19.132  0.00  0.00    +0.000 NA
ATOM     25  C   UNL     1       7.088   4.787  17.896  0.00  0.00    +0.000 A 
ATOM     26  N   UNL     1       5.984   4.045  17.613  0.00  0.00    +0.000 N 
ATOM     27  H   UNL     1       5.745   3.619  16.728  0.00  0.00    +0.000 HD
ENDBRANCH  21  22
ENDBRANCH  20  21
ENDBRANCH  17  20
ENDBRANCH   1  18
TORSDOF 5
ENDMDL
MODEL 6
REMARK VINA RESULT:      -7.9      2.102      2.584
REMARK  Name = 
REMARK  5 active torsions:
REMARK  status: ('A' for Active; 'I' for Inactive)
REMARK    1  A    between atoms: C_2  and  C_3
REMARK    2  A    between atoms: C_3  and  C_4
REMARK    3  A    between atoms: C_4  and  C_5
REMARK    4  A    between atoms: N_10  and  C_11
REMARK    5  A    between atoms: C_14  and  N_15
REMARK                            x       y       z     vdW  Elec       q    Type
REMARK                         _______ _______ _______ _____ _____    ______ ____
ROOT
ATOM      1  C   UNL     1       0.749   9.778  19.111  0.00  0.00    +0.000 A 
ATOM      2  C   UNL     1       0.979   9.026  20.257  0.00  0.00    +0.000 A 
ATOM      3  C   UNL     1       1.848   7.941  20.239  0.00  0.00    +0.000 A 
ATOM      4  C   UNL     1       2.483   7.558  19.056  0.00  0.00    +0.000 A 
ATOM      5  C   UNL     1       2.327   8.354  17.913  0.00  0.00    +0.000 A 
ATOM      6  C   UNL     1       1.466   9.465  17.947  0.00  0.00    +0.000 A 
ENDROOT
BRANCH   4   7
ATOM      7  N   UNL     1       3.045   6.246  18.956  0.00  0.00    +0.000 N 
ATOM      8  N   UNL     1       3.956   5.975  17.978  0.00  0.00    +0.000 NA
ATOM      9  C   UNL     1       3.480   4.838  17.457  0.00  0.00    +0.000 A 
ATOM     10  C   UNL     1       2.474   4.258  18.260  0.00  0.00    +0.000 A 
ATOM     11  C   UNL     1       1.599   3.162  18.178  0.00  0.00    +0.000 A 
ATOM     12  C   UNL     1       0.774   2.876  19.275  0.00  0.00    +0.000 A 
ATOM     13  C   UNL     1       0.871   3.611  20.457  0.00  0.00    +0.000 A 
ATOM     14  C   UNL     1       1.721   4.716  20.549  0.00  0.00    +0.000 A 
ATOM     15  C   UNL     1       2.442   5.064  19.395  0.00  0.00    +0.000 A 
ENDBRANCH   4   7
BRANCH   1  18
ATOM     16  O   UNL     1      -2.061   9.667  18.154  0.00  0.00    +0.000 OA
ATOM     17  C   UNL     1      -1.504  10.690  18.547  0.00  0.00    +0.000 C 
ATOM     18  N   UNL     1      -0.222  10.800  19.061  0.00  0.00    +0.000 N 
ATOM     19  H   UNL     1       0.052  11.702  19.444  0.00  0.00    +0.000 HD
BRANCH  17  20
ATOM     20  C   UNL     1      -2.283  11.984  18.558  0.00  0.00    +0.000 C 
BRANCH  20  21
ATOM     21  C   UNL     1      -2.277  12.566  19.966  0.00  0.00    +0.000 C 
BRANCH  21  22
ATOM     22  C   UNL     1      -3.645  12.561  20.546  0.00  0.00    +0.000 A 
ATOM     23  N   UNL     1      -3.963  12.655  21.818  0.00  0.00    +0.000 NA
ATOM     24  N   UNL     1      -5.325  12.504  21.926  0.00  0.00    +0.000 NA
ATOM     25  C   UNL     1      -5.801  12.325  20.719  0.00  0.00    +0.000 A 
ATOM     26  N   UNL     1      -4.784  12.348  19.816  0.00  0.00    +0.000 N 
ATOM     27  H   UNL     1      -4.849  12.199  18.818  0.00  0.00    +0.000 HD
ENDBRANCH  21  22
ENDBRANCH  20  21
ENDBRANCH  17  20
ENDBRANCH   1  18
TORSDOF 5
ENDMDL
MODEL 7
REMARK VINA RESULT:      -7.9      2.560      8.751
REMARK  Name = 
REMARK  5 active torsions:
REMARK  status: ('A' for Active; 'I' for Inactive)
REMARK    1  A    between atoms: C_2  and  C_3
REMARK    2  A    between atoms: C_3  and  C_4
REMARK    3  A    between atoms: C_4  and  C_5
REMARK    4  A    between atoms: N_10  and  C_11
REMARK    5  A    between atoms: C_14  and  N_15
REMARK                            x       y       z     vdW  Elec       q    Type
REMARK                         _______ _______ _______ _____ _____    ______ ____
ROOT
ATOM      1  C   UNL     1       2.650   7.333  18.540  0.00  0.00    +0.000 A 
ATOM      2  C   UNL     1       2.456   8.399  17.669  0.00  0.00    +0.000 A 
ATOM      3  C   UNL     1       1.708   9.508  18.051  0.00  0.00    +0.000 A 
ATOM      4  C   UNL     1       1.103   9.559  19.308  0.00  0.00    +0.000 A 
ATOM      5  C   UNL     1       1.358   8.531  20.226  0.00  0.00    +0.000 A 
ATOM      6  C   UNL     1       2.135   7.426  19.841  0.00  0.00    +0.000 A 
ENDROOT
BRANCH   4   7
ATOM      7  N   UNL     1       0.043  10.492  19.537  0.00  0.00    +0.000 N 
ATOM      8  N   UNL     1      -1.180  10.275  18.973  0.00  0.00    +0.000 NA
ATOM      9  C   UNL     1      -1.453  11.466  18.427  0.00  0.00    +0.000 A 
ATOM     10  C   UNL     1      -0.575  12.477  18.876  0.00  0.00    +0.000 A 
ATOM     11  C   UNL     1      -0.342  13.834  18.594  0.00  0.00    +0.000 A 
ATOM     12  C   UNL     1       0.614  14.524  19.352  0.00  0.00    +0.000 A 
ATOM     13  C   UNL     1       1.269  13.904  20.418  0.00  0.00    +0.000 A 
ATOM     14  C   UNL     1       1.064  12.551  20.698  0.00  0.00    +0.000 A 
ATOM     15  C   UNL     1       0.199  11.846  19.845  0.00  0.00    +0.000 A 
ENDBRANCH   4   7
BRANCH   1  18
ATOM     16  O   UNL     1       1.461   4.756  17.663  0.00  0.00    +0.000 OA
ATOM     17  C   UNL     1       2.666   4.951  17.796  0.00  0.00    +0.000 C 
ATOM     18  N   UNL     1       3.289   6.140  18.141  0.00  0.00    +0.000 N 
ATOM     19  H   UNL     1       4.306   6.164  18.104  0.00  0.00    +0.000 HD
BRANCH  17  20
ATOM     20  C   UNL     1       3.624   3.823  17.495  0.00  0.00    +0.000 C 
BRANCH  20  21
ATOM     21  C   UNL     1       4.401   3.467  18.756  0.00  0.00    +0.000 C 
BRANCH  21  22
ATOM     22  C   UNL     1       5.697   4.191  18.802  0.00  0.00    +0.000 A 
ATOM     23  N   UNL     1       6.070   5.086  19.691  0.00  0.00    +0.000 NA
ATOM     24  N   UNL     1       7.293   5.580  19.305  0.00  0.00    +0.000 NA
ATOM     25  C   UNL     1       7.635   4.972  18.196  0.00  0.00    +0.000 A 
ATOM     26  N   UNL     1       6.662   4.093  17.836  0.00  0.00    +0.000 N 
ATOM     27  H   UNL     1       6.638   3.515  17.006  0.00  0.00    +0.000 HD
ENDBRANCH  21  22
ENDBRANCH  20  21
ENDBRANCH  17  20
ENDBRANCH   1  18
TORSDOF 5
ENDMDL
MODEL 8
REMARK VINA RESULT:      -7.9      2.656      8.674
REMARK  Name = 
REMARK  5 active torsions:
REMARK  status: ('A' for Active; 'I' for Inactive)
REMARK    1  A    between atoms: C_2  and  C_3
REMARK    2  A    between atoms: C_3  and  C_4
REMARK    3  A    between atoms: C_4  and  C_5
REMARK    4  A    between atoms: N_10  and  C_11
REMARK    5  A    between atoms: C_14  and  N_15
REMARK                            x       y       z     vdW  Elec       q    Type
REMARK                         _______ _______ _______ _____ _____    ______ ____
ROOT
ATOM      1  C   UNL     1       2.783   7.282  18.488  0.00  0.00    +0.000 A 
ATOM      2  C   UNL     1       2.603   8.382  17.657  0.00  0.00    +0.000 A 
ATOM      3  C   UNL     1       1.824   9.462  18.057  0.00  0.00    +0.000 A 
ATOM      4  C   UNL     1       1.173   9.449  19.293  0.00  0.00    +0.000 A 
ATOM      5  C   UNL     1       1.411   8.387  20.175  0.00  0.00    +0.000 A 
ATOM      6  C   UNL     1       2.220   7.311  19.772  0.00  0.00    +0.000 A 
ENDROOT
BRANCH   4   7
ATOM      7  N   UNL     1       0.089  10.355  19.522  0.00  0.00    +0.000 N 
ATOM      8  N   UNL     1      -1.134  10.095  18.979  0.00  0.00    +0.000 NA
ATOM      9  C   UNL     1      -1.449  11.268  18.419  0.00  0.00    +0.000 A 
ATOM     10  C   UNL     1      -0.595  12.311  18.838  0.00  0.00    +0.000 A 
ATOM     11  C   UNL     1      -0.404  13.669  18.532  0.00  0.00    +0.000 A 
ATOM     12  C   UNL     1       0.542  14.398  19.264  0.00  0.00    +0.000 A 
ATOM     13  C   UNL     1       1.229  13.815  20.330  0.00  0.00    +0.000 A 
ATOM     14  C   UNL     1       1.067  12.461  20.635  0.00  0.00    +0.000 A 
ATOM     15  C   UNL     1       0.211  11.718  19.806  0.00  0.00    +0.000 A 
ENDBRANCH   4   7
BRANCH   1  18
ATOM     16  O   UNL     1       1.671   4.655  17.661  0.00  0.00    +0.000 OA
ATOM     17  C   UNL     1       2.872   4.902  17.744  0.00  0.00    +0.000 C 
ATOM     18  N   UNL     1       3.457   6.117  18.062  0.00  0.00    +0.000 N 
ATOM     19  H   UNL     1       4.468   6.185  17.982  0.00  0.00    +0.000 HD
BRANCH  17  20
ATOM     20  C   UNL     1       3.864   3.815  17.402  0.00  0.00    +0.000 C 
BRANCH  20  21
ATOM     21  C   UNL     1       5.273   4.296  17.727  0.00  0.00    +0.000 C 
BRANCH  21  22
ATOM     22  C   UNL     1       6.067   4.486  16.486  0.00  0.00    +0.000 A 
ATOM     23  N   UNL     1       7.217   5.115  16.374  0.00  0.00    +0.000 NA
ATOM     24  N   UNL     1       7.551   5.149  15.041  0.00  0.00    +0.000 NA
ATOM     25  C   UNL     1       6.600   4.539  14.378  0.00  0.00    +0.000 A 
ATOM     26  N   UNL     1       5.641   4.108  15.241  0.00  0.00    +0.000 N 
ATOM     27  H   UNL     1       4.775   3.641  15.009  0.00  0.00    +0.000 HD
ENDBRANCH  21  22
ENDBRANCH  20  21
ENDBRANCH  17  20
ENDBRANCH   1  18
TORSDOF 5
ENDMDL
MODEL 9
REMARK VINA RESULT:      -7.9      1.955      3.463
REMARK  Name = 
REMARK  5 active torsions:
REMARK  status: ('A' for Active; 'I' for Inactive)
REMARK    1  A    between atoms: C_2  and  C_3
REMARK    2  A    between atoms: C_3  and  C_4
REMARK    3  A    between atoms: C_4  and  C_5
REMARK    4  A    between atoms: N_10  and  C_11
REMARK    5  A    between atoms: C_14  and  N_15
REMARK                            x       y       z     vdW  Elec       q    Type
REMARK                         _______ _______ _______ _____ _____    ______ ____
ROOT
ATOM      1  C   UNL     1       1.481   8.980  19.241  0.00  0.00    +0.000 A 
ATOM      2  C   UNL     1       1.899   8.801  17.927  0.00  0.00    +0.000 A 
ATOM      3  C   UNL     1       2.598   7.661  17.547  0.00  0.00    +0.000 A 
ATOM      4  C   UNL     1       2.929   6.684  18.488  0.00  0.00    +0.000 A 
ATOM      5  C   UNL     1       2.444   6.809  19.797  0.00  0.00    +0.000 A 
ATOM      6  C   UNL     1       1.716   7.953  20.166  0.00  0.00    +0.000 A 
ENDROOT
BRANCH   4   7
ATOM      7  N   UNL     1       3.959   5.738  18.182  0.00  0.00    +0.000 N 
ATOM      8  N   UNL     1       3.852   4.456  18.633  0.00  0.00    +0.000 NA
ATOM      9  C   UNL     1       5.059   4.246  19.171  0.00  0.00    +0.000 A 
ATOM     10  C   UNL     1       5.988   5.249  18.817  0.00  0.00    +0.000 A 
ATOM     11  C   UNL     1       7.315   5.580  19.139  0.00  0.00    +0.000 A 
ATOM     12  C   UNL     1       7.919   6.659  18.479  0.00  0.00    +0.000 A 
ATOM     13  C   UNL     1       7.249   7.346  17.465  0.00  0.00    +0.000 A 
ATOM     14  C   UNL     1       5.923   7.043  17.147  0.00  0.00    +0.000 A 
ATOM     15  C   UNL     1       5.295   6.045  17.910  0.00  0.00    +0.000 A 
ENDBRANCH   4   7
BRANCH   1  18
ATOM     16  O   UNL     1       2.055  11.782  18.440  0.00  0.00    +0.000 OA
ATOM     17  C   UNL     1       1.246  11.463  19.308  0.00  0.00    +0.000 C 
ATOM     18  N   UNL     1       0.887  10.179  19.687  0.00  0.00    +0.000 N 
ATOM     19  H   UNL     1       0.120  10.084  20.348  0.00  0.00    +0.000 HD
BRANCH  17  20
ATOM     20  C   UNL     1       0.479  12.550  20.022  0.00  0.00    +0.000 C 
BRANCH  20  21
ATOM     21  C   UNL     1      -0.341  13.341  19.010  0.00  0.00    +0.000 C 
BRANCH  21  22
ATOM     22  C   UNL     1      -1.442  12.511  18.457  0.00  0.00    +0.000 A 
ATOM     23  N   UNL     1      -2.382  11.892  19.138  0.00  0.00    +0.000 NA
ATOM     24  N   UNL     1      -3.132  11.158  18.251  0.00  0.00    +0.000 NA
ATOM     25  C   UNL     1      -2.634  11.350  17.055  0.00  0.00    +0.000 A 
ATOM     26  N   UNL     1      -1.567  12.190  17.132  0.00  0.00    +0.000 N 
ATOM     27  H   UNL     1      -0.966  12.486  16.374  0.00  0.00    +0.000 HD
ENDBRANCH  21  22
ENDBRANCH  20  21
ENDBRANCH  17  20
ENDBRANCH   1  18
TORSDOF 5
ENDMDL
