MODEL 1
REMARK VINA RESULT:      -8.1      0.000      0.000
REMARK  Name = 
REMARK  6 active torsions:
REMARK  status: ('A' for Active; 'I' for Inactive)
REMARK    1  A    between atoms: C_1  and  C_2
REMARK    2  A    between atoms: C_7  and  C_8
REMARK    3  A    between atoms: N_10  and  C_11
REMARK    4  A    between atoms: C_16  and  N_17
REMARK    5  A    between atoms: C_18  and  C_20
REMARK    6  A    between atoms: C_23  and  C_24
REMARK                            x       y       z     vdW  Elec       q    Type
REMARK                         _______ _______ _______ _____ _____    ______ ____
ROOT
ATOM      1  C   UNL     1       2.574   4.537  18.660  0.00  0.00    +0.000 C 
ATOM      2  C   UNL     1       1.581   3.368  18.567  0.00  0.00    +0.000 C 
ATOM      3  C   UNL     1       2.165   2.152  17.857  0.00  0.00    +0.000 C 
ATOM      4  C   UNL     1       3.445   1.694  18.535  0.00  0.00    +0.000 C 
ATOM      5  C   UNL     1       4.476   2.813  18.555  0.00  0.00    +0.000 C 
ATOM      6  C   UNL     1       3.965   4.103  19.227  0.00  0.00    +0.000 C 
ENDROOT
BRANCH   1   9
ATOM      7  C   UNL     1       2.253   6.962  19.147  0.00  0.00    +0.000 C 
ATOM      8  O   UNL     1       3.025   7.293  18.249  0.00  0.00    +0.000 OA
ATOM      9  N   UNL     1       1.964   5.642  19.418  0.00  0.00    +0.000 N 
ATOM     10  H   UNL     1       1.383   5.465  20.231  0.00  0.00    +0.000 HD
BRANCH   7  17
ATOM     11  C   UNL     1      -1.037  12.908  22.053  0.00  0.00    +0.000 C 
ATOM     12  C   UNL     1      -0.478  11.528  21.880  0.00  0.00    +0.000 A 
ATOM     13  C   UNL     1      -0.570  10.561  22.972  0.00  0.00    +0.000 A 
ATOM     14  C   UNL     1      -0.078   9.307  22.866  0.00  0.00    +0.000 A 
ATOM     15  C   UNL     1       0.560   8.890  21.658  0.00  0.00    +0.000 A 
ATOM     16  N   UNL     1       1.121   7.748  21.294  0.00  0.00    +0.000 NA
ATOM     17  C   UNL     1       1.567   7.951  19.993  0.00  0.00    +0.000 A 
ATOM     18  C   UNL     1       1.264   9.239  19.589  0.00  0.00    +0.000 A 
ATOM     19  N   UNL     1       0.628   9.836  20.639  0.00  0.00    +0.000 N 
ATOM     20  C   UNL     1       0.123  11.129  20.739  0.00  0.00    +0.000 A 
ENDBRANCH   7  17
ENDBRANCH   1   9
BRANCH   6  21
ATOM     21  N   UNL     1       4.968   5.162  19.075  0.00  0.00    +0.000 N 
ATOM     22  C   UNL     1       5.744   5.323  17.943  0.00  0.00    +0.000 C 
ATOM     23  O   UNL     1       5.682   4.591  16.961  0.00  0.00    +0.000 OA
ATOM     24  H   UNL     1       5.150   5.799  19.857  0.00  0.00    +0.000 HD
BRANCH  22  25
ATOM     25  C   UNL     1       6.704   6.463  17.971  0.00  0.00    +0.000 A 
ATOM     26  C   UNL     1       7.776   6.435  18.851  0.00  0.00    +0.000 A 
ATOM     27  N   UNL     1       8.620   7.490  19.005  0.00  0.00    +0.000 NA
ATOM     28  C   UNL     1       8.351   8.576  18.239  0.00  0.00    +0.000 A 
ATOM     29  C   UNL     1       9.176   9.806  18.453  0.00  0.00    +0.000 C 
ATOM     30  C   UNL     1       7.304   8.572  17.318  0.00  0.00    +0.000 A 
ATOM     31  N   UNL     1       6.457   7.526  17.160  0.00  0.00    +0.000 NA
ENDBRANCH  22  25
ENDBRANCH   6  21
TORSDOF 4
ENDMDL
MODEL 2
REMARK VINA RESULT:      -8.0      2.575      3.508
REMARK  Name = 
REMARK  6 active torsions:
REMARK  status: ('A' for Active; 'I' for Inactive)
REMARK    1  A    between atoms: C_1  and  C_2
REMARK    2  A    between atoms: C_7  and  C_8
REMARK    3  A    between atoms: N_10  and  C_11
REMARK    4  A    between atoms: C_16  and  N_17
REMARK    5  A    between atoms: C_18  and  C_20
REMARK    6  A    between atoms: C_23  and  C_24
REMARK                            x       y       z     vdW  Elec       q    Type
REMARK                         _______ _______ _______ _____ _____    ______ ____
ROOT
ATOM      1  C   UNL     1       2.237   4.581  19.929  0.00  0.00    +0.000 C 
ATOM      2  C   UNL     1       1.523   4.128  21.212  0.00  0.00    +0.000 C 
ATOM      3  C   UNL     1       1.633   2.626  21.449  0.00  0.00    +0.000 C 
ATOM      4  C   UNL     1       3.088   2.191  21.484  0.00  0.00    +0.000 C 
ATOM      5  C   UNL     1       3.790   2.550  20.183  0.00  0.00    +0.000 C 
ATOM      6  C   UNL     1       3.705   4.050  19.837  0.00  0.00    +0.000 C 
ENDROOT
BRANCH   1   9
ATOM      7  C   UNL     1       2.061   6.674  18.583  0.00  0.00    +0.000 C 
ATOM      8  O   UNL     1       2.040   6.048  17.525  0.00  0.00    +0.000 OA
ATOM      9  N   UNL     1       2.148   6.046  19.807  0.00  0.00    +0.000 N 
ATOM     10  H   UNL     1       2.244   6.649  20.617  0.00  0.00    +0.000 HD
BRANCH   7  17
ATOM     11  C   UNL     1       0.771  13.775  20.174  0.00  0.00    +0.000 C 
ATOM     12  C   UNL     1       1.266  12.530  19.502  0.00  0.00    +0.000 A 
ATOM     13  C   UNL     1       2.081  12.629  18.293  0.00  0.00    +0.000 A 
ATOM     14  C   UNL     1       2.548  11.537  17.648  0.00  0.00    +0.000 A 
ATOM     15  C   UNL     1       2.247  10.232  18.145  0.00  0.00    +0.000 A 
ATOM     16  N   UNL     1       2.565   9.020  17.718  0.00  0.00    +0.000 NA
ATOM     17  C   UNL     1       1.981   8.142  18.624  0.00  0.00    +0.000 A 
ATOM     18  C   UNL     1       1.306   8.855  19.599  0.00  0.00    +0.000 A 
ATOM     19  N   UNL     1       1.471  10.176  19.299  0.00  0.00    +0.000 N 
ATOM     20  C   UNL     1       0.986  11.295  19.969  0.00  0.00    +0.000 A 
ENDBRANCH   7  17
ENDBRANCH   1   9
BRANCH   6  21
ATOM     21  N   UNL     1       4.283   4.278  18.507  0.00  0.00    +0.000 N 
ATOM     22  C   UNL     1       5.633   4.461  18.282  0.00  0.00    +0.000 C 
ATOM     23  O   UNL     1       6.481   4.466  19.168  0.00  0.00    +0.000 OA
ATOM     24  H   UNL     1       3.662   4.354  17.696  0.00  0.00    +0.000 HD
BRANCH  22  25
ATOM     25  C   UNL     1       6.031   4.671  16.861  0.00  0.00    +0.000 A 
ATOM     26  C   UNL     1       5.125   4.399  15.846  0.00  0.00    +0.000 A 
ATOM     27  N   UNL     1       5.463   4.462  14.531  0.00  0.00    +0.000 NA
ATOM     28  C   UNL     1       6.747   4.812  14.269  0.00  0.00    +0.000 A 
ATOM     29  C   UNL     1       7.204   4.781  12.844  0.00  0.00    +0.000 C 
ATOM     30  C   UNL     1       7.633   5.137  15.295  0.00  0.00    +0.000 A 
ATOM     31  N   UNL     1       7.305   5.075  16.608  0.00  0.00    +0.000 NA
ENDBRANCH  22  25
ENDBRANCH   6  21
TORSDOF 4
ENDMDL
MODEL 3
REMARK VINA RESULT:      -7.9      2.458      7.392
REMARK  Name = 
REMARK  6 active torsions:
REMARK  status: ('A' for Active; 'I' for Inactive)
REMARK    1  A    between atoms: C_1  and  C_2
REMARK    2  A    between atoms: C_7  and  C_8
REMARK    3  A    between atoms: N_10  and  C_11
REMARK    4  A    between atoms: C_16  and  N_17
REMARK    5  A    between atoms: C_18  and  C_20
REMARK    6  A    between atoms: C_23  and  C_24
REMARK                            x       y       z     vdW  Elec       q    Type
REMARK                         _______ _______ _______ _____ _____    ______ ____
ROOT
ATOM      1  C   UNL     1       6.518   6.365  16.856  0.00  0.00    +0.000 C 
ATOM      2  C   UNL     1       7.510   5.484  16.080  0.00  0.00    +0.000 C 
ATOM      3  C   UNL     1       6.907   4.151  15.654  0.00  0.00    +0.000 C 
ATOM      4  C   UNL     1       5.650   4.366  14.828  0.00  0.00    +0.000 C 
ATOM      5  C   UNL     1       4.618   5.160  15.614  0.00  0.00    +0.000 C 
ATOM      6  C   UNL     1       5.146   6.518  16.120  0.00  0.00    +0.000 C 
ENDROOT
BRANCH   1   9
ATOM      7  C   UNL     1       8.013   7.813  18.231  0.00  0.00    +0.000 C 
ATOM      8  O   UNL     1       8.317   6.878  18.969  0.00  0.00    +0.000 OA
ATOM      9  N   UNL     1       7.148   7.658  17.169  0.00  0.00    +0.000 N 
ATOM     10  H   UNL     1       6.891   8.504  16.669  0.00  0.00    +0.000 HD
BRANCH   7  17
ATOM     11  C   UNL     1       9.859  14.956  17.800  0.00  0.00    +0.000 C 
ATOM     12  C   UNL     1       9.755  13.534  18.264  0.00  0.00    +0.000 A 
ATOM     13  C   UNL     1      10.470  13.104  19.464  0.00  0.00    +0.000 A 
ATOM     14  C   UNL     1      10.410  11.833  19.920  0.00  0.00    +0.000 A 
ATOM     15  C   UNL     1       9.630  10.860  19.222  0.00  0.00    +0.000 A 
ATOM     16  N   UNL     1       9.405   9.574  19.441  0.00  0.00    +0.000 NA
ATOM     17  C   UNL     1       8.559   9.166  18.417  0.00  0.00    +0.000 A 
ATOM     18  C   UNL     1       8.285  10.234  17.580  0.00  0.00    +0.000 A 
ATOM     19  N   UNL     1       8.962  11.306  18.086  0.00  0.00    +0.000 N 
ATOM     20  C   UNL     1       9.017  12.613  17.610  0.00  0.00    +0.000 A 
ENDBRANCH   7  17
ENDBRANCH   1   9
BRANCH   6  21
ATOM     21  N   UNL     1       4.136   7.145  16.980  0.00  0.00    +0.000 N 
ATOM     22  C   UNL     1       3.591   6.531  18.091  0.00  0.00    +0.000 C 
ATOM     23  O   UNL     1       3.884   5.398  18.461  0.00  0.00    +0.000 OA
ATOM     24  H   UNL     1       3.769   8.069  16.733  0.00  0.00    +0.000 HD
BRANCH  22  25
ATOM     25  C   UNL     1       2.582   7.329  18.844  0.00  0.00    +0.000 A 
ATOM     26  C   UNL     1       2.087   8.503  18.296  0.00  0.00    +0.000 A 
ATOM     27  N   UNL     1       1.254   9.331  18.979  0.00  0.00    +0.000 NA
ATOM     28  C   UNL     1       0.932   8.937  20.236  0.00  0.00    +0.000 A 
ATOM     29  C   UNL     1       0.115   9.870  21.074  0.00  0.00    +0.000 C 
ATOM     30  C   UNL     1       1.392   7.729  20.757  0.00  0.00    +0.000 A 
ATOM     31  N   UNL     1       2.224   6.898  20.083  0.00  0.00    +0.000 NA
ENDBRANCH  22  25
ENDBRANCH   6  21
TORSDOF 4
ENDMDL
MODEL 4
REMARK VINA RESULT:      -7.9      2.513      7.555
REMARK  Name = 
REMARK  6 active torsions:
REMARK  status: ('A' for Active; 'I' for Inactive)
REMARK    1  A    between atoms: C_1  and  C_2
REMARK    2  A    between atoms: C_7  and  C_8
REMARK    3  A    between atoms: N_10  and  C_11
REMARK    4  A    between atoms: C_16  and  N_17
REMARK    5  A    between atoms: C_18  and  C_20
REMARK    6  A    between atoms: C_23  and  C_24
REMARK                            x       y       z     vdW  Elec       q    Type
REMARK                         _______ _______ _______ _____ _____    ______ ____
ROOT
ATOM      1  C   UNL     1       6.467   6.537  17.071  0.00  0.00    +0.000 C 
ATOM      2  C   UNL     1       7.483   5.630  16.359  0.00  0.00    +0.000 C 
ATOM      3  C   UNL     1       6.917   4.253  16.031  0.00  0.00    +0.000 C 
ATOM      4  C   UNL     1       5.655   4.373  15.195  0.00  0.00    +0.000 C 
ATOM      5  C   UNL     1       4.601   5.193  15.924  0.00  0.00    +0.000 C 
ATOM      6  C   UNL     1       5.091   6.597  16.330  0.00  0.00    +0.000 C 
ENDROOT
BRANCH   1   9
ATOM      7  C   UNL     1       8.038   8.085  18.236  0.00  0.00    +0.000 C 
ATOM      8  O   UNL     1       8.479   7.181  18.943  0.00  0.00    +0.000 OA
ATOM      9  N   UNL     1       7.060   7.866  17.289  0.00  0.00    +0.000 N 
ATOM     10  H   UNL     1       6.700   8.688  16.814  0.00  0.00    +0.000 HD
BRANCH   7  17
ATOM     11  C   UNL     1      11.374  14.429  20.036  0.00  0.00    +0.000 C 
ATOM     12  C   UNL     1      10.522  13.413  19.337  0.00  0.00    +0.000 A 
ATOM     13  C   UNL     1       9.731  13.801  18.171  0.00  0.00    +0.000 A 
ATOM     14  C   UNL     1       8.946  12.923  17.510  0.00  0.00    +0.000 A 
ATOM     15  C   UNL     1       8.868  11.565  17.946  0.00  0.00    +0.000 A 
ATOM     16  N   UNL     1       8.191  10.521  17.496  0.00  0.00    +0.000 NA
ATOM     17  C   UNL     1       8.530   9.467  18.337  0.00  0.00    +0.000 A 
ATOM     18  C   UNL     1       9.421   9.905  19.301  0.00  0.00    +0.000 A 
ATOM     19  N   UNL     1       9.636  11.230  19.057  0.00  0.00    +0.000 N 
ATOM     20  C   UNL     1      10.449  12.128  19.744  0.00  0.00    +0.000 A 
ENDBRANCH   7  17
ENDBRANCH   1   9
BRANCH   6  21
ATOM     21  N   UNL     1       4.064   7.256  17.144  0.00  0.00    +0.000 N 
ATOM     22  C   UNL     1       3.481   6.676  18.254  0.00  0.00    +0.000 C 
ATOM     23  O   UNL     1       3.751   5.550  18.660  0.00  0.00    +0.000 OA
ATOM     24  H   UNL     1       3.714   8.177  16.864  0.00  0.00    +0.000 HD
BRANCH  22  25
ATOM     25  C   UNL     1       2.460   7.503  18.959  0.00  0.00    +0.000 A 
ATOM     26  C   UNL     1       1.935   8.625  18.333  0.00  0.00    +0.000 A 
ATOM     27  N   UNL     1       1.089   9.481  18.965  0.00  0.00    +0.000 NA
ATOM     28  C   UNL     1       0.784   9.169  20.249  0.00  0.00    +0.000 A 
ATOM     29  C   UNL     1      -0.048  10.140  21.026  0.00  0.00    +0.000 C 
ATOM     30  C   UNL     1       1.274   8.010  20.848  0.00  0.00    +0.000 A 
ATOM     31  N   UNL     1       2.119   7.152  20.227  0.00  0.00    +0.000 NA
ENDBRANCH  22  25
ENDBRANCH   6  21
TORSDOF 4
ENDMDL
MODEL 5
REMARK VINA RESULT:      -7.9      2.523      3.426
REMARK  Name = 
REMARK  6 active torsions:
REMARK  status: ('A' for Active; 'I' for Inactive)
REMARK    1  A    between atoms: C_1  and  C_2
REMARK    2  A    between atoms: C_7  and  C_8
REMARK    3  A    between atoms: N_10  and  C_11
REMARK    4  A    between atoms: C_16  and  N_17
REMARK    5  A    between atoms: C_18  and  C_20
REMARK    6  A    between atoms: C_23  and  C_24
REMARK                            x       y       z     vdW  Elec       q    Type
REMARK                         _______ _______ _______ _____ _____    ______ ____
ROOT
ATOM      1  C   UNL     1       2.006   4.727  19.359  0.00  0.00    +0.000 C 
ATOM      2  C   UNL     1       1.123   4.396  20.572  0.00  0.00    +0.000 C 
ATOM      3  C   UNL     1       1.198   2.927  20.973  0.00  0.00    +0.000 C 
ATOM      4  C   UNL     1       2.634   2.516  21.250  0.00  0.00    +0.000 C 
ATOM      5  C   UNL     1       3.508   2.752  20.027  0.00  0.00    +0.000 C 
ATOM      6  C   UNL     1       3.473   4.208  19.522  0.00  0.00    +0.000 C 
ENDROOT
BRANCH   1   9
ATOM      7  C   UNL     1       1.678   7.096  20.065  0.00  0.00    +0.000 C 
ATOM      8  O   UNL     1       1.504   6.771  21.238  0.00  0.00    +0.000 OA
ATOM      9  N   UNL     1       1.936   6.170  19.077  0.00  0.00    +0.000 N 
ATOM     10  H   UNL     1       1.981   6.524  18.128  0.00  0.00    +0.000 HD
BRANCH   7  17
ATOM     11  C   UNL     1       0.451  14.329  19.177  0.00  0.00    +0.000 C 
ATOM     12  C   UNL     1       0.970  12.936  18.987  0.00  0.00    +0.000 A 
ATOM     13  C   UNL     1       1.893  12.644  17.892  0.00  0.00    +0.000 A 
ATOM     14  C   UNL     1       2.386  11.404  17.678  0.00  0.00    +0.000 A 
ATOM     15  C   UNL     1       2.004  10.326  18.535  0.00  0.00    +0.000 A 
ATOM     16  N   UNL     1       2.325   9.042  18.549  0.00  0.00    +0.000 NA
ATOM     17  C   UNL     1       1.636   8.500  19.628  0.00  0.00    +0.000 A 
ATOM     18  C   UNL     1       0.896   9.486  20.256  0.00  0.00    +0.000 A 
ATOM     19  N   UNL     1       1.125  10.641  19.567  0.00  0.00    +0.000 N 
ATOM     20  C   UNL     1       0.614  11.916  19.795  0.00  0.00    +0.000 A 
ENDBRANCH   7  17
ENDBRANCH   1   9
BRANCH   6  21
ATOM     21  N   UNL     1       4.227   4.308  18.267  0.00  0.00    +0.000 N 
ATOM     22  C   UNL     1       5.593   4.502  18.211  0.00  0.00    +0.000 C 
ATOM     23  O   UNL     1       6.309   4.625  19.199  0.00  0.00    +0.000 OA
ATOM     24  H   UNL     1       3.724   4.281  17.375  0.00  0.00    +0.000 HD
BRANCH  22  25
ATOM     25  C   UNL     1       6.183   4.570  16.843  0.00  0.00    +0.000 A 
ATOM     26  C   UNL     1       7.121   5.549  16.549  0.00  0.00    +0.000 A 
ATOM     27  N   UNL     1       7.609   5.735  15.294  0.00  0.00    +0.000 NA
ATOM     28  C   UNL     1       7.126   4.899  14.343  0.00  0.00    +0.000 A 
ATOM     29  C   UNL     1       7.541   5.136  12.925  0.00  0.00    +0.000 C 
ATOM     30  C   UNL     1       6.226   3.883  14.662  0.00  0.00    +0.000 A 
ATOM     31  N   UNL     1       5.731   3.692  15.909  0.00  0.00    +0.000 NA
ENDBRANCH  22  25
ENDBRANCH   6  21
TORSDOF 4
ENDMDL
MODEL 6
REMARK VINA RESULT:      -7.8      2.426      7.451
REMARK  Name = 
REMARK  6 active torsions:
REMARK  status: ('A' for Active; 'I' for Inactive)
REMARK    1  A    between atoms: C_1  and  C_2
REMARK    2  A    between atoms: C_7  and  C_8
REMARK    3  A    between atoms: N_10  and  C_11
REMARK    4  A    between atoms: C_16  and  N_17
REMARK    5  A    between atoms: C_18  and  C_20
REMARK    6  A    between atoms: C_23  and  C_24
REMARK                            x       y       z     vdW  Elec       q    Type
REMARK                         _______ _______ _______ _____ _____    ______ ____
ROOT
ATOM      1  C   UNL     1       6.390   6.323  17.192  0.00  0.00    +0.000 C 
ATOM      2  C   UNL     1       7.268   5.569  16.181  0.00  0.00    +0.000 C 
ATOM      3  C   UNL     1       6.736   4.177  15.861  0.00  0.00    +0.000 C 
ATOM      4  C   UNL     1       5.307   4.248  15.353  0.00  0.00    +0.000 C 
ATOM      5  C   UNL     1       4.402   4.911  16.381  0.00  0.00    +0.000 C 
ATOM      6  C   UNL     1       4.876   6.318  16.797  0.00  0.00    +0.000 C 
ENDROOT
BRANCH   1   9
ATOM      7  C   UNL     1       7.980   7.930  18.245  0.00  0.00    +0.000 C 
ATOM      8  O   UNL     1       8.542   7.034  18.873  0.00  0.00    +0.000 OA
ATOM      9  N   UNL     1       6.925   7.679  17.395  0.00  0.00    +0.000 N 
ATOM     10  H   UNL     1       6.472   8.491  16.987  0.00  0.00    +0.000 HD
BRANCH   7  17
ATOM     11  C   UNL     1      10.963  14.446  20.051  0.00  0.00    +0.000 C 
ATOM     12  C   UNL     1      10.175  13.383  19.346  0.00  0.00    +0.000 A 
ATOM     13  C   UNL     1       9.383  13.724  18.166  0.00  0.00    +0.000 A 
ATOM     14  C   UNL     1       8.653  12.803  17.499  0.00  0.00    +0.000 A 
ATOM     15  C   UNL     1       8.638  11.445  17.944  0.00  0.00    +0.000 A 
ATOM     16  N   UNL     1       8.021  10.366  17.491  0.00  0.00    +0.000 NA
ATOM     17  C   UNL     1       8.400   9.336  18.344  0.00  0.00    +0.000 A 
ATOM     18  C   UNL     1       9.253   9.824  19.318  0.00  0.00    +0.000 A 
ATOM     19  N   UNL     1       9.405  11.157  19.068  0.00  0.00    +0.000 N 
ATOM     20  C   UNL     1      10.160  12.099  19.761  0.00  0.00    +0.000 A 
ENDBRANCH   7  17
ENDBRANCH   1   9
BRANCH   6  21
ATOM     21  N   UNL     1       4.029   6.817  17.885  0.00  0.00    +0.000 N 
ATOM     22  C   UNL     1       3.043   7.769  17.712  0.00  0.00    +0.000 C 
ATOM     23  O   UNL     1       2.788   8.302  16.637  0.00  0.00    +0.000 OA
ATOM     24  H   UNL     1       4.193   6.488  18.842  0.00  0.00    +0.000 HD
BRANCH  22  25
ATOM     25  C   UNL     1       2.281   8.145  18.936  0.00  0.00    +0.000 A 
ATOM     26  C   UNL     1       2.171   7.240  19.981  0.00  0.00    +0.000 A 
ATOM     27  N   UNL     1       1.397   7.478  21.073  0.00  0.00    +0.000 NA
ATOM     28  C   UNL     1       0.738   8.663  21.081  0.00  0.00    +0.000 A 
ATOM     29  C   UNL     1      -0.219   8.925  22.202  0.00  0.00    +0.000 C 
ATOM     30  C   UNL     1       0.899   9.589  20.051  0.00  0.00    +0.000 A 
ATOM     31  N   UNL     1       1.667   9.358  18.958  0.00  0.00    +0.000 NA
ENDBRANCH  22  25
ENDBRANCH   6  21
TORSDOF 4
ENDMDL
MODEL 7
REMARK VINA RESULT:      -7.7      2.570      3.454
REMARK  Name = 
REMARK  6 active torsions:
REMARK  status: ('A' for Active; 'I' for Inactive)
REMARK    1  A    between atoms: C_1  and  C_2
REMARK    2  A    between atoms: C_7  and  C_8
REMARK    3  A    between atoms: N_10  and  C_11
REMARK    4  A    between atoms: C_16  and  N_17
REMARK    5  A    between atoms: C_18  and  C_20
REMARK    6  A    between atoms: C_23  and  C_24
REMARK                            x       y       z     vdW  Elec       q    Type
REMARK                         _______ _______ _______ _____ _____    ______ ____
ROOT
ATOM      1  C   UNL     1       2.184   4.511  19.998  0.00  0.00    +0.000 C 
ATOM      2  C   UNL     1       1.460   4.018  21.261  0.00  0.00    +0.000 C 
ATOM      3  C   UNL     1       1.576   2.511  21.456  0.00  0.00    +0.000 C 
ATOM      4  C   UNL     1       3.033   2.082  21.494  0.00  0.00    +0.000 C 
ATOM      5  C   UNL     1       3.746   2.482  20.211  0.00  0.00    +0.000 C 
ATOM      6  C   UNL     1       3.657   3.991  19.907  0.00  0.00    +0.000 C 
ENDROOT
BRANCH   1   9
ATOM      7  C   UNL     1       2.038   6.643  18.710  0.00  0.00    +0.000 C 
ATOM      8  O   UNL     1       2.058   6.048  17.634  0.00  0.00    +0.000 OA
ATOM      9  N   UNL     1       2.088   5.978  19.917  0.00  0.00    +0.000 N 
ATOM     10  H   UNL     1       2.152   6.557  20.748  0.00  0.00    +0.000 HD
BRANCH   7  17
ATOM     11  C   UNL     1       2.517  13.954  17.746  0.00  0.00    +0.000 C 
ATOM     12  C   UNL     1       2.158  12.608  18.300  0.00  0.00    +0.000 A 
ATOM     13  C   UNL     1       1.316  12.509  19.490  0.00  0.00    +0.000 A 
ATOM     14  C   UNL     1       0.969  11.320  20.029  0.00  0.00    +0.000 A 
ATOM     15  C   UNL     1       1.429  10.105  19.434  0.00  0.00    +0.000 A 
ATOM     16  N   UNL     1       1.248   8.832  19.751  0.00  0.00    +0.000 NA
ATOM     17  C   UNL     1       1.946   8.108  18.792  0.00  0.00    +0.000 A 
ATOM     18  C   UNL     1       2.551   8.974  17.898  0.00  0.00    +0.000 A 
ATOM     19  N   UNL     1       2.227  10.237  18.302  0.00  0.00    +0.000 N 
ATOM     20  C   UNL     1       2.589  11.458  17.740  0.00  0.00    +0.000 A 
ENDBRANCH   7  17
ENDBRANCH   1   9
BRANCH   6  21
ATOM     21  N   UNL     1       4.246   4.259  18.590  0.00  0.00    +0.000 N 
ATOM     22  C   UNL     1       5.598   4.455  18.384  0.00  0.00    +0.000 C 
ATOM     23  O   UNL     1       6.437   4.439  19.279  0.00  0.00    +0.000 OA
ATOM     24  H   UNL     1       3.633   4.356  17.775  0.00  0.00    +0.000 HD
BRANCH  22  25
ATOM     25  C   UNL     1       6.009   4.708  16.974  0.00  0.00    +0.000 A 
ATOM     26  C   UNL     1       5.104   4.493  15.945  0.00  0.00    +0.000 A 
ATOM     27  N   UNL     1       5.452   4.596  14.635  0.00  0.00    +0.000 NA
ATOM     28  C   UNL     1       6.744   4.927  14.393  0.00  0.00    +0.000 A 
ATOM     29  C   UNL     1       7.209   4.938  12.970  0.00  0.00    +0.000 C 
ATOM     30  C   UNL     1       7.630   5.195  15.435  0.00  0.00    +0.000 A 
ATOM     31  N   UNL     1       7.293   5.093  16.743  0.00  0.00    +0.000 NA
ENDBRANCH  22  25
ENDBRANCH   6  21
TORSDOF 4
ENDMDL
MODEL 8
REMARK VINA RESULT:      -7.6      2.424      7.346
REMARK  Name = 
REMARK  6 active torsions:
REMARK  status: ('A' for Active; 'I' for Inactive)
REMARK    1  A    between atoms: C_1  and  C_2
REMARK    2  A    between atoms: C_7  and  C_8
REMARK    3  A    between atoms: N_10  and  C_11
REMARK    4  A    between atoms: C_16  and  N_17
REMARK    5  A    between atoms: C_18  and  C_20
REMARK    6  A    between atoms: C_23  and  C_24
REMARK                            x       y       z     vdW  Elec       q    Type
REMARK                         _______ _______ _______ _____ _____    ______ ____
ROOT
ATOM      1  C   UNL     1       6.434   6.333  17.174  0.00  0.00    +0.000 C 
ATOM      2  C   UNL     1       7.309   5.600  16.145  0.00  0.00    +0.000 C 
ATOM      3  C   UNL     1       6.755   4.230  15.770  0.00  0.00    +0.000 C 
ATOM      4  C   UNL     1       5.332   4.346  15.252  0.00  0.00    +0.000 C 
ATOM      5  C   UNL     1       4.429   4.989  16.294  0.00  0.00    +0.000 C 
ATOM      6  C   UNL     1       4.925   6.371  16.764  0.00  0.00    +0.000 C 
ENDROOT
BRANCH   1   9
ATOM      7  C   UNL     1       8.034   7.873  18.311  0.00  0.00    +0.000 C 
ATOM      8  O   UNL     1       8.564   6.947  18.922  0.00  0.00    +0.000 OA
ATOM      9  N   UNL     1       6.993   7.671  17.430  0.00  0.00    +0.000 N 
ATOM     10  H   UNL     1       6.565   8.504  17.038  0.00  0.00    +0.000 HD
BRANCH   7  17
ATOM     11  C   UNL     1       9.302  15.131  17.738  0.00  0.00    +0.000 C 
ATOM     12  C   UNL     1       9.326  13.712  18.220  0.00  0.00    +0.000 A 
ATOM     13  C   UNL     1      10.116  13.354  19.396  0.00  0.00    +0.000 A 
ATOM     14  C   UNL     1      10.173  12.088  19.866  0.00  0.00    +0.000 A 
ATOM     15  C   UNL     1       9.446  11.049  19.209  0.00  0.00    +0.000 A 
ATOM     16  N   UNL     1       9.329   9.752  19.449  0.00  0.00    +0.000 NA
ATOM     17  C   UNL     1       8.480   9.266  18.462  0.00  0.00    +0.000 A 
ATOM     18  C   UNL     1       8.093  10.299  17.626  0.00  0.00    +0.000 A 
ATOM     19  N   UNL     1       8.703  11.427  18.094  0.00  0.00    +0.000 N 
ATOM     20  C   UNL     1       8.638  12.728  17.603  0.00  0.00    +0.000 A 
ENDBRANCH   7  17
ENDBRANCH   1   9
BRANCH   6  21
ATOM     21  N   UNL     1       4.076   6.847  17.862  0.00  0.00    +0.000 N 
ATOM     22  C   UNL     1       3.060   7.767  17.698  0.00  0.00    +0.000 C 
ATOM     23  O   UNL     1       2.775   8.289  16.625  0.00  0.00    +0.000 OA
ATOM     24  H   UNL     1       4.262   6.525  18.817  0.00  0.00    +0.000 HD
BRANCH  22  25
ATOM     25  C   UNL     1       2.301   8.123  18.931  0.00  0.00    +0.000 A 
ATOM     26  C   UNL     1       2.182   7.195  19.956  0.00  0.00    +0.000 A 
ATOM     27  N   UNL     1       1.411   7.417  21.053  0.00  0.00    +0.000 NA
ATOM     28  C   UNL     1       0.763   8.608  21.087  0.00  0.00    +0.000 A 
ATOM     29  C   UNL     1      -0.191   8.853  22.214  0.00  0.00    +0.000 C 
ATOM     30  C   UNL     1       0.934   9.554  20.078  0.00  0.00    +0.000 A 
ATOM     31  N   UNL     1       1.699   9.342  18.981  0.00  0.00    +0.000 NA
ENDBRANCH  22  25
ENDBRANCH   6  21
TORSDOF 4
ENDMDL
MODEL 9
REMARK VINA RESULT:      -7.5      3.807      9.128
REMARK  Name = 
REMARK  6 active torsions:
REMARK  status: ('A' for Active; 'I' for Inactive)
REMARK    1  A    between atoms: C_1  and  C_2
REMARK    2  A    between atoms: C_7  and  C_8
REMARK    3  A    between atoms: N_10  and  C_11
REMARK    4  A    between atoms: C_16  and  N_17
REMARK    5  A    between atoms: C_18  and  C_20
REMARK    6  A    between atoms: C_23  and  C_24
REMARK                            x       y       z     vdW  Elec       q    Type
REMARK                         _______ _______ _______ _____ _____    ______ ____
ROOT
ATOM      1  C   UNL     1       1.250  12.442  19.475  0.00  0.00    +0.000 C 
ATOM      2  C   UNL     1       2.152  13.174  20.481  0.00  0.00    +0.000 C 
ATOM      3  C   UNL     1       1.952  14.686  20.462  0.00  0.00    +0.000 C 
ATOM      4  C   UNL     1       0.497  15.041  20.716  0.00  0.00    +0.000 C 
ATOM      5  C   UNL     1      -0.406  14.397  19.674  0.00  0.00    +0.000 C 
ATOM      6  C   UNL     1      -0.251  12.865  19.593  0.00  0.00    +0.000 C 
ENDROOT
BRANCH   1   9
ATOM      7  C   UNL     1       1.874  10.213  18.546  0.00  0.00    +0.000 C 
ATOM      8  O   UNL     1       2.125  10.691  17.441  0.00  0.00    +0.000 OA
ATOM      9  N   UNL     1       1.448  10.989  19.603  0.00  0.00    +0.000 N 
ATOM     10  H   UNL     1       1.186  10.494  20.449  0.00  0.00    +0.000 HD
BRANCH   7  17
ATOM     11  C   UNL     1       1.973   3.417  21.447  0.00  0.00    +0.000 C 
ATOM     12  C   UNL     1       2.123   4.564  20.493  0.00  0.00    +0.000 A 
ATOM     13  C   UNL     1       2.652   4.333  19.151  0.00  0.00    +0.000 A 
ATOM     14  C   UNL     1       2.808   5.334  18.257  0.00  0.00    +0.000 A 
ATOM     15  C   UNL     1       2.454   6.672  18.614  0.00  0.00    +0.000 A 
ATOM     16  N   UNL     1       2.508   7.816  17.951  0.00  0.00    +0.000 NA
ATOM     17  C   UNL     1       2.022   8.778  18.828  0.00  0.00    +0.000 A 
ATOM     18  C   UNL     1       1.680   8.185  20.031  0.00  0.00    +0.000 A 
ATOM     19  N   UNL     1       1.952   6.854  19.899  0.00  0.00    +0.000 N 
ATOM     20  C   UNL     1       1.787   5.828  20.826  0.00  0.00    +0.000 A 
ENDBRANCH   7  17
ENDBRANCH   1   9
BRANCH   6  21
ATOM     21  N   UNL     1      -1.049  12.353  18.473  0.00  0.00    +0.000 N 
ATOM     22  C   UNL     1      -1.659  11.114  18.474  0.00  0.00    +0.000 C 
ATOM     23  O   UNL     1      -1.584  10.314  19.401  0.00  0.00    +0.000 OA
ATOM     24  H   UNL     1      -1.131  12.910  17.618  0.00  0.00    +0.000 HD
BRANCH  22  25
ATOM     25  C   UNL     1      -2.434  10.771  17.248  0.00  0.00    +0.000 A 
ATOM     26  C   UNL     1      -1.979   9.766  16.407  0.00  0.00    +0.000 A 
ATOM     27  N   UNL     1      -2.577   9.484  15.219  0.00  0.00    +0.000 NA
ATOM     28  C   UNL     1      -3.653  10.246  14.906  0.00  0.00    +0.000 A 
ATOM     29  C   UNL     1      -4.276  10.057  13.558  0.00  0.00    +0.000 C 
ATOM     30  C   UNL     1      -4.135  11.216  15.784  0.00  0.00    +0.000 A 
ATOM     31  N   UNL     1      -3.544  11.505  16.968  0.00  0.00    +0.000 NA
ENDBRANCH  22  25
ENDBRANCH   6  21
TORSDOF 4
ENDMDL
