MODEL 1
REMARK VINA RESULT:      -8.9      0.000      0.000
REMARK  Name = 
REMARK  5 active torsions:
REMARK  status: ('A' for Active; 'I' for Inactive)
REMARK    1  A    between atoms: C_1  and  C_2
REMARK    2  A    between atoms: C_5  and  N_6
REMARK    3  A    between atoms: C_9  and  C_10
REMARK    4  A    between atoms: C_21  and  C_22
REMARK    5  A    between atoms: C_25  and  C_26
REMARK                            x       y       z     vdW  Elec       q    Type
REMARK                         _______ _______ _______ _____ _____    ______ ____
ROOT
ATOM      1  C   UNL     1       3.428   6.391  17.433  0.00  0.00    +0.000 C 
ATOM      2  O   UNL     1       3.892   7.262  16.687  0.00  0.00    +0.000 OA
ATOM      3  N   UNL     1       3.711   5.007  17.117  0.00  0.00    +0.000 N 
ATOM      4  C   UNL     1       4.949   4.966  16.300  0.00  0.00    +0.000 C 
ATOM      5  C   UNL     1       6.096   5.247  17.262  0.00  0.00    +0.000 A 
ATOM      6  C   UNL     1       7.073   6.198  16.966  0.00  0.00    +0.000 A 
ATOM      7  C   UNL     1       7.883   6.694  17.987  0.00  0.00    +0.000 A 
ATOM      8  C   UNL     1       7.745   6.221  19.293  0.00  0.00    +0.000 A 
ATOM      9  C   UNL     1       6.837   5.208  19.578  0.00  0.00    +0.000 A 
ATOM     10  C   UNL     1       6.009   4.716  18.568  0.00  0.00    +0.000 A 
ATOM     11  C   UNL     1       4.953   3.692  18.898  0.00  0.00    +0.000 C 
ATOM     12  C   UNL     1       3.702   3.788  17.995  0.00  0.00    +0.000 C 
ENDROOT
BRANCH   1  16
ATOM     13  N   UNL     1       1.653   8.102  20.086  0.00  0.00    +0.000 N 
ATOM     14  N   UNL     1       2.187   7.033  20.706  0.00  0.00    +0.000 NA
ATOM     15  N   UNL     1       2.695   6.246  19.769  0.00  0.00    +0.000 NA
ATOM     16  C   UNL     1       2.613   6.867  18.540  0.00  0.00    +0.000 A 
ATOM     17  C   UNL     1       2.036   8.101  18.750  0.00  0.00    +0.000 A 
ATOM     18  C   UNL     1       2.043   9.321  17.910  0.00  0.00    +0.000 C 
BRANCH  13  23
ATOM     19  C   UNL     1      -1.579  11.781  23.064  0.00  0.00    +0.000 C 
ATOM     20  C   UNL     1      -0.767  10.821  22.242  0.00  0.00    +0.000 A 
ATOM     21  C   UNL     1      -0.705  10.906  20.840  0.00  0.00    +0.000 A 
ATOM     22  C   UNL     1       0.097  10.017  20.112  0.00  0.00    +0.000 A 
ATOM     23  C   UNL     1       0.822   9.025  20.781  0.00  0.00    +0.000 A 
ATOM     24  C   UNL     1       0.777   8.944  22.176  0.00  0.00    +0.000 A 
ATOM     25  C   UNL     1      -0.011   9.851  22.897  0.00  0.00    +0.000 A 
ENDBRANCH  13  23
ENDBRANCH   1  16
BRANCH  12  26
ATOM     26  C   UNL     1       2.559   2.960  18.663  0.00  0.00    +0.000 C 
ATOM     27  N   UNL     1       1.311   3.533  18.695  0.00  0.00    +0.000 N 
ATOM     28  O   UNL     1       2.658   1.782  18.990  0.00  0.00    +0.000 OA
ATOM     29  H   UNL     1       1.117   4.438  18.290  0.00  0.00    +0.000 HD
ATOM     30  H   UNL     1       0.544   2.917  18.913  0.00  0.00    +0.000 HD
ENDBRANCH  12  26
TORSDOF 3
ENDMDL
MODEL 2
REMARK VINA RESULT:      -8.7      3.521      8.329
REMARK  Name = 
REMARK  5 active torsions:
REMARK  status: ('A' for Active; 'I' for Inactive)
REMARK    1  A    between atoms: C_1  and  C_2
REMARK    2  A    between atoms: C_5  and  N_6
REMARK    3  A    between atoms: C_9  and  C_10
REMARK    4  A    between atoms: C_21  and  C_22
REMARK    5  A    between atoms: C_25  and  C_26
REMARK                            x       y       z     vdW  Elec       q    Type
REMARK                         _______ _______ _______ _____ _____    ______ ____
ROOT
ATOM      1  C   UNL     1       0.376  10.849  20.405  0.00  0.00    +0.000 C 
ATOM      2  O   UNL     1       0.914  10.901  21.517  0.00  0.00    +0.000 OA
ATOM      3  N   UNL     1      -0.768  11.700  20.164  0.00  0.00    +0.000 N 
ATOM      4  C   UNL     1      -0.696  12.844  21.106  0.00  0.00    +0.000 C 
ATOM      5  C   UNL     1       0.409  13.751  20.581  0.00  0.00    +0.000 A 
ATOM      6  C   UNL     1       1.414  14.229  21.423  0.00  0.00    +0.000 A 
ATOM      7  C   UNL     1       2.590  14.737  20.871  0.00  0.00    +0.000 A 
ATOM      8  C   UNL     1       2.752  14.803  19.486  0.00  0.00    +0.000 A 
ATOM      9  C   UNL     1       1.719  14.414  18.642  0.00  0.00    +0.000 A 
ATOM     10  C   UNL     1       0.545  13.887  19.182  0.00  0.00    +0.000 A 
ATOM     11  C   UNL     1      -0.534  13.369  18.264  0.00  0.00    +0.000 C 
ATOM     12  C   UNL     1      -1.351  12.206  18.874  0.00  0.00    +0.000 C 
ENDROOT
BRANCH   1  16
ATOM     13  N   UNL     1       2.155   8.325  18.510  0.00  0.00    +0.000 N 
ATOM     14  N   UNL     1       2.236   9.418  17.729  0.00  0.00    +0.000 NA
ATOM     15  N   UNL     1       1.446  10.340  18.256  0.00  0.00    +0.000 NA
ATOM     16  C   UNL     1       0.948   9.897  19.463  0.00  0.00    +0.000 A 
ATOM     17  C   UNL     1       1.478   8.644  19.682  0.00  0.00    +0.000 A 
ATOM     18  C   UNL     1       1.615   7.863  20.933  0.00  0.00    +0.000 C 
BRANCH  13  23
ATOM     19  C   UNL     1       4.544   3.380  16.870  0.00  0.00    +0.000 C 
ATOM     20  C   UNL     1       3.870   4.656  17.287  0.00  0.00    +0.000 A 
ATOM     21  C   UNL     1       2.570   4.671  17.824  0.00  0.00    +0.000 A 
ATOM     22  C   UNL     1       1.991   5.878  18.240  0.00  0.00    +0.000 A 
ATOM     23  C   UNL     1       2.700   7.076  18.100  0.00  0.00    +0.000 A 
ATOM     24  C   UNL     1       3.998   7.066  17.581  0.00  0.00    +0.000 A 
ATOM     25  C   UNL     1       4.577   5.853  17.187  0.00  0.00    +0.000 A 
ENDBRANCH  13  23
ENDBRANCH   1  16
BRANCH  12  26
ATOM     26  C   UNL     1      -2.151  11.522  17.722  0.00  0.00    +0.000 C 
ATOM     27  N   UNL     1      -1.494  10.564  16.989  0.00  0.00    +0.000 N 
ATOM     28  O   UNL     1      -3.359  11.648  17.547  0.00  0.00    +0.000 OA
ATOM     29  H   UNL     1      -0.543  10.285  17.186  0.00  0.00    +0.000 HD
ATOM     30  H   UNL     1      -2.070   9.973  16.410  0.00  0.00    +0.000 HD
ENDBRANCH  12  26
TORSDOF 3
ENDMDL
MODEL 3
REMARK VINA RESULT:      -8.6      3.652      8.086
REMARK  Name = 
REMARK  5 active torsions:
REMARK  status: ('A' for Active; 'I' for Inactive)
REMARK    1  A    between atoms: C_1  and  C_2
REMARK    2  A    between atoms: C_5  and  N_6
REMARK    3  A    between atoms: C_9  and  C_10
REMARK    4  A    between atoms: C_21  and  C_22
REMARK    5  A    between atoms: C_25  and  C_26
REMARK                            x       y       z     vdW  Elec       q    Type
REMARK                         _______ _______ _______ _____ _____    ______ ____
ROOT
ATOM      1  C   UNL     1       3.500   6.066  18.064  0.00  0.00    +0.000 C 
ATOM      2  O   UNL     1       2.351   6.524  18.061  0.00  0.00    +0.000 OA
ATOM      3  N   UNL     1       4.112   5.778  19.343  0.00  0.00    +0.000 N 
ATOM      4  C   UNL     1       3.028   5.570  20.334  0.00  0.00    +0.000 C 
ATOM      5  C   UNL     1       2.432   4.203  20.024  0.00  0.00    +0.000 A 
ATOM      6  C   UNL     1       1.054   4.023  19.904  0.00  0.00    +0.000 A 
ATOM      7  C   UNL     1       0.561   2.882  19.273  0.00  0.00    +0.000 A 
ATOM      8  C   UNL     1       1.434   1.903  18.794  0.00  0.00    +0.000 A 
ATOM      9  C   UNL     1       2.804   2.032  18.992  0.00  0.00    +0.000 A 
ATOM     10  C   UNL     1       3.310   3.178  19.606  0.00  0.00    +0.000 A 
ATOM     11  C   UNL     1       4.802   3.365  19.728  0.00  0.00    +0.000 C 
ATOM     12  C   UNL     1       5.238   4.848  19.695  0.00  0.00    +0.000 C 
ENDROOT
BRANCH   1  16
ATOM     13  N   UNL     1       5.308   5.166  15.057  0.00  0.00    +0.000 N 
ATOM     14  N   UNL     1       5.638   6.457  15.246  0.00  0.00    +0.000 NA
ATOM     15  N   UNL     1       4.868   6.924  16.217  0.00  0.00    +0.000 NA
ATOM     16  C   UNL     1       4.124   5.898  16.760  0.00  0.00    +0.000 A 
ATOM     17  C   UNL     1       4.474   4.747  16.087  0.00  0.00    +0.000 A 
ATOM     18  C   UNL     1       4.308   3.324  16.465  0.00  0.00    +0.000 C 
BRANCH  13  23
ATOM     19  C   UNL     1       7.417   2.238  10.604  0.00  0.00    +0.000 C 
ATOM     20  C   UNL     1       6.817   3.008  11.746  0.00  0.00    +0.000 A 
ATOM     21  C   UNL     1       5.454   2.910  12.077  0.00  0.00    +0.000 A 
ATOM     22  C   UNL     1       4.940   3.614  13.176  0.00  0.00    +0.000 A 
ATOM     23  C   UNL     1       5.782   4.435  13.932  0.00  0.00    +0.000 A 
ATOM     24  C   UNL     1       7.141   4.526  13.617  0.00  0.00    +0.000 A 
ATOM     25  C   UNL     1       7.650   3.803  12.530  0.00  0.00    +0.000 A 
ENDBRANCH  13  23
ENDBRANCH   1  16
BRANCH  12  26
ATOM     26  C   UNL     1       6.779   4.892  19.446  0.00  0.00    +0.000 C 
ATOM     27  N   UNL     1       7.230   4.410  18.242  0.00  0.00    +0.000 N 
ATOM     28  O   UNL     1       7.580   5.485  20.162  0.00  0.00    +0.000 OA
ATOM     29  H   UNL     1       6.607   4.059  17.529  0.00  0.00    +0.000 HD
ATOM     30  H   UNL     1       8.177   4.646  17.994  0.00  0.00    +0.000 HD
ENDBRANCH  12  26
TORSDOF 3
ENDMDL
MODEL 4
REMARK VINA RESULT:      -8.4      3.469      8.366
REMARK  Name = 
REMARK  5 active torsions:
REMARK  status: ('A' for Active; 'I' for Inactive)
REMARK    1  A    between atoms: C_1  and  C_2
REMARK    2  A    between atoms: C_5  and  N_6
REMARK    3  A    between atoms: C_9  and  C_10
REMARK    4  A    between atoms: C_21  and  C_22
REMARK    5  A    between atoms: C_25  and  C_26
REMARK                            x       y       z     vdW  Elec       q    Type
REMARK                         _______ _______ _______ _____ _____    ______ ____
ROOT
ATOM      1  C   UNL     1       0.269  10.872  20.450  0.00  0.00    +0.000 C 
ATOM      2  O   UNL     1       0.816  10.969  21.555  0.00  0.00    +0.000 OA
ATOM      3  N   UNL     1      -0.922  11.659  20.212  0.00  0.00    +0.000 N 
ATOM      4  C   UNL     1      -0.899  12.819  21.137  0.00  0.00    +0.000 C 
ATOM      5  C   UNL     1       0.151  13.774  20.585  0.00  0.00    +0.000 A 
ATOM      6  C   UNL     1       1.139  14.317  21.407  0.00  0.00    +0.000 A 
ATOM      7  C   UNL     1       2.280  14.878  20.834  0.00  0.00    +0.000 A 
ATOM      8  C   UNL     1       2.422  14.932  19.446  0.00  0.00    +0.000 A 
ATOM      9  C   UNL     1       1.401  14.476  18.620  0.00  0.00    +0.000 A 
ATOM     10  C   UNL     1       0.263  13.897  19.182  0.00  0.00    +0.000 A 
ATOM     11  C   UNL     1      -0.799  13.309  18.286  0.00  0.00    +0.000 C 
ATOM     12  C   UNL     1      -1.545  12.114  18.923  0.00  0.00    +0.000 C 
ENDROOT
BRANCH   1  16
ATOM     13  N   UNL     1       2.145   8.406  18.575  0.00  0.00    +0.000 N 
ATOM     14  N   UNL     1       2.193   9.498  17.790  0.00  0.00    +0.000 NA
ATOM     15  N   UNL     1       1.368  10.394  18.309  0.00  0.00    +0.000 NA
ATOM     16  C   UNL     1       0.878   9.938  19.515  0.00  0.00    +0.000 A 
ATOM     17  C   UNL     1       1.451   8.704  19.741  0.00  0.00    +0.000 A 
ATOM     18  C   UNL     1       1.607   7.932  20.995  0.00  0.00    +0.000 C 
BRANCH  13  23
ATOM     19  C   UNL     1       4.327   3.358  16.957  0.00  0.00    +0.000 C 
ATOM     20  C   UNL     1       3.805   4.700  17.388  0.00  0.00    +0.000 A 
ATOM     21  C   UNL     1       4.514   5.889  17.142  0.00  0.00    +0.000 A 
ATOM     22  C   UNL     1       3.974   7.126  17.524  0.00  0.00    +0.000 A 
ATOM     23  C   UNL     1       2.735   7.175  18.171  0.00  0.00    +0.000 A 
ATOM     24  C   UNL     1       2.019   5.998  18.405  0.00  0.00    +0.000 A 
ATOM     25  C   UNL     1       2.556   4.768  18.002  0.00  0.00    +0.000 A 
ENDBRANCH  13  23
ENDBRANCH   1  16
BRANCH  12  26
ATOM     26  C   UNL     1      -2.322  11.372  17.790  0.00  0.00    +0.000 C 
ATOM     27  N   UNL     1      -3.494  11.945  17.360  0.00  0.00    +0.000 N 
ATOM     28  O   UNL     1      -1.874  10.430  17.144  0.00  0.00    +0.000 OA
ATOM     29  H   UNL     1      -3.842  12.817  17.731  0.00  0.00    +0.000 HD
ATOM     30  H   UNL     1      -3.867  11.597  16.490  0.00  0.00    +0.000 HD
ENDBRANCH  12  26
TORSDOF 3
ENDMDL
MODEL 5
REMARK VINA RESULT:      -8.4      8.442      9.877
REMARK  Name = 
REMARK  5 active torsions:
REMARK  status: ('A' for Active; 'I' for Inactive)
REMARK    1  A    between atoms: C_1  and  C_2
REMARK    2  A    between atoms: C_5  and  N_6
REMARK    3  A    between atoms: C_9  and  C_10
REMARK    4  A    between atoms: C_21  and  C_22
REMARK    5  A    between atoms: C_25  and  C_26
REMARK                            x       y       z     vdW  Elec       q    Type
REMARK                         _______ _______ _______ _____ _____    ______ ____
ROOT
ATOM      1  C   UNL     1       9.584  15.276  19.957  0.00  0.00    +0.000 C 
ATOM      2  O   UNL     1      10.810  15.393  20.064  0.00  0.00    +0.000 OA
ATOM      3  N   UNL     1       8.995  15.473  18.650  0.00  0.00    +0.000 N 
ATOM      4  C   UNL     1      10.044  15.220  17.631  0.00  0.00    +0.000 C 
ATOM      5  C   UNL     1      10.240  13.710  17.596  0.00  0.00    +0.000 A 
ATOM      6  C   UNL     1      11.512  13.143  17.662  0.00  0.00    +0.000 A 
ATOM      7  C   UNL     1      11.650  11.795  17.993  0.00  0.00    +0.000 A 
ATOM      8  C   UNL     1      10.523  11.004  18.225  0.00  0.00    +0.000 A 
ATOM      9  C   UNL     1       9.249  11.540  18.073  0.00  0.00    +0.000 A 
ATOM     10  C   UNL     1       9.100  12.891  17.758  0.00  0.00    +0.000 A 
ATOM     11  C   UNL     1       7.720  13.497  17.694  0.00  0.00    +0.000 C 
ATOM     12  C   UNL     1       7.687  14.991  18.089  0.00  0.00    +0.000 C 
ENDROOT
BRANCH   1  16
ATOM     13  N   UNL     1       7.734  13.989  22.793  0.00  0.00    +0.000 N 
ATOM     14  N   UNL     1       7.040  15.086  22.439  0.00  0.00    +0.000 NA
ATOM     15  N   UNL     1       7.755  15.729  21.528  0.00  0.00    +0.000 NA
ATOM     16  C   UNL     1       8.860  14.980  21.185  0.00  0.00    +0.000 A 
ATOM     17  C   UNL     1       8.801  13.815  21.920  0.00  0.00    +0.000 A 
ATOM     18  C   UNL     1       9.468  12.510  21.708  0.00  0.00    +0.000 C 
BRANCH  13  23
ATOM     19  C   UNL     1       6.141  10.674  27.190  0.00  0.00    +0.000 C 
ATOM     20  C   UNL     1       6.569  11.583  26.072  0.00  0.00    +0.000 A 
ATOM     21  C   UNL     1       7.545  12.579  26.253  0.00  0.00    +0.000 A 
ATOM     22  C   UNL     1       7.946  13.380  25.174  0.00  0.00    +0.000 A 
ATOM     23  C   UNL     1       7.357  13.203  23.918  0.00  0.00    +0.000 A 
ATOM     24  C   UNL     1       6.397  12.205  23.728  0.00  0.00    +0.000 A 
ATOM     25  C   UNL     1       6.017  11.395  24.807  0.00  0.00    +0.000 A 
ENDBRANCH  13  23
ENDBRANCH   1  16
BRANCH  12  26
ATOM     26  C   UNL     1       6.201  15.389  18.350  0.00  0.00    +0.000 C 
ATOM     27  N   UNL     1       5.979  16.557  19.038  0.00  0.00    +0.000 N 
ATOM     28  O   UNL     1       5.234  14.836  17.835  0.00  0.00    +0.000 OA
ATOM     29  H   UNL     1       6.731  17.156  19.349  0.00  0.00    +0.000 HD
ATOM     30  H   UNL     1       5.041  16.923  19.005  0.00  0.00    +0.000 HD
ENDBRANCH  12  26
TORSDOF 3
ENDMDL
MODEL 6
REMARK VINA RESULT:      -8.3      8.383      9.772
REMARK  Name = 
REMARK  5 active torsions:
REMARK  status: ('A' for Active; 'I' for Inactive)
REMARK    1  A    between atoms: C_1  and  C_2
REMARK    2  A    between atoms: C_5  and  N_6
REMARK    3  A    between atoms: C_9  and  C_10
REMARK    4  A    between atoms: C_21  and  C_22
REMARK    5  A    between atoms: C_25  and  C_26
REMARK                            x       y       z     vdW  Elec       q    Type
REMARK                         _______ _______ _______ _____ _____    ______ ____
ROOT
ATOM      1  C   UNL     1       9.321  15.378  19.959  0.00  0.00    +0.000 C 
ATOM      2  O   UNL     1      10.525  15.644  20.052  0.00  0.00    +0.000 OA
ATOM      3  N   UNL     1       8.703  15.476  18.654  0.00  0.00    +0.000 N 
ATOM      4  C   UNL     1       9.767  15.331  17.630  0.00  0.00    +0.000 C 
ATOM      5  C   UNL     1      10.143  13.855  17.622  0.00  0.00    +0.000 A 
ATOM      6  C   UNL     1      11.476  13.446  17.686  0.00  0.00    +0.000 A 
ATOM      7  C   UNL     1      11.777  12.132  18.042  0.00  0.00    +0.000 A 
ATOM      8  C   UNL     1      10.755  11.216  18.300  0.00  0.00    +0.000 A 
ATOM      9  C   UNL     1       9.425  11.591  18.150  0.00  0.00    +0.000 A 
ATOM     10  C   UNL     1       9.111  12.908  17.811  0.00  0.00    +0.000 A 
ATOM     11  C   UNL     1       7.668  13.342  17.749  0.00  0.00    +0.000 C 
ATOM     12  C   UNL     1       7.459  14.829  18.116  0.00  0.00    +0.000 C 
ENDROOT
BRANCH   1  16
ATOM     13  N   UNL     1       7.580  13.954  22.799  0.00  0.00    +0.000 N 
ATOM     14  N   UNL     1       6.885  15.076  22.536  0.00  0.00    +0.000 NA
ATOM     15  N   UNL     1       7.567  15.762  21.631  0.00  0.00    +0.000 NA
ATOM     16  C   UNL     1       8.648  15.022  21.199  0.00  0.00    +0.000 A 
ATOM     17  C   UNL     1       8.606  13.819  21.872  0.00  0.00    +0.000 A 
ATOM     18  C   UNL     1       9.248  12.521  21.559  0.00  0.00    +0.000 C 
BRANCH  13  23
ATOM     19  C   UNL     1       6.307  10.704  27.345  0.00  0.00    +0.000 C 
ATOM     20  C   UNL     1       6.628  11.515  26.121  0.00  0.00    +0.000 A 
ATOM     21  C   UNL     1       5.954  11.322  24.902  0.00  0.00    +0.000 A 
ATOM     22  C   UNL     1       6.254  12.127  23.794  0.00  0.00    +0.000 A 
ATOM     23  C   UNL     1       7.243  13.111  23.895  0.00  0.00    +0.000 A 
ATOM     24  C   UNL     1       7.905  13.318  25.108  0.00  0.00    +0.000 A 
ATOM     25  C   UNL     1       7.585  12.523  26.216  0.00  0.00    +0.000 A 
ENDBRANCH  13  23
ENDBRANCH   1  16
BRANCH  12  26
ATOM     26  C   UNL     1       5.937  15.051  18.384  0.00  0.00    +0.000 C 
ATOM     27  N   UNL     1       5.531  15.066  19.696  0.00  0.00    +0.000 N 
ATOM     28  O   UNL     1       5.124  15.388  17.529  0.00  0.00    +0.000 OA
ATOM     29  H   UNL     1       6.176  14.962  20.466  0.00  0.00    +0.000 HD
ATOM     30  H   UNL     1       4.608  15.431  19.873  0.00  0.00    +0.000 HD
ENDBRANCH  12  26
TORSDOF 3
ENDMDL
MODEL 7
REMARK VINA RESULT:      -8.3      8.968     10.497
REMARK  Name = 
REMARK  5 active torsions:
REMARK  status: ('A' for Active; 'I' for Inactive)
REMARK    1  A    between atoms: C_1  and  C_2
REMARK    2  A    between atoms: C_5  and  N_6
REMARK    3  A    between atoms: C_9  and  C_10
REMARK    4  A    between atoms: C_21  and  C_22
REMARK    5  A    between atoms: C_25  and  C_26
REMARK                            x       y       z     vdW  Elec       q    Type
REMARK                         _______ _______ _______ _____ _____    ______ ____
ROOT
ATOM      1  C   UNL     1      10.449  15.259  20.381  0.00  0.00    +0.000 C 
ATOM      2  O   UNL     1      11.658  15.003  20.411  0.00  0.00    +0.000 OA
ATOM      3  N   UNL     1       9.904  15.824  19.165  0.00  0.00    +0.000 N 
ATOM      4  C   UNL     1      10.801  15.450  18.044  0.00  0.00    +0.000 C 
ATOM      5  C   UNL     1      10.544  13.974  17.774  0.00  0.00    +0.000 A 
ATOM      6  C   UNL     1      11.596  13.065  17.659  0.00  0.00    +0.000 A 
ATOM      7  C   UNL     1      11.342  11.699  17.780  0.00  0.00    +0.000 A 
ATOM      8  C   UNL     1      10.040  11.235  17.979  0.00  0.00    +0.000 A 
ATOM      9  C   UNL     1       8.976  12.129  18.003  0.00  0.00    +0.000 A 
ATOM     10  C   UNL     1       9.220  13.499  17.902  0.00  0.00    +0.000 A 
ATOM     11  C   UNL     1       8.077  14.474  18.032  0.00  0.00    +0.000 C 
ATOM     12  C   UNL     1       8.496  15.832  18.641  0.00  0.00    +0.000 C 
ENDROOT
BRANCH   1  16
ATOM     13  N   UNL     1       8.377  14.121  23.126  0.00  0.00    +0.000 N 
ATOM     14  N   UNL     1       8.055  15.423  23.010  0.00  0.00    +0.000 NA
ATOM     15  N   UNL     1       8.908  15.966  22.154  0.00  0.00    +0.000 NA
ATOM     16  C   UNL     1       9.708  14.987  21.604  0.00  0.00    +0.000 A 
ATOM     17  C   UNL     1       9.306  13.786  22.149  0.00  0.00    +0.000 A 
ATOM     18  C   UNL     1       9.519  12.398  21.677  0.00  0.00    +0.000 C 
BRANCH  13  23
ATOM     19  C   UNL     1       6.009  10.692  27.061  0.00  0.00    +0.000 C 
ATOM     20  C   UNL     1       6.639  11.627  26.068  0.00  0.00    +0.000 A 
ATOM     21  C   UNL     1       7.661  12.522  26.431  0.00  0.00    +0.000 A 
ATOM     22  C   UNL     1       8.252  13.350  25.466  0.00  0.00    +0.000 A 
ATOM     23  C   UNL     1       7.807  13.303  24.141  0.00  0.00    +0.000 A 
ATOM     24  C   UNL     1       6.801  12.405  23.771  0.00  0.00    +0.000 A 
ATOM     25  C   UNL     1       6.231  11.566  24.737  0.00  0.00    +0.000 A 
ENDBRANCH  13  23
ENDBRANCH   1  16
BRANCH  12  26
ATOM     26  C   UNL     1       7.200  16.589  19.070  0.00  0.00    +0.000 C 
ATOM     27  N   UNL     1       6.552  16.131  20.191  0.00  0.00    +0.000 N 
ATOM     28  O   UNL     1       6.830  17.657  18.591  0.00  0.00    +0.000 OA
ATOM     29  H   UNL     1       6.896  15.355  20.739  0.00  0.00    +0.000 HD
ATOM     30  H   UNL     1       5.863  16.748  20.591  0.00  0.00    +0.000 HD
ENDBRANCH  12  26
TORSDOF 3
ENDMDL
MODEL 8
REMARK VINA RESULT:      -8.2      8.219     10.169
REMARK  Name = 
REMARK  5 active torsions:
REMARK  status: ('A' for Active; 'I' for Inactive)
REMARK    1  A    between atoms: C_1  and  C_2
REMARK    2  A    between atoms: C_5  and  N_6
REMARK    3  A    between atoms: C_9  and  C_10
REMARK    4  A    between atoms: C_21  and  C_22
REMARK    5  A    between atoms: C_25  and  C_26
REMARK                            x       y       z     vdW  Elec       q    Type
REMARK                         _______ _______ _______ _____ _____    ______ ____
ROOT
ATOM      1  C   UNL     1       8.303  14.941  20.086  0.00  0.00    +0.000 C 
ATOM      2  O   UNL     1       8.084  14.459  21.203  0.00  0.00    +0.000 OA
ATOM      3  N   UNL     1       9.680  15.164  19.701  0.00  0.00    +0.000 N 
ATOM      4  C   UNL     1      10.534  14.251  20.501  0.00  0.00    +0.000 C 
ATOM      5  C   UNL     1      10.328  12.861  19.913  0.00  0.00    +0.000 A 
ATOM      6  C   UNL     1      10.046  11.765  20.728  0.00  0.00    +0.000 A 
ATOM      7  C   UNL     1       9.509  10.608  20.164  0.00  0.00    +0.000 A 
ATOM      8  C   UNL     1       9.285  10.528  18.788  0.00  0.00    +0.000 A 
ATOM      9  C   UNL     1       9.649  11.582  17.959  0.00  0.00    +0.000 A 
ATOM     10  C   UNL     1      10.171  12.752  18.513  0.00  0.00    +0.000 A 
ATOM     11  C   UNL     1      10.469  13.934  17.625  0.00  0.00    +0.000 C 
ATOM     12  C   UNL     1      10.301  15.295  18.339  0.00  0.00    +0.000 C 
ENDROOT
BRANCH   1  16
ATOM     13  N   UNL     1       5.086  15.724  18.615  0.00  0.00    +0.000 N 
ATOM     14  N   UNL     1       5.527  14.691  17.873  0.00  0.00    +0.000 NA
ATOM     15  N   UNL     1       6.785  14.464  18.219  0.00  0.00    +0.000 NA
ATOM     16  C   UNL     1       7.130  15.264  19.288  0.00  0.00    +0.000 A 
ATOM     17  C   UNL     1       6.013  16.004  19.613  0.00  0.00    +0.000 A 
ATOM     18  C   UNL     1       5.665  16.721  20.862  0.00  0.00    +0.000 C 
BRANCH  13  23
ATOM     19  C   UNL     1       0.137  18.276  17.257  0.00  0.00    +0.000 C 
ATOM     20  C   UNL     1       1.432  17.629  17.662  0.00  0.00    +0.000 A 
ATOM     21  C   UNL     1       1.696  17.260  18.993  0.00  0.00    +0.000 A 
ATOM     22  C   UNL     1       2.900  16.622  19.323  0.00  0.00    +0.000 A 
ATOM     23  C   UNL     1       3.852  16.371  18.329  0.00  0.00    +0.000 A 
ATOM     24  C   UNL     1       3.589  16.723  17.002  0.00  0.00    +0.000 A 
ATOM     25  C   UNL     1       2.374  17.341  16.677  0.00  0.00    +0.000 A 
ENDBRANCH  13  23
ENDBRANCH   1  16
BRANCH  12  26
ATOM     26  C   UNL     1      10.260  16.410  17.248  0.00  0.00    +0.000 C 
ATOM     27  N   UNL     1      10.592  16.042  15.967  0.00  0.00    +0.000 N 
ATOM     28  O   UNL     1       9.784  17.528  17.417  0.00  0.00    +0.000 OA
ATOM     29  H   UNL     1      10.833  15.093  15.719  0.00  0.00    +0.000 HD
ATOM     30  H   UNL     1      10.347  16.693  15.238  0.00  0.00    +0.000 HD
ENDBRANCH  12  26
TORSDOF 3
ENDMDL
MODEL 9
REMARK VINA RESULT:      -8.1      7.893      9.829
REMARK  Name = 
REMARK  5 active torsions:
REMARK  status: ('A' for Active; 'I' for Inactive)
REMARK    1  A    between atoms: C_1  and  C_2
REMARK    2  A    between atoms: C_5  and  N_6
REMARK    3  A    between atoms: C_9  and  C_10
REMARK    4  A    between atoms: C_21  and  C_22
REMARK    5  A    between atoms: C_25  and  C_26
REMARK                            x       y       z     vdW  Elec       q    Type
REMARK                         _______ _______ _______ _____ _____    ______ ____
ROOT
ATOM      1  C   UNL     1       8.027  14.764  20.240  0.00  0.00    +0.000 C 
ATOM      2  O   UNL     1       7.833  14.189  21.317  0.00  0.00    +0.000 OA
ATOM      3  N   UNL     1       9.389  15.110  19.892  0.00  0.00    +0.000 N 
ATOM      4  C   UNL     1      10.297  14.204  20.637  0.00  0.00    +0.000 C 
ATOM      5  C   UNL     1      10.195  12.849  19.949  0.00  0.00    +0.000 A 
ATOM      6  C   UNL     1       9.984  11.679  20.680  0.00  0.00    +0.000 A 
ATOM      7  C   UNL     1       9.536  10.531  20.028  0.00  0.00    +0.000 A 
ATOM      8  C   UNL     1       9.331  10.535  18.647  0.00  0.00    +0.000 A 
ATOM      9  C   UNL     1       9.627  11.669  17.899  0.00  0.00    +0.000 A 
ATOM     10  C   UNL     1      10.059  12.829  18.543  0.00  0.00    +0.000 A 
ATOM     11  C   UNL     1      10.281  14.090  17.745  0.00  0.00    +0.000 C 
ATOM     12  C   UNL     1      10.011  15.381  18.551  0.00  0.00    +0.000 C 
ENDROOT
BRANCH   1  16
ATOM     13  N   UNL     1       4.771  15.323  18.754  0.00  0.00    +0.000 N 
ATOM     14  N   UNL     1       5.404  14.560  17.844  0.00  0.00    +0.000 NA
ATOM     15  N   UNL     1       6.671  14.467  18.217  0.00  0.00    +0.000 NA
ATOM     16  C   UNL     1       6.841  15.061  19.450  0.00  0.00    +0.000 A 
ATOM     17  C   UNL     1       5.605  15.525  19.847  0.00  0.00    +0.000 A 
ATOM     18  C   UNL     1       5.102  15.889  21.192  0.00  0.00    +0.000 C 
BRANCH  13  23
ATOM     19  C   UNL     1      -0.600  17.179  18.011  0.00  0.00    +0.000 C 
ATOM     20  C   UNL     1       0.821  16.714  18.158  0.00  0.00    +0.000 A 
ATOM     21  C   UNL     1       1.899  17.423  17.600  0.00  0.00    +0.000 A 
ATOM     22  C   UNL     1       3.214  16.979  17.794  0.00  0.00    +0.000 A 
ATOM     23  C   UNL     1       3.454  15.812  18.527  0.00  0.00    +0.000 A 
ATOM     24  C   UNL     1       2.388  15.110  19.097  0.00  0.00    +0.000 A 
ATOM     25  C   UNL     1       1.078  15.573  18.916  0.00  0.00    +0.000 A 
ENDBRANCH  13  23
ENDBRANCH   1  16
BRANCH  12  26
ATOM     26  C   UNL     1       9.902  16.566  17.542  0.00  0.00    +0.000 C 
ATOM     27  N   UNL     1      10.447  16.376  16.295  0.00  0.00    +0.000 N 
ATOM     28  O   UNL     1       9.215  17.567  17.720  0.00  0.00    +0.000 OA
ATOM     29  H   UNL     1      10.884  15.508  16.019  0.00  0.00    +0.000 HD
ATOM     30  H   UNL     1      10.178  17.039  15.586  0.00  0.00    +0.000 HD
ENDBRANCH  12  26
TORSDOF 3
ENDMDL
