MODEL 1
REMARK VINA RESULT:      -8.6      0.000      0.000
REMARK  Name = 
REMARK  2 active torsions:
REMARK  status: ('A' for Active; 'I' for Inactive)
REMARK    1  A    between atoms: N_12  and  C_13
REMARK    2  A    between atoms: C_13  and  C_14
REMARK                            x       y       z     vdW  Elec       q    Type
REMARK                         _______ _______ _______ _____ _____    ______ ____
ROOT
ATOM      1  F   UNL     1       8.861   6.352  12.737  0.00  0.00    +0.000 F 
ATOM      2  C   UNL     1       7.912   5.421  12.912  0.00  0.00    +0.000 A 
ATOM      3  C   UNL     1       7.400   4.769  11.791  0.00  0.00    +0.000 A 
ATOM      4  C   UNL     1       6.398   3.815  11.952  0.00  0.00    +0.000 A 
ATOM      5  C   UNL     1       5.929   3.523  13.230  0.00  0.00    +0.000 A 
ATOM      6  F   UNL     1       4.958   2.609  13.367  0.00  0.00    +0.000 F 
ATOM      7  C   UNL     1       6.449   4.167  14.357  0.00  0.00    +0.000 A 
ATOM      8  C   UNL     1       7.436   5.137  14.195  0.00  0.00    +0.000 A 
ATOM      9  O   UNL     1       7.959   5.860  15.230  0.00  0.00    +0.000 OA
ATOM     10  C   UNL     1       7.273   5.690  16.465  0.00  0.00    +0.000 C 
ATOM     11  C   UNL     1       6.059   6.600  16.633  0.00  0.00    +0.000 C 
ATOM     12  N   UNL     1       5.274   5.995  17.733  0.00  0.00    +0.000 NA
ATOM     13  C   UNL     1       5.707   4.576  17.834  0.00  0.00    +0.000 C 
ATOM     14  C   UNL     1       6.680   4.311  16.683  0.00  0.00    +0.000 C 
ATOM     15  O   UNL     1       5.916   3.831  15.569  0.00  0.00    +0.000 OA
ENDROOT
BRANCH  12  16
ATOM     16  C   UNL     1       3.829   6.132  17.480  0.00  0.00    +0.000 C 
BRANCH  16  17
ATOM     17  C   UNL     1       2.978   5.196  18.323  0.00  0.00    +0.000 A 
ATOM     18  C   UNL     1       2.016   4.381  17.703  0.00  0.00    +0.000 A 
ATOM     19  C   UNL     1       1.256   3.458  18.432  0.00  0.00    +0.000 A 
ATOM     20  C   UNL     1       1.466   3.359  19.817  0.00  0.00    +0.000 A 
ATOM     21  C   UNL     1       0.953   2.569  20.870  0.00  0.00    +0.000 A 
ATOM     22  N   UNL     1       1.500   2.868  22.051  0.00  0.00    +0.000 NA
ATOM     23  N   UNL     1       2.367   3.852  21.752  0.00  0.00    +0.000 N 
ATOM     24  C   UNL     1       2.399   4.188  20.423  0.00  0.00    +0.000 A 
ATOM     25  C   UNL     1       3.164   5.125  19.717  0.00  0.00    +0.000 A 
ATOM     26  H   UNL     1       2.921   4.249  22.502  0.00  0.00    +0.000 HD
ENDBRANCH  16  17
ENDBRANCH  12  16
TORSDOF 2
ENDMDL
MODEL 2
REMARK VINA RESULT:      -8.4      2.304      2.911
REMARK  Name = 
REMARK  2 active torsions:
REMARK  status: ('A' for Active; 'I' for Inactive)
REMARK    1  A    between atoms: N_12  and  C_13
REMARK    2  A    between atoms: C_13  and  C_14
REMARK                            x       y       z     vdW  Elec       q    Type
REMARK                         _______ _______ _______ _____ _____    ______ ____
ROOT
ATOM      1  F   UNL     1       8.920   6.293  13.013  0.00  0.00    +0.000 F 
ATOM      2  C   UNL     1       7.930   5.390  13.076  0.00  0.00    +0.000 A 
ATOM      3  C   UNL     1       7.493   4.795  11.894  0.00  0.00    +0.000 A 
ATOM      4  C   UNL     1       6.450   3.873  11.936  0.00  0.00    +0.000 A 
ATOM      5  C   UNL     1       5.866   3.555  13.161  0.00  0.00    +0.000 A 
ATOM      6  F   UNL     1       4.858   2.672  13.183  0.00  0.00    +0.000 F 
ATOM      7  C   UNL     1       6.312   4.142  14.349  0.00  0.00    +0.000 A 
ATOM      8  C   UNL     1       7.339   5.082  14.304  0.00  0.00    +0.000 A 
ATOM      9  O   UNL     1       7.797   5.751  15.405  0.00  0.00    +0.000 OA
ATOM     10  C   UNL     1       7.005   5.563  16.571  0.00  0.00    +0.000 C 
ATOM     11  C   UNL     1       5.811   6.510  16.672  0.00  0.00    +0.000 C 
ATOM     12  N   UNL     1       4.918   5.897  17.681  0.00  0.00    +0.000 NA
ATOM     13  C   UNL     1       5.294   4.461  17.765  0.00  0.00    +0.000 C 
ATOM     14  C   UNL     1       6.351   4.200  16.690  0.00  0.00    +0.000 C 
ATOM     15  O   UNL     1       5.668   3.785  15.500  0.00  0.00    +0.000 OA
ENDROOT
BRANCH  12  16
ATOM     16  C   UNL     1       3.504   6.094  17.314  0.00  0.00    +0.000 C 
BRANCH  16  17
ATOM     17  C   UNL     1       2.801   7.136  18.167  0.00  0.00    +0.000 A 
ATOM     18  C   UNL     1       2.371   8.339  17.583  0.00  0.00    +0.000 A 
ATOM     19  C   UNL     1       1.662   9.299  18.316  0.00  0.00    +0.000 A 
ATOM     20  C   UNL     1       1.385   9.043  19.668  0.00  0.00    +0.000 A 
ATOM     21  C   UNL     1       0.699   9.707  20.711  0.00  0.00    +0.000 A 
ATOM     22  N   UNL     1       0.716   9.021  21.856  0.00  0.00    +0.000 NA
ATOM     23  N   UNL     1       1.414   7.914  21.545  0.00  0.00    +0.000 N 
ATOM     24  C   UNL     1       1.838   7.864  20.243  0.00  0.00    +0.000 A 
ATOM     25  C   UNL     1       2.557   6.894  19.533  0.00  0.00    +0.000 A 
ATOM     26  H   UNL     1       1.559   7.219  22.268  0.00  0.00    +0.000 HD
ENDBRANCH  16  17
ENDBRANCH  12  16
TORSDOF 2
ENDMDL
MODEL 3
REMARK VINA RESULT:      -8.0      2.440      3.014
REMARK  Name = 
REMARK  2 active torsions:
REMARK  status: ('A' for Active; 'I' for Inactive)
REMARK    1  A    between atoms: N_12  and  C_13
REMARK    2  A    between atoms: C_13  and  C_14
REMARK                            x       y       z     vdW  Elec       q    Type
REMARK                         _______ _______ _______ _____ _____    ______ ____
ROOT
ATOM      1  F   UNL     1       8.976   6.256  12.966  0.00  0.00    +0.000 F 
ATOM      2  C   UNL     1       7.953   5.390  13.005  0.00  0.00    +0.000 A 
ATOM      3  C   UNL     1       7.494   4.844  11.807  0.00  0.00    +0.000 A 
ATOM      4  C   UNL     1       6.417   3.960  11.825  0.00  0.00    +0.000 A 
ATOM      5  C   UNL     1       5.822   3.631  13.041  0.00  0.00    +0.000 A 
ATOM      6  F   UNL     1       4.782   2.785  13.040  0.00  0.00    +0.000 F 
ATOM      7  C   UNL     1       6.289   4.168  14.244  0.00  0.00    +0.000 A 
ATOM      8  C   UNL     1       7.351   5.069  14.224  0.00  0.00    +0.000 A 
ATOM      9  O   UNL     1       7.833   5.690  15.342  0.00  0.00    +0.000 OA
ATOM     10  C   UNL     1       7.036   5.500  16.504  0.00  0.00    +0.000 C 
ATOM     11  C   UNL     1       5.878   6.487  16.633  0.00  0.00    +0.000 C 
ATOM     12  N   UNL     1       4.962   5.880  17.624  0.00  0.00    +0.000 NA
ATOM     13  C   UNL     1       5.285   4.429  17.669  0.00  0.00    +0.000 C 
ATOM     14  C   UNL     1       6.331   4.160  16.585  0.00  0.00    +0.000 C 
ATOM     15  O   UNL     1       5.632   3.803  15.385  0.00  0.00    +0.000 OA
ENDROOT
BRANCH  12  16
ATOM     16  C   UNL     1       3.557   6.140  17.265  0.00  0.00    +0.000 C 
BRANCH  16  17
ATOM     17  C   UNL     1       2.768   6.820  18.372  0.00  0.00    +0.000 A 
ATOM     18  C   UNL     1       2.542   6.144  19.583  0.00  0.00    +0.000 A 
ATOM     19  C   UNL     1       1.876   6.756  20.652  0.00  0.00    +0.000 A 
ATOM     20  C   UNL     1       1.425   8.076  20.496  0.00  0.00    +0.000 A 
ATOM     21  C   UNL     1       0.765   9.029  21.304  0.00  0.00    +0.000 A 
ATOM     22  N   UNL     1       0.554  10.185  20.671  0.00  0.00    +0.000 NA
ATOM     23  N   UNL     1       1.083   9.972  19.452  0.00  0.00    +0.000 N 
ATOM     24  C   UNL     1       1.629   8.725  19.286  0.00  0.00    +0.000 A 
ATOM     25  C   UNL     1       2.283   8.130  18.200  0.00  0.00    +0.000 A 
ATOM     26  H   UNL     1       1.050  10.725  18.775  0.00  0.00    +0.000 HD
ENDBRANCH  16  17
ENDBRANCH  12  16
TORSDOF 2
ENDMDL
MODEL 4
REMARK VINA RESULT:      -7.8      3.578      7.434
REMARK  Name = 
REMARK  2 active torsions:
REMARK  status: ('A' for Active; 'I' for Inactive)
REMARK    1  A    between atoms: N_12  and  C_13
REMARK    2  A    between atoms: C_13  and  C_14
REMARK                            x       y       z     vdW  Elec       q    Type
REMARK                         _______ _______ _______ _____ _____    ______ ____
ROOT
ATOM      1  F   UNL     1       4.995   1.629  20.451  0.00  0.00    +0.000 F 
ATOM      2  C   UNL     1       4.117   2.542  20.011  0.00  0.00    +0.000 A 
ATOM      3  C   UNL     1       2.756   2.310  20.209  0.00  0.00    +0.000 A 
ATOM      4  C   UNL     1       1.828   3.236  19.738  0.00  0.00    +0.000 A 
ATOM      5  C   UNL     1       2.275   4.382  19.085  0.00  0.00    +0.000 A 
ATOM      6  F   UNL     1       1.369   5.260  18.632  0.00  0.00    +0.000 F 
ATOM      7  C   UNL     1       3.640   4.623  18.897  0.00  0.00    +0.000 A 
ATOM      8  C   UNL     1       4.567   3.686  19.347  0.00  0.00    +0.000 A 
ATOM      9  O   UNL     1       5.915   3.807  19.153  0.00  0.00    +0.000 OA
ATOM     10  C   UNL     1       6.285   4.864  18.278  0.00  0.00    +0.000 C 
ATOM     11  C   UNL     1       6.253   4.487  16.798  0.00  0.00    +0.000 C 
ATOM     12  N   UNL     1       6.249   5.777  16.072  0.00  0.00    +0.000 NA
ATOM     13  C   UNL     1       5.779   6.807  17.037  0.00  0.00    +0.000 C 
ATOM     14  C   UNL     1       5.380   6.080  18.323  0.00  0.00    +0.000 C 
ATOM     15  O   UNL     1       3.985   5.764  18.230  0.00  0.00    +0.000 OA
ENDROOT
BRANCH  12  16
ATOM     16  C   UNL     1       5.401   5.697  14.870  0.00  0.00    +0.000 C 
BRANCH  16  17
ATOM     17  C   UNL     1       5.999   4.837  13.768  0.00  0.00    +0.000 A 
ATOM     18  C   UNL     1       7.259   5.162  13.238  0.00  0.00    +0.000 A 
ATOM     19  C   UNL     1       7.876   4.361  12.268  0.00  0.00    +0.000 A 
ATOM     20  C   UNL     1       7.206   3.212  11.820  0.00  0.00    +0.000 A 
ATOM     21  C   UNL     1       7.480   2.162  10.914  0.00  0.00    +0.000 A 
ATOM     22  N   UNL     1       6.486   1.273  10.840  0.00  0.00    +0.000 NA
ATOM     23  N   UNL     1       5.574   1.756  11.703  0.00  0.00    +0.000 N 
ATOM     24  C   UNL     1       5.950   2.915  12.330  0.00  0.00    +0.000 A 
ATOM     25  C   UNL     1       5.310   3.706  13.292  0.00  0.00    +0.000 A 
ATOM     26  H   UNL     1       4.712   1.238  11.830  0.00  0.00    +0.000 HD
ENDBRANCH  16  17
ENDBRANCH  12  16
TORSDOF 2
ENDMDL
MODEL 5
REMARK VINA RESULT:      -7.8      4.067      5.110
REMARK  Name = 
REMARK  2 active torsions:
REMARK  status: ('A' for Active; 'I' for Inactive)
REMARK    1  A    between atoms: N_12  and  C_13
REMARK    2  A    between atoms: C_13  and  C_14
REMARK                            x       y       z     vdW  Elec       q    Type
REMARK                         _______ _______ _______ _____ _____    ______ ____
ROOT
ATOM      1  F   UNL     1       8.278   4.659  18.663  0.00  0.00    +0.000 F 
ATOM      2  C   UNL     1       7.382   4.605  17.667  0.00  0.00    +0.000 A 
ATOM      3  C   UNL     1       7.844   4.598  16.352  0.00  0.00    +0.000 A 
ATOM      4  C   UNL     1       6.927   4.566  15.304  0.00  0.00    +0.000 A 
ATOM      5  C   UNL     1       5.563   4.534  15.588  0.00  0.00    +0.000 A 
ATOM      6  F   UNL     1       4.694   4.512  14.568  0.00  0.00    +0.000 F 
ATOM      7  C   UNL     1       5.098   4.530  16.906  0.00  0.00    +0.000 A 
ATOM      8  C   UNL     1       6.014   4.585  17.954  0.00  0.00    +0.000 A 
ATOM      9  O   UNL     1       5.651   4.646  19.271  0.00  0.00    +0.000 OA
ATOM     10  C   UNL     1       4.260   4.854  19.481  0.00  0.00    +0.000 C 
ATOM     11  C   UNL     1       3.837   6.321  19.447  0.00  0.00    +0.000 C 
ATOM     12  N   UNL     1       2.369   6.295  19.263  0.00  0.00    +0.000 NA
ATOM     13  C   UNL     1       2.034   4.958  18.704  0.00  0.00    +0.000 C 
ATOM     14  C   UNL     1       3.353   4.230  18.439  0.00  0.00    +0.000 C 
ATOM     15  O   UNL     1       3.745   4.517  17.090  0.00  0.00    +0.000 OA
ENDROOT
BRANCH  12  16
ATOM     16  C   UNL     1       1.932   7.401  18.393  0.00  0.00    +0.000 C 
BRANCH  16  17
ATOM     17  C   UNL     1       1.489   8.634  19.163  0.00  0.00    +0.000 A 
ATOM     18  C   UNL     1       1.402   9.872  18.505  0.00  0.00    +0.000 A 
ATOM     19  C   UNL     1       0.937  11.020  19.158  0.00  0.00    +0.000 A 
ATOM     20  C   UNL     1       0.556  10.919  20.506  0.00  0.00    +0.000 A 
ATOM     21  C   UNL     1       0.027  11.792  21.483  0.00  0.00    +0.000 A 
ATOM     22  N   UNL     1      -0.173  11.191  22.658  0.00  0.00    +0.000 NA
ATOM     23  N   UNL     1       0.229   9.927  22.431  0.00  0.00    +0.000 N 
ATOM     24  C   UNL     1       0.672   9.698  21.154  0.00  0.00    +0.000 A 
ATOM     25  C   UNL     1       1.143   8.539  20.525  0.00  0.00    +0.000 A 
ATOM     26  H   UNL     1       0.166   9.259  23.191  0.00  0.00    +0.000 HD
ENDBRANCH  16  17
ENDBRANCH  12  16
TORSDOF 2
ENDMDL
MODEL 6
REMARK VINA RESULT:      -7.7      1.093      1.423
REMARK  Name = 
REMARK  2 active torsions:
REMARK  status: ('A' for Active; 'I' for Inactive)
REMARK    1  A    between atoms: N_12  and  C_13
REMARK    2  A    between atoms: C_13  and  C_14
REMARK                            x       y       z     vdW  Elec       q    Type
REMARK                         _______ _______ _______ _____ _____    ______ ____
ROOT
ATOM      1  F   UNL     1       8.951   6.211  12.726  0.00  0.00    +0.000 F 
ATOM      2  C   UNL     1       7.936   5.366  12.959  0.00  0.00    +0.000 A 
ATOM      3  C   UNL     1       7.353   4.708  11.876  0.00  0.00    +0.000 A 
ATOM      4  C   UNL     1       6.281   3.845  12.095  0.00  0.00    +0.000 A 
ATOM      5  C   UNL     1       5.816   3.647  13.393  0.00  0.00    +0.000 A 
ATOM      6  F   UNL     1       4.779   2.820  13.586  0.00  0.00    +0.000 F 
ATOM      7  C   UNL     1       6.407   4.296  14.481  0.00  0.00    +0.000 A 
ATOM      8  C   UNL     1       7.463   5.177  14.260  0.00  0.00    +0.000 A 
ATOM      9  O   UNL     1       8.062   5.901  15.253  0.00  0.00    +0.000 OA
ATOM     10  C   UNL     1       7.389   5.839  16.505  0.00  0.00    +0.000 C 
ATOM     11  C   UNL     1       6.253   6.850  16.652  0.00  0.00    +0.000 C 
ATOM     12  N   UNL     1       5.445   6.357  17.790  0.00  0.00    +0.000 NA
ATOM     13  C   UNL     1       5.767   4.914  17.948  0.00  0.00    +0.000 C 
ATOM     14  C   UNL     1       6.694   4.523  16.794  0.00  0.00    +0.000 C 
ATOM     15  O   UNL     1       5.873   4.057  15.715  0.00  0.00    +0.000 OA
ENDROOT
BRANCH  12  16
ATOM     16  C   UNL     1       4.010   6.597  17.554  0.00  0.00    +0.000 C 
BRANCH  16  17
ATOM     17  C   UNL     1       3.106   5.679  18.360  0.00  0.00    +0.000 A 
ATOM     18  C   UNL     1       2.717   6.049  19.658  0.00  0.00    +0.000 A 
ATOM     19  C   UNL     1       1.834   5.266  20.412  0.00  0.00    +0.000 A 
ATOM     20  C   UNL     1       1.336   4.082  19.846  0.00  0.00    +0.000 A 
ATOM     21  C   UNL     1       0.437   3.064  20.240  0.00  0.00    +0.000 A 
ATOM     22  N   UNL     1       0.289   2.119  19.309  0.00  0.00    +0.000 NA
ATOM     23  N   UNL     1       1.095   2.534  18.314  0.00  0.00    +0.000 N 
ATOM     24  C   UNL     1       1.747   3.711  18.573  0.00  0.00    +0.000 A 
ATOM     25  C   UNL     1       2.637   4.473  17.805  0.00  0.00    +0.000 A 
ATOM     26  H   UNL     1       1.150   1.971  17.473  0.00  0.00    +0.000 HD
ENDBRANCH  16  17
ENDBRANCH  12  16
TORSDOF 2
ENDMDL
MODEL 7
REMARK VINA RESULT:      -7.7      3.161      7.290
REMARK  Name = 
REMARK  2 active torsions:
REMARK  status: ('A' for Active; 'I' for Inactive)
REMARK    1  A    between atoms: N_12  and  C_13
REMARK    2  A    between atoms: C_13  and  C_14
REMARK                            x       y       z     vdW  Elec       q    Type
REMARK                         _______ _______ _______ _____ _____    ______ ____
ROOT
ATOM      1  F   UNL     1       2.147   4.096  22.053  0.00  0.00    +0.000 F 
ATOM      2  C   UNL     1       2.177   3.602  20.806  0.00  0.00    +0.000 A 
ATOM      3  C   UNL     1       1.591   2.360  20.566  0.00  0.00    +0.000 A 
ATOM      4  C   UNL     1       1.632   1.820  19.282  0.00  0.00    +0.000 A 
ATOM      5  C   UNL     1       2.252   2.534  18.259  0.00  0.00    +0.000 A 
ATOM      6  F   UNL     1       2.290   1.997  17.031  0.00  0.00    +0.000 F 
ATOM      7  C   UNL     1       2.829   3.786  18.495  0.00  0.00    +0.000 A 
ATOM      8  C   UNL     1       2.808   4.315  19.784  0.00  0.00    +0.000 A 
ATOM      9  O   UNL     1       3.400   5.501  20.121  0.00  0.00    +0.000 OA
ATOM     10  C   UNL     1       4.215   6.056  19.097  0.00  0.00    +0.000 C 
ATOM     11  C   UNL     1       5.644   5.516  19.077  0.00  0.00    +0.000 C 
ATOM     12  N   UNL     1       6.173   5.877  17.742  0.00  0.00    +0.000 NA
ATOM     13  C   UNL     1       4.994   6.126  16.870  0.00  0.00    +0.000 C 
ATOM     14  C   UNL     1       3.743   5.782  17.682  0.00  0.00    +0.000 C 
ATOM     15  O   UNL     1       3.431   4.405  17.437  0.00  0.00    +0.000 OA
ENDROOT
BRANCH  12  16
ATOM     16  C   UNL     1       7.049   4.812  17.223  0.00  0.00    +0.000 C 
BRANCH  16  17
ATOM     17  C   UNL     1       6.977   4.656  15.713  0.00  0.00    +0.000 A 
ATOM     18  C   UNL     1       7.763   5.480  14.890  0.00  0.00    +0.000 A 
ATOM     19  C   UNL     1       7.777   5.328  13.497  0.00  0.00    +0.000 A 
ATOM     20  C   UNL     1       6.977   4.328  12.923  0.00  0.00    +0.000 A 
ATOM     21  C   UNL     1       6.736   3.842  11.617  0.00  0.00    +0.000 A 
ATOM     22  N   UNL     1       5.859   2.835  11.596  0.00  0.00    +0.000 NA
ATOM     23  N   UNL     1       5.540   2.675  12.894  0.00  0.00    +0.000 N 
ATOM     24  C   UNL     1       6.184   3.537  13.742  0.00  0.00    +0.000 A 
ATOM     25  C   UNL     1       6.147   3.677  15.135  0.00  0.00    +0.000 A 
ATOM     26  H   UNL     1       4.879   1.947  13.140  0.00  0.00    +0.000 HD
ENDBRANCH  16  17
ENDBRANCH  12  16
TORSDOF 2
ENDMDL
MODEL 8
REMARK VINA RESULT:      -7.6      4.173      5.135
REMARK  Name = 
REMARK  2 active torsions:
REMARK  status: ('A' for Active; 'I' for Inactive)
REMARK    1  A    between atoms: N_12  and  C_13
REMARK    2  A    between atoms: C_13  and  C_14
REMARK                            x       y       z     vdW  Elec       q    Type
REMARK                         _______ _______ _______ _____ _____    ______ ____
ROOT
ATOM      1  F   UNL     1       8.377   4.398  18.186  0.00  0.00    +0.000 F 
ATOM      2  C   UNL     1       7.417   4.499  17.254  0.00  0.00    +0.000 A 
ATOM      3  C   UNL     1       7.795   4.652  15.921  0.00  0.00    +0.000 A 
ATOM      4  C   UNL     1       6.813   4.783  14.942  0.00  0.00    +0.000 A 
ATOM      5  C   UNL     1       5.470   4.751  15.310  0.00  0.00    +0.000 A 
ATOM      6  F   UNL     1       4.537   4.886  14.357  0.00  0.00    +0.000 F 
ATOM      7  C   UNL     1       5.089   4.585  16.645  0.00  0.00    +0.000 A 
ATOM      8  C   UNL     1       6.071   4.478  17.628  0.00  0.00    +0.000 A 
ATOM      9  O   UNL     1       5.794   4.375  18.962  0.00  0.00    +0.000 OA
ATOM     10  C   UNL     1       4.427   4.591  19.291  0.00  0.00    +0.000 C 
ATOM     11  C   UNL     1       4.055   6.061  19.475  0.00  0.00    +0.000 C 
ATOM     12  N   UNL     1       2.578   6.098  19.389  0.00  0.00    +0.000 NA
ATOM     13  C   UNL     1       2.161   4.856  18.686  0.00  0.00    +0.000 C 
ATOM     14  C   UNL     1       3.435   4.134  18.240  0.00  0.00    +0.000 C 
ATOM     15  O   UNL     1       3.750   4.585  16.916  0.00  0.00    +0.000 OA
ENDROOT
BRANCH  12  16
ATOM     16  C   UNL     1       2.126   7.320  18.700  0.00  0.00    +0.000 C 
BRANCH  16  17
ATOM     17  C   UNL     1       1.469   8.327  19.630  0.00  0.00    +0.000 A 
ATOM     18  C   UNL     1       1.333   8.028  20.996  0.00  0.00    +0.000 A 
ATOM     19  C   UNL     1       0.793   8.952  21.899  0.00  0.00    +0.000 A 
ATOM     20  C   UNL     1       0.375  10.201  21.414  0.00  0.00    +0.000 A 
ATOM     21  C   UNL     1      -0.172  11.379  21.971  0.00  0.00    +0.000 A 
ATOM     22  N   UNL     1      -0.399  12.325  21.057  0.00  0.00    +0.000 NA
ATOM     23  N   UNL     1       0.006  11.751  19.910  0.00  0.00    +0.000 N 
ATOM     24  C   UNL     1       0.489  10.476  20.059  0.00  0.00    +0.000 A 
ATOM     25  C   UNL     1       1.017   9.565  19.135  0.00  0.00    +0.000 A 
ATOM     26  H   UNL     1      -0.063  12.287  19.053  0.00  0.00    +0.000 HD
ENDBRANCH  16  17
ENDBRANCH  12  16
TORSDOF 2
ENDMDL
MODEL 9
REMARK VINA RESULT:      -7.6      3.085      7.178
REMARK  Name = 
REMARK  2 active torsions:
REMARK  status: ('A' for Active; 'I' for Inactive)
REMARK    1  A    between atoms: N_12  and  C_13
REMARK    2  A    between atoms: C_13  and  C_14
REMARK                            x       y       z     vdW  Elec       q    Type
REMARK                         _______ _______ _______ _____ _____    ______ ____
ROOT
ATOM      1  F   UNL     1       1.351   3.855  21.662  0.00  0.00    +0.000 F 
ATOM      2  C   UNL     1       1.602   3.469  20.403  0.00  0.00    +0.000 A 
ATOM      3  C   UNL     1       1.086   2.251  19.962  0.00  0.00    +0.000 A 
ATOM      4  C   UNL     1       1.356   1.821  18.665  0.00  0.00    +0.000 A 
ATOM      5  C   UNL     1       2.132   2.620  17.827  0.00  0.00    +0.000 A 
ATOM      6  F   UNL     1       2.389   2.188  16.584  0.00  0.00    +0.000 F 
ATOM      7  C   UNL     1       2.640   3.847  18.263  0.00  0.00    +0.000 A 
ATOM      8  C   UNL     1       2.389   4.266  19.568  0.00  0.00    +0.000 A 
ATOM      9  O   UNL     1       2.896   5.419  20.099  0.00  0.00    +0.000 OA
ATOM     10  C   UNL     1       3.867   6.060  19.281  0.00  0.00    +0.000 C 
ATOM     11  C   UNL     1       5.285   5.525  19.464  0.00  0.00    +0.000 C 
ATOM     12  N   UNL     1       6.031   5.997  18.276  0.00  0.00    +0.000 NA
ATOM     13  C   UNL     1       5.017   6.318  17.236  0.00  0.00    +0.000 C 
ATOM     14  C   UNL     1       3.650   5.905  17.789  0.00  0.00    +0.000 C 
ATOM     15  O   UNL     1       3.406   4.553  17.379  0.00  0.00    +0.000 OA
ENDROOT
BRANCH  12  16
ATOM     16  C   UNL     1       7.000   4.980  17.829  0.00  0.00    +0.000 C 
BRANCH  16  17
ATOM     17  C   UNL     1       6.844   4.602  16.365  0.00  0.00    +0.000 A 
ATOM     18  C   UNL     1       5.915   3.616  15.995  0.00  0.00    +0.000 A 
ATOM     19  C   UNL     1       5.693   3.282  14.653  0.00  0.00    +0.000 A 
ATOM     20  C   UNL     1       6.428   3.953  13.664  0.00  0.00    +0.000 A 
ATOM     21  C   UNL     1       6.483   3.939  12.251  0.00  0.00    +0.000 A 
ATOM     22  N   UNL     1       7.380   4.799  11.762  0.00  0.00    +0.000 NA
ATOM     23  N   UNL     1       7.899   5.367  12.866  0.00  0.00    +0.000 N 
ATOM     24  C   UNL     1       7.364   4.906  14.041  0.00  0.00    +0.000 A 
ATOM     25  C   UNL     1       7.609   5.249  15.376  0.00  0.00    +0.000 A 
ATOM     26  H   UNL     1       8.614   6.076  12.751  0.00  0.00    +0.000 HD
ENDBRANCH  16  17
ENDBRANCH  12  16
TORSDOF 2
ENDMDL
