MODEL 1
REMARK VINA RESULT:      -8.2      0.000      0.000
REMARK  Name = 
REMARK  9 active torsions:
REMARK  status: ('A' for Active; 'I' for Inactive)
REMARK    1  A    between atoms: C_1  and  O_2
REMARK    2  A    between atoms: O_2  and  C_3
REMARK    3  A    between atoms: C_7  and  N_8
REMARK    4  A    between atoms: C_9  and  C_11
REMARK    5  A    between atoms: C_11  and  N_12
REMARK    6  A    between atoms: C_11  and  C_24
REMARK    7  A    between atoms: N_12  and  C_13
REMARK    8  A    between atoms: C_13  and  C_14
REMARK    9  A    between atoms: N_22  and  C_23
REMARK                            x       y       z     vdW  Elec       q    Type
REMARK                         _______ _______ _______ _____ _____    ______ ____
ROOT
ATOM      1  C   UNL     1       3.080   6.693  17.650  0.00  0.00    +0.000 C 
ENDROOT
BRANCH   1   2
ATOM      2  C   UNL     1       2.752   5.326  18.280  0.00  0.00    +0.000 A 
ATOM      3  C   UNL     1       3.551   4.829  19.326  0.00  0.00    +0.000 A 
ATOM      4  C   UNL     1       3.312   3.564  19.873  0.00  0.00    +0.000 A 
ATOM      5  C   UNL     1       2.247   2.789  19.420  0.00  0.00    +0.000 A 
ATOM      6  C   UNL     1       1.432   3.267  18.405  0.00  0.00    +0.000 A 
ATOM      7  C   UNL     1       1.701   4.505  17.826  0.00  0.00    +0.000 A 
ENDBRANCH   1   2
BRANCH   1   9
ATOM      8  N   UNL     1       1.795   8.860  17.696  0.00  0.00    +0.000 N 
ATOM      9  C   UNL     1       2.335   7.815  18.468  0.00  0.00    +0.000 C 
ATOM     10  O   UNL     1       2.217   7.719  19.689  0.00  0.00    +0.000 OA
ATOM     11  H   UNL     1       1.947   8.834  16.706  0.00  0.00    +0.000 HD
BRANCH   8  16
ATOM     12  C   UNL     1      -1.384  10.691  18.352  0.00  0.00    +0.000 A 
ATOM     13  C   UNL     1      -0.971  11.734  19.174  0.00  0.00    +0.000 A 
ATOM     14  C   UNL     1       0.385  11.883  19.452  0.00  0.00    +0.000 A 
ATOM     15  C   UNL     1       1.322  10.964  18.950  0.00  0.00    +0.000 A 
ATOM     16  C   UNL     1       0.918   9.894  18.156  0.00  0.00    +0.000 A 
ATOM     17  C   UNL     1      -0.441   9.793  17.827  0.00  0.00    +0.000 A 
BRANCH  12  19
ATOM     18  C   UNL     1      -3.048  10.632  16.641  0.00  0.00    +0.000 C 
ATOM     19  O   UNL     1      -2.687  10.441  18.009  0.00  0.00    +0.000 OA
ENDBRANCH  12  19
ENDBRANCH   8  16
ENDBRANCH   1   9
BRANCH   1  20
ATOM     20  N   UNL     1       4.558   7.024  17.609  0.00  0.00    +0.000 NA
ATOM     21  H   UNL     1       4.992   6.488  18.371  0.00  0.00    +0.000 HD
BRANCH  20  22
ATOM     22  C   UNL     1       5.147   6.675  16.304  0.00  0.00    +0.000 C 
BRANCH  22  23
ATOM     23  C   UNL     1       6.032   5.433  16.221  0.00  0.00    +0.000 A 
ATOM     24  N   UNL     1       7.267   5.580  15.749  0.00  0.00    +0.000 NA
ATOM     25  C   UNL     1       7.145   5.026  14.500  0.00  0.00    +0.000 A 
ATOM     26  C   UNL     1       7.822   5.328  13.319  0.00  0.00    +0.000 A 
ATOM     27  C   UNL     1       7.369   4.724  12.139  0.00  0.00    +0.000 A 
ATOM     28  C   UNL     1       6.343   3.770  12.164  0.00  0.00    +0.000 A 
ATOM     29  C   UNL     1       5.703   3.405  13.350  0.00  0.00    +0.000 A 
ATOM     30  C   UNL     1       6.093   4.114  14.486  0.00  0.00    +0.000 A 
ATOM     31  N   UNL     1       5.614   4.196  15.771  0.00  0.00    +0.000 N 
ATOM     32  C   UNL     1       5.057   3.110  16.540  0.00  0.00    +0.000 C 
ENDBRANCH  22  23
ENDBRANCH  20  22
ENDBRANCH   1  20
TORSDOF 7
ENDMDL
MODEL 2
REMARK VINA RESULT:      -8.2      2.996      5.696
REMARK  Name = 
REMARK  9 active torsions:
REMARK  status: ('A' for Active; 'I' for Inactive)
REMARK    1  A    between atoms: C_1  and  O_2
REMARK    2  A    between atoms: O_2  and  C_3
REMARK    3  A    between atoms: C_7  and  N_8
REMARK    4  A    between atoms: C_9  and  C_11
REMARK    5  A    between atoms: C_11  and  N_12
REMARK    6  A    between atoms: C_11  and  C_24
REMARK    7  A    between atoms: N_12  and  C_13
REMARK    8  A    between atoms: C_13  and  C_14
REMARK    9  A    between atoms: N_22  and  C_23
REMARK                            x       y       z     vdW  Elec       q    Type
REMARK                         _______ _______ _______ _____ _____    ______ ____
ROOT
ATOM      1  C   UNL     1       4.219   4.861  18.308  0.00  0.00    +0.000 C 
ENDROOT
BRANCH   1   2
ATOM      2  C   UNL     1       5.485   5.735  18.221  0.00  0.00    +0.000 A 
ATOM      3  C   UNL     1       5.543   6.790  17.293  0.00  0.00    +0.000 A 
ATOM      4  C   UNL     1       6.704   7.558  17.151  0.00  0.00    +0.000 A 
ATOM      5  C   UNL     1       7.811   7.319  17.962  0.00  0.00    +0.000 A 
ATOM      6  C   UNL     1       7.769   6.299  18.899  0.00  0.00    +0.000 A 
ATOM      7  C   UNL     1       6.632   5.502  19.005  0.00  0.00    +0.000 A 
ENDBRANCH   1   2
BRANCH   1   9
ATOM      8  N   UNL     1       2.985   6.709  19.497  0.00  0.00    +0.000 N 
ATOM      9  C   UNL     1       2.963   5.807  18.417  0.00  0.00    +0.000 C 
ATOM     10  O   UNL     1       2.072   5.758  17.570  0.00  0.00    +0.000 OA
ATOM     11  H   UNL     1       3.765   6.665  20.125  0.00  0.00    +0.000 HD
BRANCH   8  16
ATOM     12  C   UNL     1       0.620   8.954  21.303  0.00  0.00    +0.000 A 
ATOM     13  C   UNL     1       0.425   9.986  20.391  0.00  0.00    +0.000 A 
ATOM     14  C   UNL     1       1.018   9.904  19.135  0.00  0.00    +0.000 A 
ATOM     15  C   UNL     1       1.843   8.816  18.805  0.00  0.00    +0.000 A 
ATOM     16  C   UNL     1       2.077   7.793  19.720  0.00  0.00    +0.000 A 
ATOM     17  C   UNL     1       1.420   7.853  20.958  0.00  0.00    +0.000 A 
BRANCH  12  19
ATOM     18  C   UNL     1      -0.579  10.098  23.021  0.00  0.00    +0.000 C 
ATOM     19  O   UNL     1       0.092   8.923  22.566  0.00  0.00    +0.000 OA
ENDBRANCH  12  19
ENDBRANCH   8  16
ENDBRANCH   1   9
BRANCH   1  20
ATOM     20  N   UNL     1       4.022   3.928  17.131  0.00  0.00    +0.000 NA
ATOM     21  H   UNL     1       4.475   4.382  16.328  0.00  0.00    +0.000 HD
BRANCH  20  22
ATOM     22  C   UNL     1       4.606   2.602  17.398  0.00  0.00    +0.000 C 
BRANCH  22  23
ATOM     23  C   UNL     1       3.946   1.723  18.458  0.00  0.00    +0.000 A 
ATOM     24  N   UNL     1       2.661   1.417  18.301  0.00  0.00    +0.000 NA
ATOM     25  C   UNL     1       2.076   2.220  19.246  0.00  0.00    +0.000 A 
ATOM     26  C   UNL     1       0.813   2.814  19.256  0.00  0.00    +0.000 A 
ATOM     27  C   UNL     1       0.540   3.737  20.273  0.00  0.00    +0.000 A 
ATOM     28  C   UNL     1       1.461   3.973  21.301  0.00  0.00    +0.000 A 
ATOM     29  C   UNL     1       2.702   3.333  21.343  0.00  0.00    +0.000 A 
ATOM     30  C   UNL     1       2.992   2.515  20.252  0.00  0.00    +0.000 A 
ATOM     31  N   UNL     1       4.123   1.864  19.821  0.00  0.00    +0.000 N 
ATOM     32  C   UNL     1       5.112   1.234  20.661  0.00  0.00    +0.000 C 
ENDBRANCH  22  23
ENDBRANCH  20  22
ENDBRANCH   1  20
TORSDOF 7
ENDMDL
MODEL 3
REMARK VINA RESULT:      -8.0      1.047      1.806
REMARK  Name = 
REMARK  9 active torsions:
REMARK  status: ('A' for Active; 'I' for Inactive)
REMARK    1  A    between atoms: C_1  and  O_2
REMARK    2  A    between atoms: O_2  and  C_3
REMARK    3  A    between atoms: C_7  and  N_8
REMARK    4  A    between atoms: C_9  and  C_11
REMARK    5  A    between atoms: C_11  and  N_12
REMARK    6  A    between atoms: C_11  and  C_24
REMARK    7  A    between atoms: N_12  and  C_13
REMARK    8  A    between atoms: C_13  and  C_14
REMARK    9  A    between atoms: N_22  and  C_23
REMARK                            x       y       z     vdW  Elec       q    Type
REMARK                         _______ _______ _______ _____ _____    ______ ____
ROOT
ATOM      1  C   UNL     1       3.013   6.785  17.651  0.00  0.00    +0.000 C 
ENDROOT
BRANCH   1   2
ATOM      2  C   UNL     1       2.684   5.422  18.292  0.00  0.00    +0.000 A 
ATOM      3  C   UNL     1       3.437   4.967  19.388  0.00  0.00    +0.000 A 
ATOM      4  C   UNL     1       3.200   3.706  19.948  0.00  0.00    +0.000 A 
ATOM      5  C   UNL     1       2.179   2.896  19.454  0.00  0.00    +0.000 A 
ATOM      6  C   UNL     1       1.410   3.334  18.387  0.00  0.00    +0.000 A 
ATOM      7  C   UNL     1       1.680   4.567  17.798  0.00  0.00    +0.000 A 
ENDBRANCH   1   2
BRANCH   1   9
ATOM      8  N   UNL     1       1.677   8.921  17.668  0.00  0.00    +0.000 N 
ATOM      9  C   UNL     1       2.260   7.912  18.456  0.00  0.00    +0.000 C 
ATOM     10  O   UNL     1       2.173   7.849  19.681  0.00  0.00    +0.000 OA
ATOM     11  H   UNL     1       1.806   8.871  16.676  0.00  0.00    +0.000 HD
BRANCH   8  16
ATOM     12  C   UNL     1       0.550  12.220  18.989  0.00  0.00    +0.000 A 
ATOM     13  C   UNL     1      -0.832  12.146  18.852  0.00  0.00    +0.000 A 
ATOM     14  C   UNL     1      -1.407  10.966  18.390  0.00  0.00    +0.000 A 
ATOM     15  C   UNL     1      -0.601   9.876  18.022  0.00  0.00    +0.000 A 
ATOM     16  C   UNL     1       0.786   9.947  18.120  0.00  0.00    +0.000 A 
ATOM     17  C   UNL     1       1.350  11.117  18.650  0.00  0.00    +0.000 A 
BRANCH  12  19
ATOM     18  C   UNL     1       2.313  13.104  20.335  0.00  0.00    +0.000 C 
ATOM     19  O   UNL     1       1.230  13.324  19.430  0.00  0.00    +0.000 OA
ENDBRANCH  12  19
ENDBRANCH   8  16
ENDBRANCH   1   9
BRANCH   1  20
ATOM     20  N   UNL     1       4.490   7.119  17.617  0.00  0.00    +0.000 NA
ATOM     21  H   UNL     1       4.918   6.602  18.395  0.00  0.00    +0.000 HD
BRANCH  20  22
ATOM     22  C   UNL     1       5.092   6.742  16.326  0.00  0.00    +0.000 C 
BRANCH  22  23
ATOM     23  C   UNL     1       5.971   5.494  16.278  0.00  0.00    +0.000 A 
ATOM     24  N   UNL     1       7.217   5.629  15.831  0.00  0.00    +0.000 NA
ATOM     25  C   UNL     1       7.120   5.060  14.587  0.00  0.00    +0.000 A 
ATOM     26  C   UNL     1       7.825   5.345  13.417  0.00  0.00    +0.000 A 
ATOM     27  C   UNL     1       7.395   4.729  12.236  0.00  0.00    +0.000 A 
ATOM     28  C   UNL     1       6.364   3.781  12.249  0.00  0.00    +0.000 A 
ATOM     29  C   UNL     1       5.695   3.434  13.425  0.00  0.00    +0.000 A 
ATOM     30  C   UNL     1       6.064   4.154  14.560  0.00  0.00    +0.000 A 
ATOM     31  N   UNL     1       5.557   4.254  15.833  0.00  0.00    +0.000 N 
ATOM     32  C   UNL     1       4.976   3.180  16.602  0.00  0.00    +0.000 C 
ENDBRANCH  22  23
ENDBRANCH  20  22
ENDBRANCH   1  20
TORSDOF 7
ENDMDL
MODEL 4
REMARK VINA RESULT:      -8.0      2.654      5.357
REMARK  Name = 
REMARK  9 active torsions:
REMARK  status: ('A' for Active; 'I' for Inactive)
REMARK    1  A    between atoms: C_1  and  O_2
REMARK    2  A    between atoms: O_2  and  C_3
REMARK    3  A    between atoms: C_7  and  N_8
REMARK    4  A    between atoms: C_9  and  C_11
REMARK    5  A    between atoms: C_11  and  N_12
REMARK    6  A    between atoms: C_11  and  C_24
REMARK    7  A    between atoms: N_12  and  C_13
REMARK    8  A    between atoms: C_13  and  C_14
REMARK    9  A    between atoms: N_22  and  C_23
REMARK                            x       y       z     vdW  Elec       q    Type
REMARK                         _______ _______ _______ _____ _____    ______ ____
ROOT
ATOM      1  C   UNL     1       4.088   5.401  18.264  0.00  0.00    +0.000 C 
ENDROOT
BRANCH   1   2
ATOM      2  C   UNL     1       5.532   5.929  18.366  0.00  0.00    +0.000 A 
ATOM      3  C   UNL     1       5.981   6.913  17.467  0.00  0.00    +0.000 A 
ATOM      4  C   UNL     1       7.305   7.363  17.498  0.00  0.00    +0.000 A 
ATOM      5  C   UNL     1       8.194   6.874  18.454  0.00  0.00    +0.000 A 
ATOM      6  C   UNL     1       7.768   5.919  19.364  0.00  0.00    +0.000 A 
ATOM      7  C   UNL     1       6.463   5.435  19.300  0.00  0.00    +0.000 A 
ENDBRANCH   1   2
BRANCH   1   9
ATOM      8  N   UNL     1       2.547   6.779  19.705  0.00  0.00    +0.000 N 
ATOM      9  C   UNL     1       3.097   6.617  18.420  0.00  0.00    +0.000 C 
ATOM     10  O   UNL     1       2.886   7.372  17.472  0.00  0.00    +0.000 OA
ATOM     11  H   UNL     1       2.793   6.107  20.405  0.00  0.00    +0.000 HD
BRANCH   8  16
ATOM     12  C   UNL     1       0.650   9.986  19.592  0.00  0.00    +0.000 A 
ATOM     13  C   UNL     1       0.095  10.056  20.865  0.00  0.00    +0.000 A 
ATOM     14  C   UNL     1       0.412   9.074  21.799  0.00  0.00    +0.000 A 
ATOM     15  C   UNL     1       1.243   7.998  21.449  0.00  0.00    +0.000 A 
ATOM     16  C   UNL     1       1.779   7.895  20.168  0.00  0.00    +0.000 A 
ATOM     17  C   UNL     1       1.507   8.926  19.256  0.00  0.00    +0.000 A 
BRANCH  12  19
ATOM     18  C   UNL     1      -0.927  11.360  18.440  0.00  0.00    +0.000 C 
ATOM     19  O   UNL     1       0.413  10.889  18.590  0.00  0.00    +0.000 OA
ENDBRANCH  12  19
ENDBRANCH   8  16
ENDBRANCH   1   9
BRANCH   1  20
ATOM     20  N   UNL     1       3.774   4.685  16.966  0.00  0.00    +0.000 NA
ATOM     21  H   UNL     1       4.172   5.264  16.217  0.00  0.00    +0.000 HD
BRANCH  20  22
ATOM     22  C   UNL     1       4.344   3.326  16.956  0.00  0.00    +0.000 C 
BRANCH  22  23
ATOM     23  C   UNL     1       3.604   2.228  17.716  0.00  0.00    +0.000 A 
ATOM     24  N   UNL     1       2.280   2.177  17.603  0.00  0.00    +0.000 NA
ATOM     25  C   UNL     1       1.887   2.664  18.823  0.00  0.00    +0.000 A 
ATOM     26  C   UNL     1       0.743   3.382  19.172  0.00  0.00    +0.000 A 
ATOM     27  C   UNL     1       0.681   3.913  20.467  0.00  0.00    +0.000 A 
ATOM     28  C   UNL     1       1.681   3.641  21.408  0.00  0.00    +0.000 A 
ATOM     29  C   UNL     1       2.799   2.864  21.094  0.00  0.00    +0.000 A 
ATOM     30  C   UNL     1       2.891   2.454  19.764  0.00  0.00    +0.000 A 
ATOM     31  N   UNL     1       3.874   1.851  19.018  0.00  0.00    +0.000 N 
ATOM     32  C   UNL     1       4.788   0.835  19.480  0.00  0.00    +0.000 C 
ENDBRANCH  22  23
ENDBRANCH  20  22
ENDBRANCH   1  20
TORSDOF 7
ENDMDL
MODEL 5
REMARK VINA RESULT:      -7.9      1.463      1.891
REMARK  Name = 
REMARK  9 active torsions:
REMARK  status: ('A' for Active; 'I' for Inactive)
REMARK    1  A    between atoms: C_1  and  O_2
REMARK    2  A    between atoms: O_2  and  C_3
REMARK    3  A    between atoms: C_7  and  N_8
REMARK    4  A    between atoms: C_9  and  C_11
REMARK    5  A    between atoms: C_11  and  N_12
REMARK    6  A    between atoms: C_11  and  C_24
REMARK    7  A    between atoms: N_12  and  C_13
REMARK    8  A    between atoms: C_13  and  C_14
REMARK    9  A    between atoms: N_22  and  C_23
REMARK                            x       y       z     vdW  Elec       q    Type
REMARK                         _______ _______ _______ _____ _____    ______ ____
ROOT
ATOM      1  C   UNL     1       3.222   6.704  17.513  0.00  0.00    +0.000 C 
ENDROOT
BRANCH   1   2
ATOM      2  C   UNL     1       2.820   5.414  18.253  0.00  0.00    +0.000 A 
ATOM      3  C   UNL     1       1.752   4.636  17.772  0.00  0.00    +0.000 A 
ATOM      4  C   UNL     1       1.327   3.495  18.462  0.00  0.00    +0.000 A 
ATOM      5  C   UNL     1       1.987   3.083  19.617  0.00  0.00    +0.000 A 
ATOM      6  C   UNL     1       3.057   3.822  20.099  0.00  0.00    +0.000 A 
ATOM      7  C   UNL     1       3.446   4.985  19.440  0.00  0.00    +0.000 A 
ENDBRANCH   1   2
BRANCH   1   9
ATOM      8  N   UNL     1       1.929   7.721  19.421  0.00  0.00    +0.000 N 
ATOM      9  C   UNL     1       2.386   7.902  18.103  0.00  0.00    +0.000 C 
ATOM     10  O   UNL     1       2.210   8.923  17.440  0.00  0.00    +0.000 OA
ATOM     11  H   UNL     1       2.135   6.850  19.870  0.00  0.00    +0.000 HD
BRANCH   8  16
ATOM     12  C   UNL     1       0.025  10.784  20.364  0.00  0.00    +0.000 A 
ATOM     13  C   UNL     1      -0.110  10.646  21.741  0.00  0.00    +0.000 A 
ATOM     14  C   UNL     1       0.500   9.570  22.379  0.00  0.00    +0.000 A 
ATOM     15  C   UNL     1       1.205   8.607  21.638  0.00  0.00    +0.000 A 
ATOM     16  C   UNL     1       1.319   8.712  20.255  0.00  0.00    +0.000 A 
ATOM     17  C   UNL     1       0.758   9.836  19.631  0.00  0.00    +0.000 A 
BRANCH  12  19
ATOM     18  C   UNL     1      -1.954  11.871  19.589  0.00  0.00    +0.000 C 
ATOM     19  O   UNL     1      -0.529  11.796  19.626  0.00  0.00    +0.000 OA
ENDBRANCH  12  19
ENDBRANCH   8  16
ENDBRANCH   1   9
BRANCH   1  20
ATOM     20  N   UNL     1       4.695   7.047  17.609  0.00  0.00    +0.000 NA
ATOM     21  H   UNL     1       5.070   6.480  18.379  0.00  0.00    +0.000 HD
BRANCH  20  22
ATOM     22  C   UNL     1       5.392   6.763  16.343  0.00  0.00    +0.000 C 
BRANCH  22  23
ATOM     23  C   UNL     1       6.194   5.467  16.237  0.00  0.00    +0.000 A 
ATOM     24  N   UNL     1       7.408   5.530  15.697  0.00  0.00    +0.000 NA
ATOM     25  C   UNL     1       7.186   4.965  14.468  0.00  0.00    +0.000 A 
ATOM     26  C   UNL     1       7.815   5.206  13.246  0.00  0.00    +0.000 A 
ATOM     27  C   UNL     1       7.263   4.613  12.104  0.00  0.00    +0.000 A 
ATOM     28  C   UNL     1       6.184   3.724  12.202  0.00  0.00    +0.000 A 
ATOM     29  C   UNL     1       5.587   3.418  13.427  0.00  0.00    +0.000 A 
ATOM     30  C   UNL     1       6.081   4.120  14.527  0.00  0.00    +0.000 A 
ATOM     31  N   UNL     1       5.678   4.251  15.834  0.00  0.00    +0.000 N 
ATOM     32  C   UNL     1       5.099   3.214  16.652  0.00  0.00    +0.000 C 
ENDBRANCH  22  23
ENDBRANCH  20  22
ENDBRANCH   1  20
TORSDOF 7
ENDMDL
MODEL 6
REMARK VINA RESULT:      -7.8      2.535      3.225
REMARK  Name = 
REMARK  9 active torsions:
REMARK  status: ('A' for Active; 'I' for Inactive)
REMARK    1  A    between atoms: C_1  and  O_2
REMARK    2  A    between atoms: O_2  and  C_3
REMARK    3  A    between atoms: C_7  and  N_8
REMARK    4  A    between atoms: C_9  and  C_11
REMARK    5  A    between atoms: C_11  and  N_12
REMARK    6  A    between atoms: C_11  and  C_24
REMARK    7  A    between atoms: N_12  and  C_13
REMARK    8  A    between atoms: C_13  and  C_14
REMARK    9  A    between atoms: N_22  and  C_23
REMARK                            x       y       z     vdW  Elec       q    Type
REMARK                         _______ _______ _______ _____ _____    ______ ____
ROOT
ATOM      1  C   UNL     1       2.319   6.474  19.402  0.00  0.00    +0.000 C 
ENDROOT
BRANCH   1   2
ATOM      2  C   UNL     1       1.931   5.162  20.110  0.00  0.00    +0.000 A 
ATOM      3  C   UNL     1       2.693   4.705  21.200  0.00  0.00    +0.000 A 
ATOM      4  C   UNL     1       2.399   3.485  21.820  0.00  0.00    +0.000 A 
ATOM      5  C   UNL     1       1.314   2.722  21.396  0.00  0.00    +0.000 A 
ATOM      6  C   UNL     1       0.535   3.163  20.337  0.00  0.00    +0.000 A 
ATOM      7  C   UNL     1       0.859   4.351  19.688  0.00  0.00    +0.000 A 
ENDBRANCH   1   2
BRANCH   1   9
ATOM      8  N   UNL     1       1.420   8.826  19.329  0.00  0.00    +0.000 N 
ATOM      9  C   UNL     1       1.573   7.667  20.111  0.00  0.00    +0.000 C 
ATOM     10  O   UNL     1       1.132   7.534  21.252  0.00  0.00    +0.000 OA
ATOM     11  H   UNL     1       1.815   8.823  18.408  0.00  0.00    +0.000 HD
BRANCH   8  16
ATOM     12  C   UNL     1      -1.423  11.236  19.220  0.00  0.00    +0.000 A 
ATOM     13  C   UNL     1      -1.159  12.066  20.304  0.00  0.00    +0.000 A 
ATOM     14  C   UNL     1       0.012  11.880  21.033  0.00  0.00    +0.000 A 
ATOM     15  C   UNL     1       0.894  10.835  20.712  0.00  0.00    +0.000 A 
ATOM     16  C   UNL     1       0.626   9.973  19.652  0.00  0.00    +0.000 A 
ATOM     17  C   UNL     1      -0.522  10.213  18.882  0.00  0.00    +0.000 A 
BRANCH  12  19
ATOM     18  C   UNL     1      -2.924  10.143  17.720  0.00  0.00    +0.000 C 
ATOM     19  O   UNL     1      -2.538  11.320  18.430  0.00  0.00    +0.000 OA
ENDBRANCH  12  19
ENDBRANCH   8  16
ENDBRANCH   1   9
BRANCH   1  20
ATOM     20  N   UNL     1       3.806   6.766  19.398  0.00  0.00    +0.000 NA
ATOM     21  H   UNL     1       4.254   5.972  19.873  0.00  0.00    +0.000 HD
BRANCH  20  22
ATOM     22  C   UNL     1       4.314   6.928  18.025  0.00  0.00    +0.000 C 
BRANCH  22  23
ATOM     23  C   UNL     1       5.036   5.746  17.380  0.00  0.00    +0.000 A 
ATOM     24  N   UNL     1       4.407   5.089  16.409  0.00  0.00    +0.000 NA
ATOM     25  C   UNL     1       4.045   3.935  17.056  0.00  0.00    +0.000 A 
ATOM     26  C   UNL     1       2.944   3.103  16.850  0.00  0.00    +0.000 A 
ATOM     27  C   UNL     1       2.722   2.080  17.781  0.00  0.00    +0.000 A 
ATOM     28  C   UNL     1       3.632   1.837  18.817  0.00  0.00    +0.000 A 
ATOM     29  C   UNL     1       4.776   2.618  18.995  0.00  0.00    +0.000 A 
ATOM     30  C   UNL     1       4.903   3.702  18.127  0.00  0.00    +0.000 A 
ATOM     31  N   UNL     1       5.748   4.784  18.070  0.00  0.00    +0.000 N 
ATOM     32  C   UNL     1       7.150   4.786  18.408  0.00  0.00    +0.000 C 
ENDBRANCH  22  23
ENDBRANCH  20  22
ENDBRANCH   1  20
TORSDOF 7
ENDMDL
MODEL 7
REMARK VINA RESULT:      -7.8      2.579      8.738
REMARK  Name = 
REMARK  9 active torsions:
REMARK  status: ('A' for Active; 'I' for Inactive)
REMARK    1  A    between atoms: C_1  and  O_2
REMARK    2  A    between atoms: O_2  and  C_3
REMARK    3  A    between atoms: C_7  and  N_8
REMARK    4  A    between atoms: C_9  and  C_11
REMARK    5  A    between atoms: C_11  and  N_12
REMARK    6  A    between atoms: C_11  and  C_24
REMARK    7  A    between atoms: N_12  and  C_13
REMARK    8  A    between atoms: C_13  and  C_14
REMARK    9  A    between atoms: N_22  and  C_23
REMARK                            x       y       z     vdW  Elec       q    Type
REMARK                         _______ _______ _______ _____ _____    ______ ____
ROOT
ATOM      1  C   UNL     1       2.086   6.459  20.333  0.00  0.00    +0.000 C 
ENDROOT
BRANCH   1   2
ATOM      2  C   UNL     1       1.791   4.954  20.486  0.00  0.00    +0.000 A 
ATOM      3  C   UNL     1       2.278   4.258  21.606  0.00  0.00    +0.000 A 
ATOM      4  C   UNL     1       2.079   2.879  21.738  0.00  0.00    +0.000 A 
ATOM      5  C   UNL     1       1.351   2.178  20.778  0.00  0.00    +0.000 A 
ATOM      6  C   UNL     1       0.843   2.847  19.676  0.00  0.00    +0.000 A 
ATOM      7  C   UNL     1       1.086   4.210  19.521  0.00  0.00    +0.000 A 
ENDBRANCH   1   2
BRANCH   1   9
ATOM      8  N   UNL     1       3.995   5.660  18.895  0.00  0.00    +0.000 N 
ATOM      9  C   UNL     1       3.025   6.662  19.083  0.00  0.00    +0.000 C 
ATOM     10  O   UNL     1       2.855   7.617  18.327  0.00  0.00    +0.000 OA
ATOM     11  H   UNL     1       4.040   4.922  19.571  0.00  0.00    +0.000 HD
BRANCH   8  16
ATOM     12  C   UNL     1       6.868   6.205  16.584  0.00  0.00    +0.000 A 
ATOM     13  C   UNL     1       6.722   5.169  15.667  0.00  0.00    +0.000 A 
ATOM     14  C   UNL     1       5.619   4.326  15.765  0.00  0.00    +0.000 A 
ATOM     15  C   UNL     1       4.688   4.487  16.805  0.00  0.00    +0.000 A 
ATOM     16  C   UNL     1       4.840   5.497  17.751  0.00  0.00    +0.000 A 
ATOM     17  C   UNL     1       5.918   6.382  17.602  0.00  0.00    +0.000 A 
BRANCH  12  19
ATOM     18  C   UNL     1       7.875   8.130  17.575  0.00  0.00    +0.000 C 
ATOM     19  O   UNL     1       7.908   7.095  16.590  0.00  0.00    +0.000 OA
ENDBRANCH  12  19
ENDBRANCH   8  16
ENDBRANCH   1   9
BRANCH   1  20
ATOM     20  N   UNL     1       0.853   7.323  20.157  0.00  0.00    +0.000 NA
ATOM     21  H   UNL     1       0.058   6.675  20.089  0.00  0.00    +0.000 HD
BRANCH  20  22
ATOM     22  C   UNL     1       0.691   8.255  21.287  0.00  0.00    +0.000 C 
BRANCH  22  23
ATOM     23  C   UNL     1       1.021   9.728  21.059  0.00  0.00    +0.000 A 
ATOM     24  N   UNL     1       0.980  10.545  22.108  0.00  0.00    +0.000 NA
ATOM     25  C   UNL     1      -0.182  11.232  21.869  0.00  0.00    +0.000 A 
ATOM     26  C   UNL     1      -1.090  11.793  22.768  0.00  0.00    +0.000 A 
ATOM     27  C   UNL     1      -2.294  12.286  22.251  0.00  0.00    +0.000 A 
ATOM     28  C   UNL     1      -2.530  12.312  20.870  0.00  0.00    +0.000 A 
ATOM     29  C   UNL     1      -1.601  11.818  19.952  0.00  0.00    +0.000 A 
ATOM     30  C   UNL     1      -0.468  11.223  20.507  0.00  0.00    +0.000 A 
ATOM     31  N   UNL     1       0.569  10.482  19.993  0.00  0.00    +0.000 N 
ATOM     32  C   UNL     1       1.200  10.680  18.711  0.00  0.00    +0.000 C 
ENDBRANCH  22  23
ENDBRANCH  20  22
ENDBRANCH   1  20
TORSDOF 7
ENDMDL
MODEL 8
REMARK VINA RESULT:      -7.7      1.011      1.282
REMARK  Name = 
REMARK  9 active torsions:
REMARK  status: ('A' for Active; 'I' for Inactive)
REMARK    1  A    between atoms: C_1  and  O_2
REMARK    2  A    between atoms: O_2  and  C_3
REMARK    3  A    between atoms: C_7  and  N_8
REMARK    4  A    between atoms: C_9  and  C_11
REMARK    5  A    between atoms: C_11  and  N_12
REMARK    6  A    between atoms: C_11  and  C_24
REMARK    7  A    between atoms: N_12  and  C_13
REMARK    8  A    between atoms: C_13  and  C_14
REMARK    9  A    between atoms: N_22  and  C_23
REMARK                            x       y       z     vdW  Elec       q    Type
REMARK                         _______ _______ _______ _____ _____    ______ ____
ROOT
ATOM      1  C   UNL     1       3.077   7.055  17.478  0.00  0.00    +0.000 C 
ENDROOT
BRANCH   1   2
ATOM      2  C   UNL     1       2.489   5.990  18.425  0.00  0.00    +0.000 A 
ATOM      3  C   UNL     1       1.906   4.827  17.892  0.00  0.00    +0.000 A 
ATOM      4  C   UNL     1       1.310   3.876  18.727  0.00  0.00    +0.000 A 
ATOM      5  C   UNL     1       1.325   4.043  20.110  0.00  0.00    +0.000 A 
ATOM      6  C   UNL     1       1.914   5.171  20.659  0.00  0.00    +0.000 A 
ATOM      7  C   UNL     1       2.462   6.142  19.825  0.00  0.00    +0.000 A 
ENDBRANCH   1   2
BRANCH   1   9
ATOM      8  N   UNL     1       1.041   8.413  18.082  0.00  0.00    +0.000 N 
ATOM      9  C   UNL     1       2.424   8.447  17.823  0.00  0.00    +0.000 C 
ATOM     10  O   UNL     1       3.120   9.459  17.897  0.00  0.00    +0.000 OA
ATOM     11  H   UNL     1       0.574   7.531  17.998  0.00  0.00    +0.000 HD
BRANCH   8  16
ATOM     12  C   UNL     1      -1.543  11.096  18.175  0.00  0.00    +0.000 A 
ATOM     13  C   UNL     1      -1.549  11.467  19.515  0.00  0.00    +0.000 A 
ATOM     14  C   UNL     1      -0.635  10.880  20.386  0.00  0.00    +0.000 A 
ATOM     15  C   UNL     1       0.252   9.891  19.930  0.00  0.00    +0.000 A 
ATOM     16  C   UNL     1       0.245   9.484  18.598  0.00  0.00    +0.000 A 
ATOM     17  C   UNL     1      -0.634  10.130  17.716  0.00  0.00    +0.000 A 
BRANCH  12  19
ATOM     18  C   UNL     1      -2.779  10.725  16.166  0.00  0.00    +0.000 C 
ATOM     19  O   UNL     1      -2.393  11.600  17.226  0.00  0.00    +0.000 OA
ENDBRANCH  12  19
ENDBRANCH   8  16
ENDBRANCH   1   9
BRANCH   1  20
ATOM     20  N   UNL     1       4.583   7.194  17.552  0.00  0.00    +0.000 NA
ATOM     21  H   UNL     1       4.889   6.587  18.323  0.00  0.00    +0.000 HD
BRANCH  20  22
ATOM     22  C   UNL     1       5.218   6.807  16.280  0.00  0.00    +0.000 C 
BRANCH  22  23
ATOM     23  C   UNL     1       6.024   5.510  16.241  0.00  0.00    +0.000 A 
ATOM     24  N   UNL     1       7.261   5.562  15.756  0.00  0.00    +0.000 NA
ATOM     25  C   UNL     1       7.096   4.967  14.532  0.00  0.00    +0.000 A 
ATOM     26  C   UNL     1       7.780   5.180  13.335  0.00  0.00    +0.000 A 
ATOM     27  C   UNL     1       7.281   4.559  12.184  0.00  0.00    +0.000 A 
ATOM     28  C   UNL     1       6.199   3.672  12.253  0.00  0.00    +0.000 A 
ATOM     29  C   UNL     1       5.547   3.394  13.456  0.00  0.00    +0.000 A 
ATOM     30  C   UNL     1       5.989   4.122  14.560  0.00  0.00    +0.000 A 
ATOM     31  N   UNL     1       5.527   4.284  15.844  0.00  0.00    +0.000 N 
ATOM     32  C   UNL     1       4.911   3.266  16.659  0.00  0.00    +0.000 C 
ENDBRANCH  22  23
ENDBRANCH  20  22
ENDBRANCH   1  20
TORSDOF 7
ENDMDL
MODEL 9
REMARK VINA RESULT:      -7.7      2.131      3.143
REMARK  Name = 
REMARK  9 active torsions:
REMARK  status: ('A' for Active; 'I' for Inactive)
REMARK    1  A    between atoms: C_1  and  O_2
REMARK    2  A    between atoms: O_2  and  C_3
REMARK    3  A    between atoms: C_7  and  N_8
REMARK    4  A    between atoms: C_9  and  C_11
REMARK    5  A    between atoms: C_11  and  N_12
REMARK    6  A    between atoms: C_11  and  C_24
REMARK    7  A    between atoms: N_12  and  C_13
REMARK    8  A    between atoms: C_13  and  C_14
REMARK    9  A    between atoms: N_22  and  C_23
REMARK                            x       y       z     vdW  Elec       q    Type
REMARK                         _______ _______ _______ _____ _____    ______ ____
ROOT
ATOM      1  C   UNL     1       2.546   6.727  18.564  0.00  0.00    +0.000 C 
ENDROOT
BRANCH   1   2
ATOM      2  C   UNL     1       2.149   5.542  19.465  0.00  0.00    +0.000 A 
ATOM      3  C   UNL     1       1.103   4.687  19.074  0.00  0.00    +0.000 A 
ATOM      4  C   UNL     1       0.681   3.642  19.903  0.00  0.00    +0.000 A 
ATOM      5  C   UNL     1       1.323   3.402  21.116  0.00  0.00    +0.000 A 
ATOM      6  C   UNL     1       2.372   4.218  21.513  0.00  0.00    +0.000 A 
ATOM      7  C   UNL     1       2.757   5.289  20.710  0.00  0.00    +0.000 A 
ENDBRANCH   1   2
BRANCH   1   9
ATOM      8  N   UNL     1       1.460   8.954  18.103  0.00  0.00    +0.000 N 
ATOM      9  C   UNL     1       1.825   8.024  19.095  0.00  0.00    +0.000 C 
ATOM     10  O   UNL     1       1.576   8.152  20.293  0.00  0.00    +0.000 OA
ATOM     11  H   UNL     1       1.707   8.745  17.155  0.00  0.00    +0.000 HD
BRANCH   8  16
ATOM     12  C   UNL     1      -1.619  11.053  18.204  0.00  0.00    +0.000 A 
ATOM     13  C   UNL     1      -1.163  12.233  18.781  0.00  0.00    +0.000 A 
ATOM     14  C   UNL     1       0.192  12.370  19.069  0.00  0.00    +0.000 A 
ATOM     15  C   UNL     1       1.083  11.312  18.826  0.00  0.00    +0.000 A 
ATOM     16  C   UNL     1       0.636  10.111  18.282  0.00  0.00    +0.000 A 
ATOM     17  C   UNL     1      -0.719  10.009  17.934  0.00  0.00    +0.000 A 
BRANCH  12  19
ATOM     18  C   UNL     1      -3.164   9.961  16.749  0.00  0.00    +0.000 C 
ATOM     19  O   UNL     1      -2.925  10.801  17.878  0.00  0.00    +0.000 OA
ENDBRANCH  12  19
ENDBRANCH   8  16
ENDBRANCH   1   9
BRANCH   1  20
ATOM     20  N   UNL     1       4.036   6.993  18.502  0.00  0.00    +0.000 NA
ATOM     21  H   UNL     1       4.468   6.358  19.185  0.00  0.00    +0.000 HD
BRANCH  20  22
ATOM     22  C   UNL     1       4.563   6.763  17.146  0.00  0.00    +0.000 C 
BRANCH  22  23
ATOM     23  C   UNL     1       5.364   5.488  16.891  0.00  0.00    +0.000 A 
ATOM     24  N   UNL     1       4.837   4.573  16.082  0.00  0.00    +0.000 NA
ATOM     25  C   UNL     1       4.448   3.613  16.979  0.00  0.00    +0.000 A 
ATOM     26  C   UNL     1       3.389   2.706  16.916  0.00  0.00    +0.000 A 
ATOM     27  C   UNL     1       3.112   1.952  18.062  0.00  0.00    +0.000 A 
ATOM     28  C   UNL     1       3.935   2.027  19.193  0.00  0.00    +0.000 A 
ATOM     29  C   UNL     1       5.041   2.878  19.246  0.00  0.00    +0.000 A 
ATOM     30  C   UNL     1       5.216   3.705  18.136  0.00  0.00    +0.000 A 
ATOM     31  N   UNL     1       6.037   4.772  17.862  0.00  0.00    +0.000 N 
ATOM     32  C   UNL     1       7.405   4.924  18.294  0.00  0.00    +0.000 C 
ENDBRANCH  22  23
ENDBRANCH  20  22
ENDBRANCH   1  20
TORSDOF 7
ENDMDL
