MODEL 1
REMARK VINA RESULT:      -7.9      0.000      0.000
REMARK  Name = 
REMARK  4 active torsions:
REMARK  status: ('A' for Active; 'I' for Inactive)
REMARK    1  A    between atoms: C_1  and  C_2
REMARK    2  A    between atoms: C_2  and  C_3
REMARK    3  A    between atoms: C_3  and  N_4
REMARK    4  A    between atoms: N_12  and  C_13
REMARK                            x       y       z     vdW  Elec       q    Type
REMARK                         _______ _______ _______ _____ _____    ______ ____
ROOT
ATOM      1  C   UNL     1       3.146   1.757  18.171  0.00  0.00    +0.000 C 
ATOM      2  C   UNL     1       3.632   3.175  17.903  0.00  0.00    +0.000 C 
ATOM      3  N   UNL     1       4.669   3.596  18.810  0.00  0.00    +0.000 N 
ATOM      4  C   UNL     1       4.492   4.915  19.195  0.00  0.00    +0.000 C 
ATOM      5  O   UNL     1       5.389   5.537  19.741  0.00  0.00    +0.000 OA
ATOM      6  N   UNL     1       3.219   5.308  18.833  0.00  0.00    +0.000 N 
ATOM      7  C   UNL     1       2.582   4.226  18.250  0.00  0.00    +0.000 C 
ATOM      8  O   UNL     1       1.410   4.099  17.912  0.00  0.00    +0.000 OA
ATOM      9  H   UNL     1       5.623   3.247  18.739  0.00  0.00    +0.000 HD
ENDROOT
BRANCH   6  10
ATOM     10  C   UNL     1       2.669   6.618  18.982  0.00  0.00    +0.000 A 
ATOM     11  C   UNL     1       2.566   7.512  17.912  0.00  0.00    +0.000 A 
ATOM     12  C   UNL     1       1.963   8.773  18.067  0.00  0.00    +0.000 A 
ATOM     13  C   UNL     1       1.459   9.198  19.306  0.00  0.00    +0.000 A 
ATOM     14  C   UNL     1       1.603   8.333  20.400  0.00  0.00    +0.000 A 
ATOM     15  C   UNL     1       2.169   7.058  20.216  0.00  0.00    +0.000 A 
ATOM     16  C   UNL     1       1.278   8.703  21.783  0.00  0.00    +0.000 C 
ATOM     17  C   UNL     1       0.178   9.377  22.138  0.00  0.00    +0.000 C 
ATOM     18  C   UNL     1      -0.867   9.819  21.169  0.00  0.00    +0.000 C 
ATOM     19  C   UNL     1      -0.365  10.889  20.210  0.00  0.00    +0.000 C 
ATOM     20  C   UNL     1       0.932  10.610  19.429  0.00  0.00    +0.000 C 
ENDBRANCH   6  10
BRANCH   2  21
ATOM     21  C   UNL     1       3.969   3.441  16.423  0.00  0.00    +0.000 C 
BRANCH  21  22
ATOM     22  N   UNL     1       5.142   4.267  16.239  0.00  0.00    +0.000 N 
ATOM     23  C   UNL     1       5.166   5.581  15.870  0.00  0.00    +0.000 A 
ATOM     24  C   UNL     1       6.495   5.941  15.854  0.00  0.00    +0.000 A 
ATOM     25  C   UNL     1       7.188   4.775  16.231  0.00  0.00    +0.000 A 
ATOM     26  N   UNL     1       6.365   3.747  16.454  0.00  0.00    +0.000 NA
ENDBRANCH  21  22
ENDBRANCH   2  21
TORSDOF 3
ENDMDL
MODEL 2
REMARK VINA RESULT:      -7.9      1.520      3.346
REMARK  Name = 
REMARK  4 active torsions:
REMARK  status: ('A' for Active; 'I' for Inactive)
REMARK    1  A    between atoms: C_1  and  C_2
REMARK    2  A    between atoms: C_2  and  C_3
REMARK    3  A    between atoms: C_3  and  N_4
REMARK    4  A    between atoms: N_12  and  C_13
REMARK                            x       y       z     vdW  Elec       q    Type
REMARK                         _______ _______ _______ _____ _____    ______ ____
ROOT
ATOM      1  C   UNL     1       5.544   3.750  16.851  0.00  0.00    +0.000 C 
ATOM      2  C   UNL     1       4.421   4.140  17.803  0.00  0.00    +0.000 C 
ATOM      3  N   UNL     1       3.112   3.849  17.278  0.00  0.00    +0.000 N 
ATOM      4  C   UNL     1       2.218   4.865  17.573  0.00  0.00    +0.000 C 
ATOM      5  O   UNL     1       1.014   4.699  17.454  0.00  0.00    +0.000 OA
ATOM      6  N   UNL     1       2.932   5.964  18.005  0.00  0.00    +0.000 N 
ATOM      7  C   UNL     1       4.280   5.652  17.949  0.00  0.00    +0.000 C 
ATOM      8  O   UNL     1       5.257   6.375  18.112  0.00  0.00    +0.000 OA
ATOM      9  H   UNL     1       2.749   2.899  17.227  0.00  0.00    +0.000 HD
ENDROOT
BRANCH   6  10
ATOM     10  C   UNL     1       2.381   7.193  18.479  0.00  0.00    +0.000 A 
ATOM     11  C   UNL     1       2.044   8.243  17.618  0.00  0.00    +0.000 A 
ATOM     12  C   UNL     1       1.444   9.420  18.099  0.00  0.00    +0.000 A 
ATOM     13  C   UNL     1       1.176   9.602  19.465  0.00  0.00    +0.000 A 
ATOM     14  C   UNL     1       1.555   8.580  20.346  0.00  0.00    +0.000 A 
ATOM     15  C   UNL     1       2.115   7.391  19.842  0.00  0.00    +0.000 A 
ATOM     16  C   UNL     1       1.493   8.696  21.808  0.00  0.00    +0.000 C 
ATOM     17  C   UNL     1       0.462   9.230  22.472  0.00  0.00    +0.000 C 
ATOM     18  C   UNL     1      -0.764   9.758  21.806  0.00  0.00    +0.000 C 
ATOM     19  C   UNL     1      -0.492  11.001  20.970  0.00  0.00    +0.000 C 
ATOM     20  C   UNL     1       0.638  10.938  19.927  0.00  0.00    +0.000 C 
ENDBRANCH   6  10
BRANCH   2  21
ATOM     21  C   UNL     1       4.631   3.631  19.242  0.00  0.00    +0.000 C 
BRANCH  21  22
ATOM     22  N   UNL     1       3.398   3.285  19.916  0.00  0.00    +0.000 N 
ATOM     23  C   UNL     1       2.780   3.994  20.903  0.00  0.00    +0.000 A 
ATOM     24  C   UNL     1       1.634   3.293  21.207  0.00  0.00    +0.000 A 
ATOM     25  C   UNL     1       1.656   2.180  20.346  0.00  0.00    +0.000 A 
ATOM     26  N   UNL     1       2.739   2.165  19.565  0.00  0.00    +0.000 NA
ENDBRANCH  21  22
ENDBRANCH   2  21
TORSDOF 3
ENDMDL
MODEL 3
REMARK VINA RESULT:      -7.6      0.764      1.852
REMARK  Name = 
REMARK  4 active torsions:
REMARK  status: ('A' for Active; 'I' for Inactive)
REMARK    1  A    between atoms: C_1  and  C_2
REMARK    2  A    between atoms: C_2  and  C_3
REMARK    3  A    between atoms: C_3  and  N_4
REMARK    4  A    between atoms: N_12  and  C_13
REMARK                            x       y       z     vdW  Elec       q    Type
REMARK                         _______ _______ _______ _____ _____    ______ ____
ROOT
ATOM      1  C   UNL     1       3.522   1.671  18.206  0.00  0.00    +0.000 C 
ATOM      2  C   UNL     1       3.729   3.164  17.986  0.00  0.00    +0.000 C 
ATOM      3  N   UNL     1       4.834   3.696  18.741  0.00  0.00    +0.000 N 
ATOM      4  C   UNL     1       4.528   4.942  19.264  0.00  0.00    +0.000 C 
ATOM      5  O   UNL     1       5.402   5.672  19.705  0.00  0.00    +0.000 OA
ATOM      6  N   UNL     1       3.167   5.140  19.155  0.00  0.00    +0.000 N 
ATOM      7  C   UNL     1       2.609   4.003  18.594  0.00  0.00    +0.000 C 
ATOM      8  O   UNL     1       1.429   3.703  18.447  0.00  0.00    +0.000 OA
ATOM      9  H   UNL     1       5.802   3.516  18.482  0.00  0.00    +0.000 HD
ENDROOT
BRANCH   6  10
ATOM     10  C   UNL     1       2.458   6.328  19.508  0.00  0.00    +0.000 A 
ATOM     11  C   UNL     1       1.835   6.486  20.750  0.00  0.00    +0.000 A 
ATOM     12  C   UNL     1       1.197   7.689  21.101  0.00  0.00    +0.000 A 
ATOM     13  C   UNL     1       1.138   8.775  20.214  0.00  0.00    +0.000 A 
ATOM     14  C   UNL     1       1.713   8.613  18.946  0.00  0.00    +0.000 A 
ATOM     15  C   UNL     1       2.386   7.418  18.629  0.00  0.00    +0.000 A 
ATOM     16  C   UNL     1       1.586   9.592  17.859  0.00  0.00    +0.000 C 
ATOM     17  C   UNL     1       1.711  10.913  18.025  0.00  0.00    +0.000 C 
ATOM     18  C   UNL     1       2.017  11.555  19.337  0.00  0.00    +0.000 C 
ATOM     19  C   UNL     1       0.884  11.406  20.343  0.00  0.00    +0.000 C 
ATOM     20  C   UNL     1       0.335   9.993  20.611  0.00  0.00    +0.000 C 
ENDBRANCH   6  10
BRANCH   2  21
ATOM     21  C   UNL     1       3.751   3.569  16.500  0.00  0.00    +0.000 C 
BRANCH  21  22
ATOM     22  N   UNL     1       4.963   4.254  16.108  0.00  0.00    +0.000 N 
ATOM     23  C   UNL     1       5.116   5.595  15.906  0.00  0.00    +0.000 A 
ATOM     24  C   UNL     1       6.442   5.775  15.578  0.00  0.00    +0.000 A 
ATOM     25  C   UNL     1       6.999   4.483  15.610  0.00  0.00    +0.000 A 
ATOM     26  N   UNL     1       6.096   3.550  15.921  0.00  0.00    +0.000 NA
ENDBRANCH  21  22
ENDBRANCH   2  21
TORSDOF 3
ENDMDL
MODEL 4
REMARK VINA RESULT:      -7.2      0.766      1.005
REMARK  Name = 
REMARK  4 active torsions:
REMARK  status: ('A' for Active; 'I' for Inactive)
REMARK    1  A    between atoms: C_1  and  C_2
REMARK    2  A    between atoms: C_2  and  C_3
REMARK    3  A    between atoms: C_3  and  N_4
REMARK    4  A    between atoms: N_12  and  C_13
REMARK                            x       y       z     vdW  Elec       q    Type
REMARK                         _______ _______ _______ _____ _____    ______ ____
ROOT
ATOM      1  C   UNL     1       3.881   1.784  19.273  0.00  0.00    +0.000 C 
ATOM      2  C   UNL     1       4.055   3.120  18.562  0.00  0.00    +0.000 C 
ATOM      3  N   UNL     1       5.241   3.826  18.973  0.00  0.00    +0.000 N 
ATOM      4  C   UNL     1       4.997   5.183  19.099  0.00  0.00    +0.000 C 
ATOM      5  O   UNL     1       5.916   5.984  19.177  0.00  0.00    +0.000 OA
ATOM      6  N   UNL     1       3.632   5.385  19.089  0.00  0.00    +0.000 N 
ATOM      7  C   UNL     1       3.014   4.149  18.992  0.00  0.00    +0.000 C 
ATOM      8  O   UNL     1       1.826   3.860  19.086  0.00  0.00    +0.000 OA
ATOM      9  H   UNL     1       6.172   3.537  18.676  0.00  0.00    +0.000 HD
ENDROOT
BRANCH   6  10
ATOM     10  C   UNL     1       2.967   6.648  19.120  0.00  0.00    +0.000 A 
ATOM     11  C   UNL     1       2.886   7.479  17.997  0.00  0.00    +0.000 A 
ATOM     12  C   UNL     1       2.173   8.689  18.032  0.00  0.00    +0.000 A 
ATOM     13  C   UNL     1       1.530   9.129  19.200  0.00  0.00    +0.000 A 
ATOM     14  C   UNL     1       1.646   8.333  20.347  0.00  0.00    +0.000 A 
ATOM     15  C   UNL     1       2.326   7.103  20.281  0.00  0.00    +0.000 A 
ATOM     16  C   UNL     1       1.172   8.740  21.676  0.00  0.00    +0.000 C 
ATOM     17  C   UNL     1      -0.005   9.333  21.900  0.00  0.00    +0.000 C 
ATOM     18  C   UNL     1      -0.994   9.639  20.825  0.00  0.00    +0.000 C 
ATOM     19  C   UNL     1      -0.497  10.700  19.853  0.00  0.00    +0.000 C 
ATOM     20  C   UNL     1       0.882  10.495  19.200  0.00  0.00    +0.000 C 
ENDBRANCH   6  10
BRANCH   2  21
ATOM     21  C   UNL     1       3.896   3.027  17.033  0.00  0.00    +0.000 C 
BRANCH  21  22
ATOM     22  N   UNL     1       4.879   3.799  16.304  0.00  0.00    +0.000 N 
ATOM     23  C   UNL     1       6.086   3.361  15.845  0.00  0.00    +0.000 A 
ATOM     24  C   UNL     1       6.651   4.434  15.192  0.00  0.00    +0.000 A 
ATOM     25  C   UNL     1       5.704   5.467  15.313  0.00  0.00    +0.000 A 
ATOM     26  N   UNL     1       4.625   5.087  16.003  0.00  0.00    +0.000 NA
ENDBRANCH  21  22
ENDBRANCH   2  21
TORSDOF 3
ENDMDL
MODEL 5
REMARK VINA RESULT:      -7.2      2.853      7.611
REMARK  Name = 
REMARK  4 active torsions:
REMARK  status: ('A' for Active; 'I' for Inactive)
REMARK    1  A    between atoms: C_1  and  C_2
REMARK    2  A    between atoms: C_2  and  C_3
REMARK    3  A    between atoms: C_3  and  N_4
REMARK    4  A    between atoms: N_12  and  C_13
REMARK                            x       y       z     vdW  Elec       q    Type
REMARK                         _______ _______ _______ _____ _____    ______ ____
ROOT
ATOM      1  C   UNL     1       3.065   7.227  19.498  0.00  0.00    +0.000 C 
ATOM      2  C   UNL     1       3.358   5.979  18.675  0.00  0.00    +0.000 C 
ATOM      3  N   UNL     1       4.381   5.148  19.258  0.00  0.00    +0.000 N 
ATOM      4  C   UNL     1       5.227   4.641  18.286  0.00  0.00    +0.000 C 
ATOM      5  O   UNL     1       5.986   3.717  18.533  0.00  0.00    +0.000 OA
ATOM      6  N   UNL     1       5.009   5.333  17.112  0.00  0.00    +0.000 N 
ATOM      7  C   UNL     1       4.050   6.302  17.354  0.00  0.00    +0.000 C 
ATOM      8  O   UNL     1       3.662   7.214  16.633  0.00  0.00    +0.000 OA
ATOM      9  H   UNL     1       4.206   4.575  20.081  0.00  0.00    +0.000 HD
ENDROOT
BRANCH   6  10
ATOM     10  C   UNL     1       5.625   5.067  15.852  0.00  0.00    +0.000 A 
ATOM     11  C   UNL     1       6.961   5.388  15.589  0.00  0.00    +0.000 A 
ATOM     12  C   UNL     1       7.565   5.060  14.363  0.00  0.00    +0.000 A 
ATOM     13  C   UNL     1       6.850   4.416  13.342  0.00  0.00    +0.000 A 
ATOM     14  C   UNL     1       5.496   4.134  13.571  0.00  0.00    +0.000 A 
ATOM     15  C   UNL     1       4.921   4.430  14.820  0.00  0.00    +0.000 A 
ATOM     16  C   UNL     1       4.583   3.619  12.543  0.00  0.00    +0.000 C 
ATOM     17  C   UNL     1       4.900   2.646  11.682  0.00  0.00    +0.000 C 
ATOM     18  C   UNL     1       6.219   1.949  11.673  0.00  0.00    +0.000 C 
ATOM     19  C   UNL     1       7.365   2.862  11.262  0.00  0.00    +0.000 C 
ATOM     20  C   UNL     1       7.528   4.199  12.007  0.00  0.00    +0.000 C 
ENDBRANCH   6  10
BRANCH   2  21
ATOM     21  C   UNL     1       2.094   5.199  18.269  0.00  0.00    +0.000 C 
BRANCH  21  22
ATOM     22  N   UNL     1       1.807   4.075  19.134  0.00  0.00    +0.000 N 
ATOM     23  C   UNL     1       1.185   4.116  20.347  0.00  0.00    +0.000 A 
ATOM     24  C   UNL     1       1.111   2.809  20.774  0.00  0.00    +0.000 A 
ATOM     25  C   UNL     1       1.714   2.060  19.746  0.00  0.00    +0.000 A 
ATOM     26  N   UNL     1       2.152   2.833  18.748  0.00  0.00    +0.000 NA
ENDBRANCH  21  22
ENDBRANCH   2  21
TORSDOF 3
ENDMDL
MODEL 6
REMARK VINA RESULT:      -7.2      1.588      3.773
REMARK  Name = 
REMARK  4 active torsions:
REMARK  status: ('A' for Active; 'I' for Inactive)
REMARK    1  A    between atoms: C_1  and  C_2
REMARK    2  A    between atoms: C_2  and  C_3
REMARK    3  A    between atoms: C_3  and  N_4
REMARK    4  A    between atoms: N_12  and  C_13
REMARK                            x       y       z     vdW  Elec       q    Type
REMARK                         _______ _______ _______ _____ _____    ______ ____
ROOT
ATOM      1  C   UNL     1       5.763   4.011  17.053  0.00  0.00    +0.000 C 
ATOM      2  C   UNL     1       4.532   4.133  17.942  0.00  0.00    +0.000 C 
ATOM      3  N   UNL     1       3.299   3.922  17.229  0.00  0.00    +0.000 N 
ATOM      4  C   UNL     1       2.322   4.812  17.646  0.00  0.00    +0.000 C 
ATOM      5  O   UNL     1       1.147   4.634  17.364  0.00  0.00    +0.000 OA
ATOM      6  N   UNL     1       2.925   5.808  18.386  0.00  0.00    +0.000 N 
ATOM      7  C   UNL     1       4.288   5.565  18.406  0.00  0.00    +0.000 C 
ATOM      8  O   UNL     1       5.200   6.267  18.831  0.00  0.00    +0.000 OA
ATOM      9  H   UNL     1       2.999   2.997  16.928  0.00  0.00    +0.000 HD
ENDROOT
BRANCH   6  10
ATOM     10  C   UNL     1       2.259   6.876  19.061  0.00  0.00    +0.000 A 
ATOM     11  C   UNL     1       1.857   6.781  20.398  0.00  0.00    +0.000 A 
ATOM     12  C   UNL     1       1.260   7.867  21.061  0.00  0.00    +0.000 A 
ATOM     13  C   UNL     1       1.019   9.085  20.406  0.00  0.00    +0.000 A 
ATOM     14  C   UNL     1       1.369   9.177  19.052  0.00  0.00    +0.000 A 
ATOM     15  C   UNL     1       2.007   8.095  18.417  0.00  0.00    +0.000 A 
ATOM     16  C   UNL     1       1.030  10.321  18.196  0.00  0.00    +0.000 C 
ATOM     17  C   UNL     1       1.148  11.598  18.573  0.00  0.00    +0.000 C 
ATOM     18  C   UNL     1       1.661  12.019  19.910  0.00  0.00    +0.000 C 
ATOM     19  C   UNL     1       0.725  11.636  21.047  0.00  0.00    +0.000 C 
ATOM     20  C   UNL     1       0.267  10.169  21.144  0.00  0.00    +0.000 C 
ENDBRANCH   6  10
BRANCH   2  21
ATOM     21  C   UNL     1       4.632   3.317  19.245  0.00  0.00    +0.000 C 
BRANCH  21  22
ATOM     22  N   UNL     1       3.349   2.888  19.756  0.00  0.00    +0.000 N 
ATOM     23  C   UNL     1       2.718   3.351  20.874  0.00  0.00    +0.000 A 
ATOM     24  C   UNL     1       1.521   2.673  20.937  0.00  0.00    +0.000 A 
ATOM     25  C   UNL     1       1.527   1.828  19.812  0.00  0.00    +0.000 A 
ATOM     26  N   UNL     1       2.648   1.948  19.095  0.00  0.00    +0.000 NA
ENDBRANCH  21  22
ENDBRANCH   2  21
TORSDOF 3
ENDMDL
MODEL 7
REMARK VINA RESULT:      -7.0      3.298      7.873
REMARK  Name = 
REMARK  4 active torsions:
REMARK  status: ('A' for Active; 'I' for Inactive)
REMARK    1  A    between atoms: C_1  and  C_2
REMARK    2  A    between atoms: C_2  and  C_3
REMARK    3  A    between atoms: C_3  and  N_4
REMARK    4  A    between atoms: N_12  and  C_13
REMARK                            x       y       z     vdW  Elec       q    Type
REMARK                         _______ _______ _______ _____ _____    ______ ____
ROOT
ATOM      1  C   UNL     1       1.021  11.785  19.022  0.00  0.00    +0.000 C 
ATOM      2  C   UNL     1       0.722  10.293  18.961  0.00  0.00    +0.000 C 
ATOM      3  N   UNL     1       0.773   9.655  20.252  0.00  0.00    +0.000 N 
ATOM      4  C   UNL     1       1.376   8.411  20.172  0.00  0.00    +0.000 C 
ATOM      5  O   UNL     1       1.283   7.606  21.086  0.00  0.00    +0.000 OA
ATOM      6  N   UNL     1       2.006   8.308  18.948  0.00  0.00    +0.000 N 
ATOM      7  C   UNL     1       1.830   9.503  18.271  0.00  0.00    +0.000 C 
ATOM      8  O   UNL     1       2.332   9.886  17.220  0.00  0.00    +0.000 OA
ATOM      9  H   UNL     1       0.040   9.783  20.947  0.00  0.00    +0.000 HD
ENDROOT
BRANCH   6  10
ATOM     10  C   UNL     1       2.679   7.155  18.442  0.00  0.00    +0.000 A 
ATOM     11  C   UNL     1       2.042   5.917  18.306  0.00  0.00    +0.000 A 
ATOM     12  C   UNL     1       2.704   4.811  17.747  0.00  0.00    +0.000 A 
ATOM     13  C   UNL     1       4.040   4.893  17.321  0.00  0.00    +0.000 A 
ATOM     14  C   UNL     1       4.707   6.112  17.499  0.00  0.00    +0.000 A 
ATOM     15  C   UNL     1       4.014   7.221  18.020  0.00  0.00    +0.000 A 
ATOM     16  C   UNL     1       6.143   6.302  17.258  0.00  0.00    +0.000 C 
ATOM     17  C   UNL     1       6.794   5.812  16.197  0.00  0.00    +0.000 C 
ATOM     18  C   UNL     1       6.133   5.026  15.114  0.00  0.00    +0.000 C 
ATOM     19  C   UNL     1       5.629   3.672  15.593  0.00  0.00    +0.000 C 
ATOM     20  C   UNL     1       4.726   3.635  16.839  0.00  0.00    +0.000 C 
ENDBRANCH   6  10
BRANCH   2  21
ATOM     21  C   UNL     1      -0.550   9.953  18.161  0.00  0.00    +0.000 C 
BRANCH  21  22
ATOM     22  N   UNL     1      -1.668  10.822  18.458  0.00  0.00    +0.000 N 
ATOM     23  C   UNL     1      -2.677  11.174  17.610  0.00  0.00    +0.000 A 
ATOM     24  C   UNL     1      -3.515  11.985  18.343  0.00  0.00    +0.000 A 
ATOM     25  C   UNL     1      -2.923  12.056  19.617  0.00  0.00    +0.000 A 
ATOM     26  N   UNL     1      -1.787  11.357  19.688  0.00  0.00    +0.000 NA
ENDBRANCH  21  22
ENDBRANCH   2  21
TORSDOF 3
ENDMDL
MODEL 8
REMARK VINA RESULT:      -7.0      3.345      7.817
REMARK  Name = 
REMARK  4 active torsions:
REMARK  status: ('A' for Active; 'I' for Inactive)
REMARK    1  A    between atoms: C_1  and  C_2
REMARK    2  A    between atoms: C_2  and  C_3
REMARK    3  A    between atoms: C_3  and  N_4
REMARK    4  A    between atoms: N_12  and  C_13
REMARK                            x       y       z     vdW  Elec       q    Type
REMARK                         _______ _______ _______ _____ _____    ______ ____
ROOT
ATOM      1  C   UNL     1       3.706   5.612  19.903  0.00  0.00    +0.000 C 
ATOM      2  C   UNL     1       4.562   4.651  19.087  0.00  0.00    +0.000 C 
ATOM      3  N   UNL     1       5.967   4.756  19.386  0.00  0.00    +0.000 N 
ATOM      4  C   UNL     1       6.731   4.665  18.235  0.00  0.00    +0.000 C 
ATOM      5  O   UNL     1       7.935   4.468  18.292  0.00  0.00    +0.000 OA
ATOM      6  N   UNL     1       5.898   4.810  17.144  0.00  0.00    +0.000 N 
ATOM      7  C   UNL     1       4.612   5.028  17.609  0.00  0.00    +0.000 C 
ATOM      8  O   UNL     1       3.599   5.338  16.991  0.00  0.00    +0.000 OA
ATOM      9  H   UNL     1       6.365   4.390  20.249  0.00  0.00    +0.000 HD
ENDROOT
BRANCH   6  10
ATOM     10  C   UNL     1       6.280   4.702  15.773  0.00  0.00    +0.000 A 
ATOM     11  C   UNL     1       7.470   5.250  15.283  0.00  0.00    +0.000 A 
ATOM     12  C   UNL     1       7.858   5.078  13.942  0.00  0.00    +0.000 A 
ATOM     13  C   UNL     1       7.059   4.369  13.032  0.00  0.00    +0.000 A 
ATOM     14  C   UNL     1       5.839   3.858  13.496  0.00  0.00    +0.000 A 
ATOM     15  C   UNL     1       5.488   4.002  14.851  0.00  0.00    +0.000 A 
ATOM     16  C   UNL     1       4.827   3.243  12.628  0.00  0.00    +0.000 C 
ATOM     17  C   UNL     1       5.109   2.372  11.652  0.00  0.00    +0.000 C 
ATOM     18  C   UNL     1       6.490   1.904  11.339  0.00  0.00    +0.000 C 
ATOM     19  C   UNL     1       7.376   3.010  10.783  0.00  0.00    +0.000 C 
ATOM     20  C   UNL     1       7.479   4.323  11.580  0.00  0.00    +0.000 C 
ENDBRANCH   6  10
BRANCH   2  21
ATOM     21  C   UNL     1       4.041   3.202  19.099  0.00  0.00    +0.000 C 
BRANCH  21  22
ATOM     22  N   UNL     1       2.807   3.038  19.836  0.00  0.00    +0.000 N 
ATOM     23  C   UNL     1       2.681   2.737  21.161  0.00  0.00    +0.000 A 
ATOM     24  C   UNL     1       1.327   2.716  21.413  0.00  0.00    +0.000 A 
ATOM     25  C   UNL     1       0.727   3.018  20.176  0.00  0.00    +0.000 A 
ATOM     26  N   UNL     1       1.628   3.203  19.208  0.00  0.00    +0.000 NA
ENDBRANCH  21  22
ENDBRANCH   2  21
TORSDOF 3
ENDMDL
MODEL 9
REMARK VINA RESULT:      -7.0      3.663      7.912
REMARK  Name = 
REMARK  4 active torsions:
REMARK  status: ('A' for Active; 'I' for Inactive)
REMARK    1  A    between atoms: C_1  and  C_2
REMARK    2  A    between atoms: C_2  and  C_3
REMARK    3  A    between atoms: C_3  and  N_4
REMARK    4  A    between atoms: N_12  and  C_13
REMARK                            x       y       z     vdW  Elec       q    Type
REMARK                         _______ _______ _______ _____ _____    ______ ____
ROOT
ATOM      1  C   UNL     1       1.034  12.294  19.271  0.00  0.00    +0.000 C 
ATOM      2  C   UNL     1       0.583  10.903  19.696  0.00  0.00    +0.000 C 
ATOM      3  N   UNL     1       0.954  10.581  21.050  0.00  0.00    +0.000 N 
ATOM      4  C   UNL     1       1.378   9.266  21.153  0.00  0.00    +0.000 C 
ATOM      5  O   UNL     1       1.483   8.721  22.240  0.00  0.00    +0.000 OA
ATOM      6  N   UNL     1       1.599   8.777  19.881  0.00  0.00    +0.000 N 
ATOM      7  C   UNL     1       1.348   9.796  18.978  0.00  0.00    +0.000 C 
ATOM      8  O   UNL     1       1.549   9.835  17.769  0.00  0.00    +0.000 OA
ATOM      9  H   UNL     1       0.479  10.989  21.853  0.00  0.00    +0.000 HD
ENDROOT
BRANCH   6  10
ATOM     10  C   UNL     1       1.971   7.440  19.546  0.00  0.00    +0.000 A 
ATOM     11  C   UNL     1       2.848   7.148  18.496  0.00  0.00    +0.000 A 
ATOM     12  C   UNL     1       3.250   5.829  18.224  0.00  0.00    +0.000 A 
ATOM     13  C   UNL     1       2.773   4.745  18.978  0.00  0.00    +0.000 A 
ATOM     14  C   UNL     1       1.853   5.017  20.000  0.00  0.00    +0.000 A 
ATOM     15  C   UNL     1       1.496   6.348  20.287  0.00  0.00    +0.000 A 
ATOM     16  C   UNL     1       1.143   3.980  20.760  0.00  0.00    +0.000 C 
ATOM     17  C   UNL     1       1.724   2.871  21.232  0.00  0.00    +0.000 C 
ATOM     18  C   UNL     1       3.174   2.562  21.062  0.00  0.00    +0.000 C 
ATOM     19  C   UNL     1       3.553   2.297  19.612  0.00  0.00    +0.000 C 
ATOM     20  C   UNL     1       3.153   3.344  18.556  0.00  0.00    +0.000 C 
ENDBRANCH   6  10
BRANCH   2  21
ATOM     21  C   UNL     1      -0.897  10.614  19.383  0.00  0.00    +0.000 C 
BRANCH  21  22
ATOM     22  N   UNL     1      -1.811  11.546  20.007  0.00  0.00    +0.000 N 
ATOM     23  C   UNL     1      -2.839  12.210  19.404  0.00  0.00    +0.000 A 
ATOM     24  C   UNL     1      -3.439  12.953  20.397  0.00  0.00    +0.000 A 
ATOM     25  C   UNL     1      -2.699  12.664  21.558  0.00  0.00    +0.000 A 
ATOM     26  N   UNL     1      -1.695  11.815  21.321  0.00  0.00    +0.000 NA
ENDBRANCH  21  22
ENDBRANCH   2  21
TORSDOF 3
ENDMDL
