MODEL 1
REMARK VINA RESULT:      -9.2      0.000      0.000
REMARK  Name = 
REMARK  6 active torsions:
REMARK  status: ('A' for Active; 'I' for Inactive)
REMARK    1  A    between atoms: C_1  and  C_2
REMARK    2  A    between atoms: C_5  and  N_6
REMARK    3  A    between atoms: C_7  and  C_9
REMARK    4  A    between atoms: C_13  and  C_14
REMARK    5  A    between atoms: C_18  and  C_19
REMARK    6  A    between atoms: C_21  and  C_22
REMARK                            x       y       z     vdW  Elec       q    Type
REMARK                         _______ _______ _______ _____ _____    ______ ____
ROOT
ATOM      1  N   UNL     1       1.161   9.259  19.168  0.00  0.00    +0.000 N 
ATOM      2  C   UNL     1       1.619   8.195  19.942  0.00  0.00    +0.000 C 
ATOM      3  O   UNL     1       1.432   8.104  21.154  0.00  0.00    +0.000 OA
ATOM      4  H   UNL     1       1.397   9.199  18.189  0.00  0.00    +0.000 HD
ENDROOT
BRANCH   1   9
ATOM      5  C   UNL     1      -2.025  13.719  20.948  0.00  0.00    +0.000 C 
ATOM      6  C   UNL     1      -1.200  12.562  20.444  0.00  0.00    +0.000 A 
ATOM      7  C   UNL     1       0.034  12.299  21.039  0.00  0.00    +0.000 A 
ATOM      8  C   UNL     1       0.810  11.225  20.612  0.00  0.00    +0.000 A 
ATOM      9  C   UNL     1       0.381  10.387  19.579  0.00  0.00    +0.000 A 
ATOM     10  C   UNL     1      -0.876  10.670  18.944  0.00  0.00    +0.000 A 
ATOM     11  C   UNL     1      -1.424   9.937  17.861  0.00  0.00    +0.000 A 
ATOM     12  C   UNL     1      -2.651  10.278  17.298  0.00  0.00    +0.000 A 
ATOM     13  C   UNL     1      -3.327  11.351  17.828  0.00  0.00    +0.000 A 
ATOM     14  N   UNL     1      -2.858  12.084  18.852  0.00  0.00    +0.000 NA
ATOM     15  C   UNL     1      -1.664  11.768  19.397  0.00  0.00    +0.000 A 
ENDBRANCH   1   9
BRANCH   2  16
ATOM     16  C   UNL     1       2.361   7.139  19.222  0.00  0.00    +0.000 A 
ATOM     17  S   UNL     1       3.319   7.500  17.852  0.00  0.00    +0.000 S 
ATOM     18  C   UNL     1       3.800   5.882  17.655  0.00  0.00    +0.000 A 
ATOM     19  N   UNL     1       4.630   5.554  16.650  0.00  0.00    +0.000 NA
ATOM     20  C   UNL     1       4.948   4.255  16.602  0.00  0.00    +0.000 A 
ATOM     21  N   UNL     1       4.474   3.332  17.460  0.00  0.00    +0.000 NA
ATOM     22  C   UNL     1       3.636   3.680  18.473  0.00  0.00    +0.000 A 
ATOM     23  C   UNL     1       3.212   2.553  19.362  0.00  0.00    +0.000 C 
ATOM     24  C   UNL     1       3.256   5.033  18.604  0.00  0.00    +0.000 A 
ATOM     25  C   UNL     1       2.402   5.772  19.527  0.00  0.00    +0.000 A 
ATOM     26  C   UNL     1       1.645   5.170  20.676  0.00  0.00    +0.000 C 
BRANCH  20  27
ATOM     27  C   UNL     1       5.899   3.774  15.526  0.00  0.00    +0.000 C 
ATOM     28  C   UNL     1       7.019   4.674  15.047  0.00  0.00    +0.000 C 
ATOM     29  C   UNL     1       5.857   4.389  14.146  0.00  0.00    +0.000 C 
ENDBRANCH  20  27
ENDBRANCH   2  16
TORSDOF 3
ENDMDL
MODEL 2
REMARK VINA RESULT:      -9.0      2.362      9.028
REMARK  Name = 
REMARK  6 active torsions:
REMARK  status: ('A' for Active; 'I' for Inactive)
REMARK    1  A    between atoms: C_1  and  C_2
REMARK    2  A    between atoms: C_5  and  N_6
REMARK    3  A    between atoms: C_7  and  C_9
REMARK    4  A    between atoms: C_13  and  C_14
REMARK    5  A    between atoms: C_18  and  C_19
REMARK    6  A    between atoms: C_21  and  C_22
REMARK                            x       y       z     vdW  Elec       q    Type
REMARK                         _______ _______ _______ _____ _____    ______ ____
ROOT
ATOM      1  N   UNL     1       2.852   7.709  18.698  0.00  0.00    +0.000 N 
ATOM      2  C   UNL     1       2.012   8.708  18.208  0.00  0.00    +0.000 C 
ATOM      3  O   UNL     1       1.790   8.882  17.012  0.00  0.00    +0.000 OA
ATOM      4  H   UNL     1       2.942   7.692  19.703  0.00  0.00    +0.000 HD
ENDROOT
BRANCH   1   9
ATOM      5  C   UNL     1       5.635   3.711  15.621  0.00  0.00    +0.000 C 
ATOM      6  C   UNL     1       4.902   4.730  16.456  0.00  0.00    +0.000 A 
ATOM      7  C   UNL     1       5.374   6.042  16.492  0.00  0.00    +0.000 A 
ATOM      8  C   UNL     1       4.709   7.013  17.236  0.00  0.00    +0.000 A 
ATOM      9  C   UNL     1       3.558   6.702  17.966  0.00  0.00    +0.000 A 
ATOM     10  C   UNL     1       3.084   5.346  17.956  0.00  0.00    +0.000 A 
ATOM     11  C   UNL     1       1.959   4.872  18.676  0.00  0.00    +0.000 A 
ATOM     12  C   UNL     1       1.565   3.538  18.613  0.00  0.00    +0.000 A 
ATOM     13  C   UNL     1       2.299   2.685  17.824  0.00  0.00    +0.000 A 
ATOM     14  N   UNL     1       3.375   3.076  17.120  0.00  0.00    +0.000 NA
ATOM     15  C   UNL     1       3.771   4.365  17.183  0.00  0.00    +0.000 A 
ENDBRANCH   1   9
BRANCH   2  16
ATOM     16  C   UNL     1       1.374   9.575  19.219  0.00  0.00    +0.000 A 
ATOM     17  S   UNL     1       1.016  11.215  18.888  0.00  0.00    +0.000 S 
ATOM     18  C   UNL     1       0.339  11.467  20.427  0.00  0.00    +0.000 A 
ATOM     19  N   UNL     1      -0.151  12.676  20.746  0.00  0.00    +0.000 NA
ATOM     20  C   UNL     1      -0.669  12.752  21.979  0.00  0.00    +0.000 A 
ATOM     21  N   UNL     1      -0.690  11.726  22.849  0.00  0.00    +0.000 NA
ATOM     22  C   UNL     1      -0.192  10.507  22.510  0.00  0.00    +0.000 A 
ATOM     23  C   UNL     1      -0.307   9.457  23.571  0.00  0.00    +0.000 C 
ATOM     24  C   UNL     1       0.365  10.335  21.226  0.00  0.00    +0.000 A 
ATOM     25  C   UNL     1       0.980   9.219  20.516  0.00  0.00    +0.000 A 
ATOM     26  C   UNL     1       1.182   7.842  21.080  0.00  0.00    +0.000 C 
BRANCH  20  27
ATOM     27  C   UNL     1      -1.275  14.061  22.438  0.00  0.00    +0.000 C 
ATOM     28  C   UNL     1      -0.386  15.150  23.005  0.00  0.00    +0.000 C 
ATOM     29  C   UNL     1      -1.317  14.403  23.911  0.00  0.00    +0.000 C 
ENDBRANCH  20  27
ENDBRANCH   2  16
TORSDOF 3
ENDMDL
MODEL 3
REMARK VINA RESULT:      -9.0      2.176      9.057
REMARK  Name = 
REMARK  6 active torsions:
REMARK  status: ('A' for Active; 'I' for Inactive)
REMARK    1  A    between atoms: C_1  and  C_2
REMARK    2  A    between atoms: C_5  and  N_6
REMARK    3  A    between atoms: C_7  and  C_9
REMARK    4  A    between atoms: C_13  and  C_14
REMARK    5  A    between atoms: C_18  and  C_19
REMARK    6  A    between atoms: C_21  and  C_22
REMARK                            x       y       z     vdW  Elec       q    Type
REMARK                         _______ _______ _______ _____ _____    ______ ____
ROOT
ATOM      1  N   UNL     1       2.443   7.513  18.707  0.00  0.00    +0.000 N 
ATOM      2  C   UNL     1       1.925   8.719  18.237  0.00  0.00    +0.000 C 
ATOM      3  O   UNL     1       2.148   9.162  17.113  0.00  0.00    +0.000 OA
ATOM      4  H   UNL     1       2.178   7.283  19.653  0.00  0.00    +0.000 HD
ENDROOT
BRANCH   1   9
ATOM      5  C   UNL     1       5.669   3.744  15.776  0.00  0.00    +0.000 C 
ATOM      6  C   UNL     1       4.821   4.703  16.573  0.00  0.00    +0.000 A 
ATOM      7  C   UNL     1       5.187   6.048  16.626  0.00  0.00    +0.000 A 
ATOM      8  C   UNL     1       4.415   6.964  17.335  0.00  0.00    +0.000 A 
ATOM      9  C   UNL     1       3.258   6.564  18.012  0.00  0.00    +0.000 A 
ATOM     10  C   UNL     1       2.893   5.176  17.985  0.00  0.00    +0.000 A 
ATOM     11  C   UNL     1       1.775   4.615  18.653  0.00  0.00    +0.000 A 
ATOM     12  C   UNL     1       1.489   3.255  18.577  0.00  0.00    +0.000 A 
ATOM     13  C   UNL     1       2.324   2.461  17.826  0.00  0.00    +0.000 A 
ATOM     14  N   UNL     1       3.397   2.935  17.172  0.00  0.00    +0.000 NA
ATOM     15  C   UNL     1       3.689   4.252  17.248  0.00  0.00    +0.000 A 
ENDBRANCH   1   9
BRANCH   2  16
ATOM     16  C   UNL     1       1.062   9.466  19.175  0.00  0.00    +0.000 A 
ATOM     17  S   UNL     1       0.121  10.796  18.654  0.00  0.00    +0.000 S 
ATOM     18  C   UNL     1      -0.531  11.052  20.203  0.00  0.00    +0.000 A 
ATOM     19  N   UNL     1      -1.410  12.049  20.395  0.00  0.00    +0.000 NA
ATOM     20  C   UNL     1      -1.864  12.147  21.651  0.00  0.00    +0.000 A 
ATOM     21  N   UNL     1      -1.473  11.341  22.656  0.00  0.00    +0.000 NA
ATOM     22  C   UNL     1      -0.584  10.335  22.444  0.00  0.00    +0.000 A 
ATOM     23  C   UNL     1      -0.264   9.507  23.650  0.00  0.00    +0.000 C 
ATOM     24  C   UNL     1      -0.061  10.154  21.146  0.00  0.00    +0.000 A 
ATOM     25  C   UNL     1       0.883   9.220  20.543  0.00  0.00    +0.000 A 
ATOM     26  C   UNL     1       1.595   8.118  21.273  0.00  0.00    +0.000 C 
BRANCH  20  27
ATOM     27  C   UNL     1      -2.880  13.219  21.980  0.00  0.00    +0.000 C 
ATOM     28  C   UNL     1      -4.335  12.848  22.189  0.00  0.00    +0.000 C 
ATOM     29  C   UNL     1      -3.929  13.609  20.964  0.00  0.00    +0.000 C 
ENDBRANCH  20  27
ENDBRANCH   2  16
TORSDOF 3
ENDMDL
MODEL 4
REMARK VINA RESULT:      -8.7      0.896      1.010
REMARK  Name = 
REMARK  6 active torsions:
REMARK  status: ('A' for Active; 'I' for Inactive)
REMARK    1  A    between atoms: C_1  and  C_2
REMARK    2  A    between atoms: C_5  and  N_6
REMARK    3  A    between atoms: C_7  and  C_9
REMARK    4  A    between atoms: C_13  and  C_14
REMARK    5  A    between atoms: C_18  and  C_19
REMARK    6  A    between atoms: C_21  and  C_22
REMARK                            x       y       z     vdW  Elec       q    Type
REMARK                         _______ _______ _______ _____ _____    ______ ____
ROOT
ATOM      1  N   UNL     1       0.565   9.652  19.033  0.00  0.00    +0.000 N 
ATOM      2  C   UNL     1       1.181   8.696  19.840  0.00  0.00    +0.000 C 
ATOM      3  O   UNL     1       0.973   8.590  21.047  0.00  0.00    +0.000 OA
ATOM      4  H   UNL     1       0.840   9.622  18.062  0.00  0.00    +0.000 HD
ENDROOT
BRANCH   1   9
ATOM      5  C   UNL     1      -3.431  13.485  20.625  0.00  0.00    +0.000 C 
ATOM      6  C   UNL     1      -2.393  12.491  20.170  0.00  0.00    +0.000 A 
ATOM      7  C   UNL     1      -1.187  12.404  20.866  0.00  0.00    +0.000 A 
ATOM      8  C   UNL     1      -0.215  11.483  20.485  0.00  0.00    +0.000 A 
ATOM      9  C   UNL     1      -0.417  10.626  19.399  0.00  0.00    +0.000 A 
ATOM     10  C   UNL     1      -1.645  10.731  18.661  0.00  0.00    +0.000 A 
ATOM     11  C   UNL     1      -1.975   9.962  17.517  0.00  0.00    +0.000 A 
ATOM     12  C   UNL     1      -3.189  10.126  16.855  0.00  0.00    +0.000 A 
ATOM     13  C   UNL     1      -4.071  11.059  17.347  0.00  0.00    +0.000 A 
ATOM     14  N   UNL     1      -3.812  11.818  18.426  0.00  0.00    +0.000 NA
ATOM     15  C   UNL     1      -2.633  11.674  19.068  0.00  0.00    +0.000 A 
ENDBRANCH   1   9
BRANCH   2  16
ATOM     16  C   UNL     1       2.123   7.782  19.162  0.00  0.00    +0.000 A 
ATOM     17  S   UNL     1       2.992   8.268  17.771  0.00  0.00    +0.000 S 
ATOM     18  C   UNL     1       3.790   6.773  17.642  0.00  0.00    +0.000 A 
ATOM     19  N   UNL     1       4.672   6.576  16.648  0.00  0.00    +0.000 NA
ATOM     20  C   UNL     1       5.247   5.366  16.655  0.00  0.00    +0.000 A 
ATOM     21  N   UNL     1       4.967   4.406  17.557  0.00  0.00    +0.000 NA
ATOM     22  C   UNL     1       4.074   4.623  18.558  0.00  0.00    +0.000 A 
ATOM     23  C   UNL     1       3.885   3.473  19.499  0.00  0.00    +0.000 C 
ATOM     24  C   UNL     1       3.427   5.875  18.632  0.00  0.00    +0.000 A 
ATOM     25  C   UNL     1       2.439   6.467  19.527  0.00  0.00    +0.000 A 
ATOM     26  C   UNL     1       1.817   5.775  20.706  0.00  0.00    +0.000 C 
BRANCH  20  27
ATOM     27  C   UNL     1       6.278   5.040  15.595  0.00  0.00    +0.000 C 
ATOM     28  C   UNL     1       5.835   4.695  14.188  0.00  0.00    +0.000 C 
ATOM     29  C   UNL     1       6.407   3.628  15.070  0.00  0.00    +0.000 C 
ENDBRANCH  20  27
ENDBRANCH   2  16
TORSDOF 3
ENDMDL
MODEL 5
REMARK VINA RESULT:      -8.7      1.993      9.495
REMARK  Name = 
REMARK  6 active torsions:
REMARK  status: ('A' for Active; 'I' for Inactive)
REMARK    1  A    between atoms: C_1  and  C_2
REMARK    2  A    between atoms: C_5  and  N_6
REMARK    3  A    between atoms: C_7  and  C_9
REMARK    4  A    between atoms: C_13  and  C_14
REMARK    5  A    between atoms: C_18  and  C_19
REMARK    6  A    between atoms: C_21  and  C_22
REMARK                            x       y       z     vdW  Elec       q    Type
REMARK                         _______ _______ _______ _____ _____    ______ ____
ROOT
ATOM      1  N   UNL     1       1.785   8.077  19.139  0.00  0.00    +0.000 N 
ATOM      2  C   UNL     1       1.428   9.273  18.518  0.00  0.00    +0.000 C 
ATOM      3  O   UNL     1       1.904   9.653  17.450  0.00  0.00    +0.000 OA
ATOM      4  H   UNL     1       1.315   7.902  20.015  0.00  0.00    +0.000 HD
ENDROOT
BRANCH   1   9
ATOM      5  C   UNL     1       5.347   4.007  17.152  0.00  0.00    +0.000 C 
ATOM      6  C   UNL     1       4.422   5.059  17.709  0.00  0.00    +0.000 A 
ATOM      7  C   UNL     1       4.458   6.346  17.173  0.00  0.00    +0.000 A 
ATOM      8  C   UNL     1       3.604   7.336  17.650  0.00  0.00    +0.000 A 
ATOM      9  C   UNL     1       2.692   7.071  18.677  0.00  0.00    +0.000 A 
ATOM     10  C   UNL     1       2.670   5.755  19.252  0.00  0.00    +0.000 A 
ATOM     11  C   UNL     1       1.833   5.348  20.322  0.00  0.00    +0.000 A 
ATOM     12  C   UNL     1       1.874   4.051  20.825  0.00  0.00    +0.000 A 
ATOM     13  C   UNL     1       2.753   3.163  20.250  0.00  0.00    +0.000 A 
ATOM     14  N   UNL     1       3.571   3.492  19.236  0.00  0.00    +0.000 NA
ATOM     15  C   UNL     1       3.546   4.750  18.747  0.00  0.00    +0.000 A 
ENDBRANCH   1   9
BRANCH   2  16
ATOM     16  C   UNL     1       0.416  10.092  19.216  0.00  0.00    +0.000 A 
ATOM     17  S   UNL     1       0.709  10.731  20.775  0.00  0.00    +0.000 S 
ATOM     18  C   UNL     1      -0.810  11.493  20.841  0.00  0.00    +0.000 A 
ATOM     19  N   UNL     1      -1.147  12.205  21.929  0.00  0.00    +0.000 NA
ATOM     20  C   UNL     1      -2.360  12.768  21.862  0.00  0.00    +0.000 A 
ATOM     21  N   UNL     1      -3.197  12.630  20.817  0.00  0.00    +0.000 NA
ATOM     22  C   UNL     1      -2.839  11.908  19.722  0.00  0.00    +0.000 A 
ATOM     23  C   UNL     1      -3.861  11.865  18.629  0.00  0.00    +0.000 C 
ATOM     24  C   UNL     1      -1.572  11.287  19.704  0.00  0.00    +0.000 A 
ATOM     25  C   UNL     1      -0.853  10.456  18.745  0.00  0.00    +0.000 A 
ATOM     26  C   UNL     1      -1.381  10.025  17.407  0.00  0.00    +0.000 C 
BRANCH  20  27
ATOM     27  C   UNL     1      -2.837  13.617  23.022  0.00  0.00    +0.000 C 
ATOM     28  C   UNL     1      -3.695  13.003  24.109  0.00  0.00    +0.000 C 
ATOM     29  C   UNL     1      -4.300  13.979  23.147  0.00  0.00    +0.000 C 
ENDBRANCH  20  27
ENDBRANCH   2  16
TORSDOF 3
ENDMDL
MODEL 6
REMARK VINA RESULT:      -8.6      1.475      2.137
REMARK  Name = 
REMARK  6 active torsions:
REMARK  status: ('A' for Active; 'I' for Inactive)
REMARK    1  A    between atoms: C_1  and  C_2
REMARK    2  A    between atoms: C_5  and  N_6
REMARK    3  A    between atoms: C_7  and  C_9
REMARK    4  A    between atoms: C_13  and  C_14
REMARK    5  A    between atoms: C_18  and  C_19
REMARK    6  A    between atoms: C_21  and  C_22
REMARK                            x       y       z     vdW  Elec       q    Type
REMARK                         _______ _______ _______ _____ _____    ______ ____
ROOT
ATOM      1  N   UNL     1       1.309   9.337  19.035  0.00  0.00    +0.000 N 
ATOM      2  C   UNL     1       1.748   8.272  19.820  0.00  0.00    +0.000 C 
ATOM      3  O   UNL     1       1.570   8.204  21.034  0.00  0.00    +0.000 OA
ATOM      4  H   UNL     1       1.533   9.256  18.054  0.00  0.00    +0.000 HD
ENDROOT
BRANCH   1   9
ATOM      5  C   UNL     1      -1.803  13.948  20.538  0.00  0.00    +0.000 C 
ATOM      6  C   UNL     1      -0.955  12.761  20.156  0.00  0.00    +0.000 A 
ATOM      7  C   UNL     1      -1.399  11.479  20.479  0.00  0.00    +0.000 A 
ATOM      8  C   UNL     1      -0.651  10.360  20.123  0.00  0.00    +0.000 A 
ATOM      9  C   UNL     1       0.560  10.489  19.437  0.00  0.00    +0.000 A 
ATOM     10  C   UNL     1       1.036  11.808  19.126  0.00  0.00    +0.000 A 
ATOM     11  C   UNL     1       2.261  12.098  18.473  0.00  0.00    +0.000 A 
ATOM     12  C   UNL     1       2.652  13.408  18.209  0.00  0.00    +0.000 A 
ATOM     13  C   UNL     1       1.809  14.423  18.597  0.00  0.00    +0.000 A 
ATOM     14  N   UNL     1       0.638  14.209  19.221  0.00  0.00    +0.000 NA
ATOM     15  C   UNL     1       0.255  12.943  19.491  0.00  0.00    +0.000 A 
ENDBRANCH   1   9
BRANCH   2  16
ATOM     16  C   UNL     1       2.456   7.188  19.109  0.00  0.00    +0.000 A 
ATOM     17  S   UNL     1       3.458   7.513  17.761  0.00  0.00    +0.000 S 
ATOM     18  C   UNL     1       3.869   5.875  17.563  0.00  0.00    +0.000 A 
ATOM     19  N   UNL     1       4.705   5.517  16.574  0.00  0.00    +0.000 NA
ATOM     20  C   UNL     1       4.965   4.204  16.524  0.00  0.00    +0.000 A 
ATOM     21  N   UNL     1       4.431   3.300  17.366  0.00  0.00    +0.000 NA
ATOM     22  C   UNL     1       3.589   3.679  18.363  0.00  0.00    +0.000 A 
ATOM     23  C   UNL     1       3.096   2.567  19.235  0.00  0.00    +0.000 C 
ATOM     24  C   UNL     1       3.268   5.047  18.495  0.00  0.00    +0.000 A 
ATOM     25  C   UNL     1       2.429   5.819  19.405  0.00  0.00    +0.000 A 
ATOM     26  C   UNL     1       1.622   5.245  20.534  0.00  0.00    +0.000 C 
BRANCH  20  27
ATOM     27  C   UNL     1       5.915   3.687  15.465  0.00  0.00    +0.000 C 
ATOM     28  C   UNL     1       6.947   4.614  14.854  0.00  0.00    +0.000 C 
ATOM     29  C   UNL     1       5.782   4.152  14.032  0.00  0.00    +0.000 C 
ENDBRANCH  20  27
ENDBRANCH   2  16
TORSDOF 3
ENDMDL
MODEL 7
REMARK VINA RESULT:      -8.5      2.066      9.283
REMARK  Name = 
REMARK  6 active torsions:
REMARK  status: ('A' for Active; 'I' for Inactive)
REMARK    1  A    between atoms: C_1  and  C_2
REMARK    2  A    between atoms: C_5  and  N_6
REMARK    3  A    between atoms: C_7  and  C_9
REMARK    4  A    between atoms: C_13  and  C_14
REMARK    5  A    between atoms: C_18  and  C_19
REMARK    6  A    between atoms: C_21  and  C_22
REMARK                            x       y       z     vdW  Elec       q    Type
REMARK                         _______ _______ _______ _____ _____    ______ ____
ROOT
ATOM      1  N   UNL     1       1.492   8.237  18.677  0.00  0.00    +0.000 N 
ATOM      2  C   UNL     1       1.360   9.544  18.211  0.00  0.00    +0.000 C 
ATOM      3  O   UNL     1       2.227  10.126  17.562  0.00  0.00    +0.000 OA
ATOM      4  H   UNL     1       0.700   7.896  19.200  0.00  0.00    +0.000 HD
ENDROOT
BRANCH   1   9
ATOM      5  C   UNL     1       5.798   4.526  17.736  0.00  0.00    +0.000 C 
ATOM      6  C   UNL     1       4.675   5.490  18.021  0.00  0.00    +0.000 A 
ATOM      7  C   UNL     1       4.620   6.694  17.320  0.00  0.00    +0.000 A 
ATOM      8  C   UNL     1       3.585   7.597  17.544  0.00  0.00    +0.000 A 
ATOM      9  C   UNL     1       2.578   7.327  18.476  0.00  0.00    +0.000 A 
ATOM     10  C   UNL     1       2.645   6.102  19.222  0.00  0.00    +0.000 A 
ATOM     11  C   UNL     1       1.724   5.708  20.225  0.00  0.00    +0.000 A 
ATOM     12  C   UNL     1       1.861   4.501  20.905  0.00  0.00    +0.000 A 
ATOM     13  C   UNL     1       2.920   3.690  20.573  0.00  0.00    +0.000 A 
ATOM     14  N   UNL     1       3.825   4.010  19.633  0.00  0.00    +0.000 NA
ATOM     15  C   UNL     1       3.707   5.183  18.975  0.00  0.00    +0.000 A 
ENDBRANCH   1   9
BRANCH   2  16
ATOM     16  C   UNL     1       0.089  10.225  18.534  0.00  0.00    +0.000 A 
ATOM     17  S   UNL     1      -1.302  10.025  17.559  0.00  0.00    +0.000 S 
ATOM     18  C   UNL     1      -2.245  11.038  18.546  0.00  0.00    +0.000 A 
ATOM     19  N   UNL     1      -3.532  11.257  18.232  0.00  0.00    +0.000 NA
ATOM     20  C   UNL     1      -4.177  12.061  19.088  0.00  0.00    +0.000 A 
ATOM     21  N   UNL     1      -3.602  12.629  20.164  0.00  0.00    +0.000 NA
ATOM     22  C   UNL     1      -2.298  12.396  20.469  0.00  0.00    +0.000 A 
ATOM     23  C   UNL     1      -1.804  13.075  21.708  0.00  0.00    +0.000 C 
ATOM     24  C   UNL     1      -1.545  11.552  19.625  0.00  0.00    +0.000 A 
ATOM     25  C   UNL     1      -0.166  11.077  19.617  0.00  0.00    +0.000 A 
ATOM     26  C   UNL     1       0.880  11.440  20.632  0.00  0.00    +0.000 C 
BRANCH  20  27
ATOM     27  C   UNL     1      -5.642  12.358  18.849  0.00  0.00    +0.000 C 
ATOM     28  C   UNL     1      -6.704  11.618  19.637  0.00  0.00    +0.000 C 
ATOM     29  C   UNL     1      -6.526  11.332  18.177  0.00  0.00    +0.000 C 
ENDBRANCH  20  27
ENDBRANCH   2  16
TORSDOF 3
ENDMDL
MODEL 8
REMARK VINA RESULT:      -8.5      2.051      9.237
REMARK  Name = 
REMARK  6 active torsions:
REMARK  status: ('A' for Active; 'I' for Inactive)
REMARK    1  A    between atoms: C_1  and  C_2
REMARK    2  A    between atoms: C_5  and  N_6
REMARK    3  A    between atoms: C_7  and  C_9
REMARK    4  A    between atoms: C_13  and  C_14
REMARK    5  A    between atoms: C_18  and  C_19
REMARK    6  A    between atoms: C_21  and  C_22
REMARK                            x       y       z     vdW  Elec       q    Type
REMARK                         _______ _______ _______ _____ _____    ______ ____
ROOT
ATOM      1  N   UNL     1       2.314   7.544  18.621  0.00  0.00    +0.000 N 
ATOM      2  C   UNL     1       2.015   7.624  19.980  0.00  0.00    +0.000 C 
ATOM      3  O   UNL     1       2.452   6.840  20.820  0.00  0.00    +0.000 OA
ATOM      4  H   UNL     1       1.876   8.253  18.052  0.00  0.00    +0.000 HD
ENDROOT
BRANCH   1   9
ATOM      5  C   UNL     1       5.739   3.868  15.799  0.00  0.00    +0.000 C 
ATOM      6  C   UNL     1       4.838   4.803  16.566  0.00  0.00    +0.000 A 
ATOM      7  C   UNL     1       5.169   6.156  16.640  0.00  0.00    +0.000 A 
ATOM      8  C   UNL     1       4.349   7.049  17.323  0.00  0.00    +0.000 A 
ATOM      9  C   UNL     1       3.177   6.618  17.953  0.00  0.00    +0.000 A 
ATOM     10  C   UNL     1       2.847   5.221  17.906  0.00  0.00    +0.000 A 
ATOM     11  C   UNL     1       1.718   4.631  18.529  0.00  0.00    +0.000 A 
ATOM     12  C   UNL     1       1.469   3.264  18.436  0.00  0.00    +0.000 A 
ATOM     13  C   UNL     1       2.350   2.495  17.713  0.00  0.00    +0.000 A 
ATOM     14  N   UNL     1       3.436   2.998  17.103  0.00  0.00    +0.000 NA
ATOM     15  C   UNL     1       3.693   4.321  17.196  0.00  0.00    +0.000 A 
ENDBRANCH   1   9
BRANCH   2  16
ATOM     16  C   UNL     1       1.124   8.731  20.386  0.00  0.00    +0.000 A 
ATOM     17  S   UNL     1       0.740   9.009  22.030  0.00  0.00    +0.000 S 
ATOM     18  C   UNL     1      -0.231  10.355  21.664  0.00  0.00    +0.000 A 
ATOM     19  N   UNL     1      -0.834  11.027  22.659  0.00  0.00    +0.000 NA
ATOM     20  C   UNL     1      -1.562  12.074  22.252  0.00  0.00    +0.000 A 
ATOM     21  N   UNL     1      -1.709  12.432  20.963  0.00  0.00    +0.000 NA
ATOM     22  C   UNL     1      -1.090  11.743  19.968  0.00  0.00    +0.000 A 
ATOM     23  C   UNL     1      -1.326  12.273  18.587  0.00  0.00    +0.000 C 
ATOM     24  C   UNL     1      -0.294  10.629  20.308  0.00  0.00    +0.000 A 
ATOM     25  C   UNL     1       0.501   9.668  19.551  0.00  0.00    +0.000 A 
ATOM     26  C   UNL     1       0.653   9.658  18.057  0.00  0.00    +0.000 C 
BRANCH  20  27
ATOM     27  C   UNL     1      -2.268  12.922  23.290  0.00  0.00    +0.000 C 
ATOM     28  C   UNL     1      -3.636  12.515  23.799  0.00  0.00    +0.000 C 
ATOM     29  C   UNL     1      -3.498  13.715  22.913  0.00  0.00    +0.000 C 
ENDBRANCH  20  27
ENDBRANCH   2  16
TORSDOF 3
ENDMDL
MODEL 9
REMARK VINA RESULT:      -8.4      1.409      1.616
REMARK  Name = 
REMARK  6 active torsions:
REMARK  status: ('A' for Active; 'I' for Inactive)
REMARK    1  A    between atoms: C_1  and  C_2
REMARK    2  A    between atoms: C_5  and  N_6
REMARK    3  A    between atoms: C_7  and  C_9
REMARK    4  A    between atoms: C_13  and  C_14
REMARK    5  A    between atoms: C_18  and  C_19
REMARK    6  A    between atoms: C_21  and  C_22
REMARK                            x       y       z     vdW  Elec       q    Type
REMARK                         _______ _______ _______ _____ _____    ______ ____
ROOT
ATOM      1  N   UNL     1       1.544   8.236  20.071  0.00  0.00    +0.000 N 
ATOM      2  C   UNL     1       1.661   6.864  20.289  0.00  0.00    +0.000 C 
ATOM      3  O   UNL     1       1.102   6.273  21.210  0.00  0.00    +0.000 OA
ATOM      4  H   UNL     1       2.066   8.581  19.279  0.00  0.00    +0.000 HD
ENDROOT
BRANCH   1   9
ATOM      5  C   UNL     1      -1.708  11.961  23.030  0.00  0.00    +0.000 C 
ATOM      6  C   UNL     1      -0.848  11.015  22.230  0.00  0.00    +0.000 A 
ATOM      7  C   UNL     1      -0.008  10.128  22.903  0.00  0.00    +0.000 A 
ATOM      8  C   UNL     1       0.783   9.228  22.194  0.00  0.00    +0.000 A 
ATOM      9  C   UNL     1       0.761   9.189  20.797  0.00  0.00    +0.000 A 
ATOM     10  C   UNL     1      -0.080  10.120  20.098  0.00  0.00    +0.000 A 
ATOM     11  C   UNL     1      -0.178  10.229  18.688  0.00  0.00    +0.000 A 
ATOM     12  C   UNL     1      -1.019  11.162  18.087  0.00  0.00    +0.000 A 
ATOM     13  C   UNL     1      -1.763  11.980  18.903  0.00  0.00    +0.000 A 
ATOM     14  N   UNL     1      -1.710  11.925  20.245  0.00  0.00    +0.000 NA
ATOM     15  C   UNL     1      -0.890  11.030  20.837  0.00  0.00    +0.000 A 
ENDBRANCH   1   9
BRANCH   2  16
ATOM     16  C   UNL     1       2.508   6.123  19.332  0.00  0.00    +0.000 A 
ATOM     17  S   UNL     1       3.615   6.933  18.310  0.00  0.00    +0.000 S 
ATOM     18  C   UNL     1       4.154   5.484  17.603  0.00  0.00    +0.000 A 
ATOM     19  N   UNL     1       5.106   5.522  16.656  0.00  0.00    +0.000 NA
ATOM     20  C   UNL     1       5.458   4.321  16.181  0.00  0.00    +0.000 A 
ATOM     21  N   UNL     1       4.906   3.162  16.586  0.00  0.00    +0.000 NA
ATOM     22  C   UNL     1       3.944   3.140  17.547  0.00  0.00    +0.000 A 
ATOM     23  C   UNL     1       3.443   1.777  17.913  0.00  0.00    +0.000 C 
ATOM     24  C   UNL     1       3.520   4.362  18.110  0.00  0.00    +0.000 A 
ATOM     25  C   UNL     1       2.544   4.738  19.127  0.00  0.00    +0.000 A 
ATOM     26  C   UNL     1       1.669   3.778  19.882  0.00  0.00    +0.000 C 
BRANCH  20  27
ATOM     27  C   UNL     1       6.542   4.239  15.128  0.00  0.00    +0.000 C 
ATOM     28  C   UNL     1       6.484   5.138  13.909  0.00  0.00    +0.000 C 
ATOM     29  C   UNL     1       6.232   3.668  13.762  0.00  0.00    +0.000 C 
ENDBRANCH  20  27
ENDBRANCH   2  16
TORSDOF 3
ENDMDL
