MODEL 1
REMARK VINA RESULT:      -7.1      0.000      0.000
REMARK  Name = 
REMARK  7 active torsions:
REMARK  status: ('A' for Active; 'I' for Inactive)
REMARK    1  A    between atoms: C_1  and  C_2
REMARK    2  A    between atoms: C_4  and  C_5
REMARK    3  A    between atoms: C_5  and  C_6
REMARK    4  A    between atoms: C_6  and  C_7
REMARK    5  A    between atoms: N_11  and  C_12
REMARK    6  A    between atoms: C_14  and  N_15
REMARK    7  A    between atoms: C_22  and  C_23
REMARK                            x       y       z     vdW  Elec       q    Type
REMARK                         _______ _______ _______ _____ _____    ______ ____
ROOT
ATOM      1  C   UNL     1      -3.132  10.124  14.712  0.00  0.00    +0.000 C 
ATOM      2  C   UNL     1      -2.960  10.581  16.132  0.00  0.00    +0.000 A 
ATOM      3  C   UNL     1      -4.058  11.032  16.877  0.00  0.00    +0.000 A 
ATOM      4  C   UNL     1      -3.891  11.465  18.197  0.00  0.00    +0.000 A 
ATOM      5  C   UNL     1      -2.611  11.465  18.752  0.00  0.00    +0.000 A 
ATOM      6  C   UNL     1      -1.574  10.767  18.117  0.00  0.00    +0.000 A 
ATOM      7  C   UNL     1      -1.711  10.455  16.759  0.00  0.00    +0.000 A 
ENDROOT
BRANCH   6   8
ATOM      8  N   UNL     1      -0.613  10.035  18.951  0.00  0.00    +0.000 N 
ATOM      9  C   UNL     1      -0.889  10.187  20.398  0.00  0.00    +0.000 C 
ATOM     10  C   UNL     1      -0.061  11.387  20.754  0.00  0.00    +0.000 A 
ATOM     11  C   UNL     1       0.969  11.486  19.817  0.00  0.00    +0.000 A 
ATOM     12  C   UNL     1       1.794  12.590  19.720  0.00  0.00    +0.000 A 
ATOM     13  C   UNL     1       1.576  13.628  20.623  0.00  0.00    +0.000 A 
ATOM     14  C   UNL     1       0.570  13.527  21.602  0.00  0.00    +0.000 A 
ATOM     15  C   UNL     1      -0.262  12.391  21.695  0.00  0.00    +0.000 A 
ATOM     16  C   UNL     1       0.740  10.446  18.792  0.00  0.00    +0.000 C 
ATOM     17  O   UNL     1       1.517  10.189  17.887  0.00  0.00    +0.000 OA
BRANCH  15  18
ATOM     18  C   UNL     1      -1.350  12.344  22.734  0.00  0.00    +0.000 C 
ATOM     19  F   UNL     1      -2.609  12.360  22.214  0.00  0.00    +0.000 F 
ATOM     20  F   UNL     1      -1.286  11.217  23.495  0.00  0.00    +0.000 F 
ATOM     21  F   UNL     1      -1.294  13.388  23.606  0.00  0.00    +0.000 F 
ENDBRANCH  15  18
ENDBRANCH   6   8
BRANCH   4  22
ATOM     22  C   UNL     1      -5.072  11.656  19.123  0.00  0.00    +0.000 C 
BRANCH  22  23
ATOM     23  C   UNL     1      -5.058  12.932  19.967  0.00  0.00    +0.000 C 
BRANCH  23  24
ATOM     24  C   UNL     1      -5.802  12.717  21.247  0.00  0.00    +0.000 A 
ATOM     25  N   UNL     1      -6.628  11.723  21.513  0.00  0.00    +0.000 NA
ATOM     26  N   UNL     1      -7.098  11.876  22.794  0.00  0.00    +0.000 NA
ATOM     27  C   UNL     1      -6.559  12.965  23.283  0.00  0.00    +0.000 A 
ATOM     28  N   UNL     1      -5.737  13.525  22.354  0.00  0.00    +0.000 N 
ATOM     29  C   UNL     1      -4.965  14.725  22.529  0.00  0.00    +0.000 C 
ENDBRANCH  23  24
ENDBRANCH  22  23
ENDBRANCH   4  22
TORSDOF 5
ENDMDL
MODEL 2
REMARK VINA RESULT:      -7.1      1.583      2.119
REMARK  Name = 
REMARK  7 active torsions:
REMARK  status: ('A' for Active; 'I' for Inactive)
REMARK    1  A    between atoms: C_1  and  C_2
REMARK    2  A    between atoms: C_4  and  C_5
REMARK    3  A    between atoms: C_5  and  C_6
REMARK    4  A    between atoms: C_6  and  C_7
REMARK    5  A    between atoms: N_11  and  C_12
REMARK    6  A    between atoms: C_14  and  N_15
REMARK    7  A    between atoms: C_22  and  C_23
REMARK                            x       y       z     vdW  Elec       q    Type
REMARK                         _______ _______ _______ _____ _____    ______ ____
ROOT
ATOM      1  C   UNL     1      -3.262   9.594  14.846  0.00  0.00    +0.000 C 
ATOM      2  C   UNL     1      -3.050  10.292  16.159  0.00  0.00    +0.000 A 
ATOM      3  C   UNL     1      -4.118  10.916  16.818  0.00  0.00    +0.000 A 
ATOM      4  C   UNL     1      -3.915  11.573  18.037  0.00  0.00    +0.000 A 
ATOM      5  C   UNL     1      -2.627  11.620  18.572  0.00  0.00    +0.000 A 
ATOM      6  C   UNL     1      -1.628  10.777  18.067  0.00  0.00    +0.000 A 
ATOM      7  C   UNL     1      -1.799  10.231  16.788  0.00  0.00    +0.000 A 
ENDROOT
BRANCH   6   8
ATOM      8  N   UNL     1      -0.684  10.167  19.011  0.00  0.00    +0.000 N 
ATOM      9  C   UNL     1      -0.669  10.860  20.321  0.00  0.00    +0.000 C 
ATOM     10  C   UNL     1       0.412  11.883  20.126  0.00  0.00    +0.000 A 
ATOM     11  C   UNL     1       1.262  11.417  19.121  0.00  0.00    +0.000 A 
ATOM     12  C   UNL     1       2.243  12.199  18.543  0.00  0.00    +0.000 A 
ATOM     13  C   UNL     1       2.379  13.502  19.017  0.00  0.00    +0.000 A 
ATOM     14  C   UNL     1       1.559  13.975  20.059  0.00  0.00    +0.000 A 
ATOM     15  C   UNL     1       0.565  13.164  20.646  0.00  0.00    +0.000 A 
ATOM     16  C   UNL     1       0.671  10.176  18.579  0.00  0.00    +0.000 C 
ATOM     17  O   UNL     1       1.217   9.454  17.760  0.00  0.00    +0.000 OA
BRANCH  15  18
ATOM     18  C   UNL     1      -0.314  13.725  21.732  0.00  0.00    +0.000 C 
ATOM     19  F   UNL     1       0.179  14.854  22.310  0.00  0.00    +0.000 F 
ATOM     20  F   UNL     1      -1.549  14.062  21.270  0.00  0.00    +0.000 F 
ATOM     21  F   UNL     1      -0.522  12.845  22.750  0.00  0.00    +0.000 F 
ENDBRANCH  15  18
ENDBRANCH   6   8
BRANCH   4  22
ATOM     22  C   UNL     1      -5.072  11.976  18.922  0.00  0.00    +0.000 C 
BRANCH  22  23
ATOM     23  C   UNL     1      -6.440  11.412  18.530  0.00  0.00    +0.000 C 
BRANCH  23  24
ATOM     24  C   UNL     1      -6.967  10.524  19.612  0.00  0.00    +0.000 A 
ATOM     25  N   UNL     1      -6.892   9.207  19.647  0.00  0.00    +0.000 NA
ATOM     26  N   UNL     1      -7.481   8.767  20.807  0.00  0.00    +0.000 NA
ATOM     27  C   UNL     1      -7.911   9.822  21.455  0.00  0.00    +0.000 A 
ATOM     28  N   UNL     1      -7.609  10.946  20.748  0.00  0.00    +0.000 N 
ATOM     29  C   UNL     1      -7.915  12.293  21.144  0.00  0.00    +0.000 C 
ENDBRANCH  23  24
ENDBRANCH  22  23
ENDBRANCH   4  22
TORSDOF 5
ENDMDL
MODEL 3
REMARK VINA RESULT:      -7.0      2.806      3.689
REMARK  Name = 
REMARK  7 active torsions:
REMARK  status: ('A' for Active; 'I' for Inactive)
REMARK    1  A    between atoms: C_1  and  C_2
REMARK    2  A    between atoms: C_4  and  C_5
REMARK    3  A    between atoms: C_5  and  C_6
REMARK    4  A    between atoms: C_6  and  C_7
REMARK    5  A    between atoms: N_11  and  C_12
REMARK    6  A    between atoms: C_14  and  N_15
REMARK    7  A    between atoms: C_22  and  C_23
REMARK                            x       y       z     vdW  Elec       q    Type
REMARK                         _______ _______ _______ _____ _____    ______ ____
ROOT
ATOM      1  C   UNL     1      -2.785  10.603  16.726  0.00  0.00    +0.000 C 
ATOM      2  C   UNL     1      -2.629  11.532  17.895  0.00  0.00    +0.000 A 
ATOM      3  C   UNL     1      -3.655  11.671  18.841  0.00  0.00    +0.000 A 
ATOM      4  C   UNL     1      -3.508  12.544  19.924  0.00  0.00    +0.000 A 
ATOM      5  C   UNL     1      -2.337  13.294  20.035  0.00  0.00    +0.000 A 
ATOM      6  C   UNL     1      -1.217  12.959  19.261  0.00  0.00    +0.000 A 
ATOM      7  C   UNL     1      -1.407  12.187  18.109  0.00  0.00    +0.000 A 
ENDROOT
BRANCH   6   8
ATOM      8  N   UNL     1       0.111  13.049  19.880  0.00  0.00    +0.000 N 
ATOM      9  C   UNL     1       1.086  12.117  19.266  0.00  0.00    +0.000 C 
ATOM     10  C   UNL     1       0.932  10.891  20.118  0.00  0.00    +0.000 A 
ATOM     11  C   UNL     1       0.430  11.295  21.357  0.00  0.00    +0.000 A 
ATOM     12  C   UNL     1      -0.026  10.405  22.310  0.00  0.00    +0.000 A 
ATOM     13  C   UNL     1       0.047   9.048  21.999  0.00  0.00    +0.000 A 
ATOM     14  C   UNL     1       0.589   8.622  20.773  0.00  0.00    +0.000 A 
ATOM     15  C   UNL     1       1.058   9.541  19.810  0.00  0.00    +0.000 A 
ATOM     16  C   UNL     1       0.138  12.741  21.268  0.00  0.00    +0.000 C 
ATOM     17  O   UNL     1      -0.212  13.431  22.212  0.00  0.00    +0.000 OA
BRANCH  15  18
ATOM     18  C   UNL     1       1.595   9.040  18.496  0.00  0.00    +0.000 C 
ATOM     19  F   UNL     1       1.941   7.723  18.509  0.00  0.00    +0.000 F 
ATOM     20  F   UNL     1       0.688   9.167  17.489  0.00  0.00    +0.000 F 
ATOM     21  F   UNL     1       2.705   9.713  18.088  0.00  0.00    +0.000 F 
ENDBRANCH  15  18
ENDBRANCH   6   8
BRANCH   4  22
ATOM     22  C   UNL     1      -4.438  12.490  21.116  0.00  0.00    +0.000 C 
BRANCH  22  23
ATOM     23  C   UNL     1      -5.902  12.835  20.836  0.00  0.00    +0.000 C 
BRANCH  23  24
ATOM     24  C   UNL     1      -6.694  12.815  22.105  0.00  0.00    +0.000 A 
ATOM     25  N   UNL     1      -7.313  11.771  22.623  0.00  0.00    +0.000 NA
ATOM     26  N   UNL     1      -7.915  12.158  23.795  0.00  0.00    +0.000 NA
ATOM     27  C   UNL     1      -7.659  13.431  23.968  0.00  0.00    +0.000 A 
ATOM     28  N   UNL     1      -6.894  13.887  22.938  0.00  0.00    +0.000 N 
ATOM     29  C   UNL     1      -6.408  15.231  22.784  0.00  0.00    +0.000 C 
ENDBRANCH  23  24
ENDBRANCH  22  23
ENDBRANCH   4  22
TORSDOF 5
ENDMDL
MODEL 4
REMARK VINA RESULT:      -6.8      5.693      7.763
REMARK  Name = 
REMARK  7 active torsions:
REMARK  status: ('A' for Active; 'I' for Inactive)
REMARK    1  A    between atoms: C_1  and  C_2
REMARK    2  A    between atoms: C_4  and  C_5
REMARK    3  A    between atoms: C_5  and  C_6
REMARK    4  A    between atoms: C_6  and  C_7
REMARK    5  A    between atoms: N_11  and  C_12
REMARK    6  A    between atoms: C_14  and  N_15
REMARK    7  A    between atoms: C_22  and  C_23
REMARK                            x       y       z     vdW  Elec       q    Type
REMARK                         _______ _______ _______ _____ _____    ______ ____
ROOT
ATOM      1  C   UNL     1       2.325  10.679  17.628  0.00  0.00    +0.000 C 
ATOM      2  C   UNL     1       2.373   9.335  18.295  0.00  0.00    +0.000 A 
ATOM      3  C   UNL     1       1.772   9.134  19.546  0.00  0.00    +0.000 A 
ATOM      4  C   UNL     1       1.828   7.882  20.168  0.00  0.00    +0.000 A 
ATOM      5  C   UNL     1       2.513   6.844  19.537  0.00  0.00    +0.000 A 
ATOM      6  C   UNL     1       2.870   6.961  18.187  0.00  0.00    +0.000 A 
ATOM      7  C   UNL     1       2.929   8.239  17.619  0.00  0.00    +0.000 A 
ENDROOT
BRANCH   6   8
ATOM      8  N   UNL     1       2.753   5.775  17.328  0.00  0.00    +0.000 N 
ATOM      9  C   UNL     1       1.766   4.798  17.845  0.00  0.00    +0.000 C 
ATOM     10  C   UNL     1       2.617   3.912  18.705  0.00  0.00    +0.000 A 
ATOM     11  C   UNL     1       3.931   4.004  18.240  0.00  0.00    +0.000 A 
ATOM     12  C   UNL     1       5.010   3.481  18.927  0.00  0.00    +0.000 A 
ATOM     13  C   UNL     1       4.743   2.823  20.126  0.00  0.00    +0.000 A 
ATOM     14  C   UNL     1       3.421   2.685  20.588  0.00  0.00    +0.000 A 
ATOM     15  C   UNL     1       2.326   3.216  19.874  0.00  0.00    +0.000 A 
ATOM     16  C   UNL     1       3.957   5.033  17.181  0.00  0.00    +0.000 C 
ATOM     17  O   UNL     1       4.931   5.284  16.489  0.00  0.00    +0.000 OA
BRANCH  15  18
ATOM     18  C   UNL     1       0.933   3.077  20.426  0.00  0.00    +0.000 C 
ATOM     19  F   UNL     1       0.311   4.266  20.659  0.00  0.00    +0.000 F 
ATOM     20  F   UNL     1       0.111   2.396  19.581  0.00  0.00    +0.000 F 
ATOM     21  F   UNL     1       0.898   2.401  21.607  0.00  0.00    +0.000 F 
ENDBRANCH  15  18
ENDBRANCH   6   8
BRANCH   4  22
ATOM     22  C   UNL     1       0.939   7.543  21.344  0.00  0.00    +0.000 C 
BRANCH  22  23
ATOM     23  C   UNL     1      -0.483   8.105  21.289  0.00  0.00    +0.000 C 
BRANCH  23  24
ATOM     24  C   UNL     1      -0.536   9.450  21.942  0.00  0.00    +0.000 A 
ATOM     25  N   UNL     1      -0.350   9.705  23.223  0.00  0.00    +0.000 NA
ATOM     26  N   UNL     1      -0.470  11.058  23.422  0.00  0.00    +0.000 NA
ATOM     27  C   UNL     1      -0.736  11.604  22.261  0.00  0.00    +0.000 A 
ATOM     28  N   UNL     1      -0.784  10.639  21.303  0.00  0.00    +0.000 N 
ATOM     29  C   UNL     1      -1.042  10.855  19.906  0.00  0.00    +0.000 C 
ENDBRANCH  23  24
ENDBRANCH  22  23
ENDBRANCH   4  22
TORSDOF 5
ENDMDL
MODEL 5
REMARK VINA RESULT:      -6.6      2.320      3.069
REMARK  Name = 
REMARK  7 active torsions:
REMARK  status: ('A' for Active; 'I' for Inactive)
REMARK    1  A    between atoms: C_1  and  C_2
REMARK    2  A    between atoms: C_4  and  C_5
REMARK    3  A    between atoms: C_5  and  C_6
REMARK    4  A    between atoms: C_6  and  C_7
REMARK    5  A    between atoms: N_11  and  C_12
REMARK    6  A    between atoms: C_14  and  N_15
REMARK    7  A    between atoms: C_22  and  C_23
REMARK                            x       y       z     vdW  Elec       q    Type
REMARK                         _______ _______ _______ _____ _____    ______ ____
ROOT
ATOM      1  C   UNL     1      -2.381   9.761  16.463  0.00  0.00    +0.000 C 
ATOM      2  C   UNL     1      -2.410  10.887  17.456  0.00  0.00    +0.000 A 
ATOM      3  C   UNL     1      -3.554  11.131  18.229  0.00  0.00    +0.000 A 
ATOM      4  C   UNL     1      -3.580  12.186  19.147  0.00  0.00    +0.000 A 
ATOM      5  C   UNL     1      -2.458  13.008  19.263  0.00  0.00    +0.000 A 
ATOM      6  C   UNL     1      -1.237  12.607  18.705  0.00  0.00    +0.000 A 
ATOM      7  C   UNL     1      -1.249  11.636  17.695  0.00  0.00    +0.000 A 
ENDROOT
BRANCH   6   8
ATOM      8  N   UNL     1      -0.004  12.879  19.454  0.00  0.00    +0.000 N 
ATOM      9  C   UNL     1       0.688  11.637  19.873  0.00  0.00    +0.000 C 
ATOM     10  C   UNL     1       0.093  11.384  21.227  0.00  0.00    +0.000 A 
ATOM     11  C   UNL     1      -0.367  12.605  21.724  0.00  0.00    +0.000 A 
ATOM     12  C   UNL     1      -1.155  12.708  22.854  0.00  0.00    +0.000 A 
ATOM     13  C   UNL     1      -1.474  11.524  23.517  0.00  0.00    +0.000 A 
ATOM     14  C   UNL     1      -0.983  10.289  23.054  0.00  0.00    +0.000 A 
ATOM     15  C   UNL     1      -0.173  10.198  21.902  0.00  0.00    +0.000 A 
ATOM     16  C   UNL     1      -0.195  13.613  20.658  0.00  0.00    +0.000 C 
ATOM     17  O   UNL     1      -0.398  14.808  20.801  0.00  0.00    +0.000 OA
BRANCH  15  18
ATOM     18  C   UNL     1       0.297   8.850  21.423  0.00  0.00    +0.000 C 
ATOM     19  F   UNL     1       1.421   8.405  22.049  0.00  0.00    +0.000 F 
ATOM     20  F   UNL     1      -0.638   7.881  21.620  0.00  0.00    +0.000 F 
ATOM     21  F   UNL     1       0.580   8.833  20.092  0.00  0.00    +0.000 F 
ENDBRANCH  15  18
ENDBRANCH   6   8
BRANCH   4  22
ATOM     22  C   UNL     1      -4.653  12.288  20.207  0.00  0.00    +0.000 C 
BRANCH  22  23
ATOM     23  C   UNL     1      -4.445  13.372  21.266  0.00  0.00    +0.000 C 
BRANCH  23  24
ATOM     24  C   UNL     1      -5.205  13.038  22.511  0.00  0.00    +0.000 A 
ATOM     25  N   UNL     1      -4.788  12.267  23.497  0.00  0.00    +0.000 NA
ATOM     26  N   UNL     1      -5.768  12.218  24.457  0.00  0.00    +0.000 NA
ATOM     27  C   UNL     1      -6.768  12.953  24.037  0.00  0.00    +0.000 A 
ATOM     28  N   UNL     1      -6.461  13.491  22.824  0.00  0.00    +0.000 N 
ATOM     29  C   UNL     1      -7.308  14.359  22.052  0.00  0.00    +0.000 C 
ENDBRANCH  23  24
ENDBRANCH  22  23
ENDBRANCH   4  22
TORSDOF 5
ENDMDL
MODEL 6
REMARK VINA RESULT:      -6.6      4.187      7.882
REMARK  Name = 
REMARK  7 active torsions:
REMARK  status: ('A' for Active; 'I' for Inactive)
REMARK    1  A    between atoms: C_1  and  C_2
REMARK    2  A    between atoms: C_4  and  C_5
REMARK    3  A    between atoms: C_5  and  C_6
REMARK    4  A    between atoms: C_6  and  C_7
REMARK    5  A    between atoms: N_11  and  C_12
REMARK    6  A    between atoms: C_14  and  N_15
REMARK    7  A    between atoms: C_22  and  C_23
REMARK                            x       y       z     vdW  Elec       q    Type
REMARK                         _______ _______ _______ _____ _____    ______ ____
ROOT
ATOM      1  C   UNL     1      -0.078   9.622  23.205  0.00  0.00    +0.000 C 
ATOM      2  C   UNL     1       0.531   9.371  21.856  0.00  0.00    +0.000 A 
ATOM      3  C   UNL     1       1.071   8.118  21.536  0.00  0.00    +0.000 A 
ATOM      4  C   UNL     1       1.645   7.891  20.280  0.00  0.00    +0.000 A 
ATOM      5  C   UNL     1       1.697   8.939  19.361  0.00  0.00    +0.000 A 
ATOM      6  C   UNL     1       0.925  10.091  19.570  0.00  0.00    +0.000 A 
ATOM      7  C   UNL     1       0.466  10.362  20.865  0.00  0.00    +0.000 A 
ENDROOT
BRANCH   6   8
ATOM      8  N   UNL     1       0.282  10.720  18.411  0.00  0.00    +0.000 N 
ATOM      9  C   UNL     1       0.666  12.142  18.253  0.00  0.00    +0.000 C 
ATOM     10  C   UNL     1      -0.397  12.848  19.043  0.00  0.00    +0.000 A 
ATOM     11  C   UNL     1      -1.515  12.012  19.093  0.00  0.00    +0.000 A 
ATOM     12  C   UNL     1      -2.601  12.256  19.911  0.00  0.00    +0.000 A 
ATOM     13  C   UNL     1      -2.558  13.404  20.699  0.00  0.00    +0.000 A 
ATOM     14  C   UNL     1      -1.458  14.280  20.631  0.00  0.00    +0.000 A 
ATOM     15  C   UNL     1      -0.358  14.024  19.785  0.00  0.00    +0.000 A 
ATOM     16  C   UNL     1      -1.140  10.731  18.459  0.00  0.00    +0.000 C 
ATOM     17  O   UNL     1      -1.920   9.818  18.240  0.00  0.00    +0.000 OA
BRANCH  15  18
ATOM     18  C   UNL     1       0.813  14.969  19.773  0.00  0.00    +0.000 C 
ATOM     19  F   UNL     1       1.965  14.425  20.255  0.00  0.00    +0.000 F 
ATOM     20  F   UNL     1       1.112  15.401  18.517  0.00  0.00    +0.000 F 
ATOM     21  F   UNL     1       0.594  16.091  20.513  0.00  0.00    +0.000 F 
ENDBRANCH  15  18
ENDBRANCH   6   8
BRANCH   4  22
ATOM     22  C   UNL     1       1.946   6.493  19.788  0.00  0.00    +0.000 C 
BRANCH  22  23
ATOM     23  C   UNL     1       2.465   6.389  18.352  0.00  0.00    +0.000 C 
BRANCH  23  24
ATOM     24  C   UNL     1       2.623   4.954  17.958  0.00  0.00    +0.000 A 
ATOM     25  N   UNL     1       1.695   4.185  17.420  0.00  0.00    +0.000 NA
ATOM     26  N   UNL     1       2.234   2.942  17.197  0.00  0.00    +0.000 NA
ATOM     27  C   UNL     1       3.477   2.972  17.610  0.00  0.00    +0.000 A 
ATOM     28  N   UNL     1       3.768   4.212  18.091  0.00  0.00    +0.000 N 
ATOM     29  C   UNL     1       5.036   4.628  18.625  0.00  0.00    +0.000 C 
ENDBRANCH  23  24
ENDBRANCH  22  23
ENDBRANCH   4  22
TORSDOF 5
ENDMDL
MODEL 7
REMARK VINA RESULT:      -6.6      5.168      8.781
REMARK  Name = 
REMARK  7 active torsions:
REMARK  status: ('A' for Active; 'I' for Inactive)
REMARK    1  A    between atoms: C_1  and  C_2
REMARK    2  A    between atoms: C_4  and  C_5
REMARK    3  A    between atoms: C_5  and  C_6
REMARK    4  A    between atoms: C_6  and  C_7
REMARK    5  A    between atoms: N_11  and  C_12
REMARK    6  A    between atoms: C_14  and  N_15
REMARK    7  A    between atoms: C_22  and  C_23
REMARK                            x       y       z     vdW  Elec       q    Type
REMARK                         _______ _______ _______ _____ _____    ______ ____
ROOT
ATOM      1  C   UNL     1       0.784  18.018  18.255  0.00  0.00    +0.000 C 
ATOM      2  C   UNL     1       1.291  16.608  18.355  0.00  0.00    +0.000 A 
ATOM      3  C   UNL     1       2.620  16.300  18.031  0.00  0.00    +0.000 A 
ATOM      4  C   UNL     1       3.086  14.983  18.117  0.00  0.00    +0.000 A 
ATOM      5  C   UNL     1       2.200  13.977  18.503  0.00  0.00    +0.000 A 
ATOM      6  C   UNL     1       0.970  14.314  19.084  0.00  0.00    +0.000 A 
ATOM      7  C   UNL     1       0.464  15.603  18.878  0.00  0.00    +0.000 A 
ENDROOT
BRANCH   6   8
ATOM      8  N   UNL     1       0.475  13.495  20.197  0.00  0.00    +0.000 N 
ATOM      9  C   UNL     1       1.016  12.116  20.170  0.00  0.00    +0.000 C 
ATOM     10  C   UNL     1      -0.018  11.386  19.364  0.00  0.00    +0.000 A 
ATOM     11  C   UNL     1      -1.218  12.092  19.473  0.00  0.00    +0.000 A 
ATOM     12  C   UNL     1      -2.325  11.818  18.693  0.00  0.00    +0.000 A 
ATOM     13  C   UNL     1      -2.216  10.773  17.778  0.00  0.00    +0.000 A 
ATOM     14  C   UNL     1      -1.028  10.024  17.685  0.00  0.00    +0.000 A 
ATOM     15  C   UNL     1       0.093  10.309  18.492  0.00  0.00    +0.000 A 
ATOM     16  C   UNL     1      -0.938  13.331  20.227  0.00  0.00    +0.000 C 
ATOM     17  O   UNL     1      -1.792  14.122  20.593  0.00  0.00    +0.000 OA
BRANCH  15  18
ATOM     18  C   UNL     1       1.356   9.504  18.330  0.00  0.00    +0.000 C 
ATOM     19  F   UNL     1       1.776   8.904  19.477  0.00  0.00    +0.000 F 
ATOM     20  F   UNL     1       1.210   8.498  17.425  0.00  0.00    +0.000 F 
ATOM     21  F   UNL     1       2.406  10.252  17.894  0.00  0.00    +0.000 F 
ENDBRANCH  15  18
ENDBRANCH   6   8
BRANCH   4  22
ATOM     22  C   UNL     1       4.563  14.663  18.086  0.00  0.00    +0.000 C 
BRANCH  22  23
ATOM     23  C   UNL     1       5.366  15.099  19.313  0.00  0.00    +0.000 C 
BRANCH  23  24
ATOM     24  C   UNL     1       6.446  16.056  18.916  0.00  0.00    +0.000 A 
ATOM     25  N   UNL     1       6.333  17.368  18.827  0.00  0.00    +0.000 NA
ATOM     26  N   UNL     1       7.545  17.885  18.444  0.00  0.00    +0.000 NA
ATOM     27  C   UNL     1       8.374  16.881  18.298  0.00  0.00    +0.000 A 
ATOM     28  N   UNL     1       7.733  15.715  18.586  0.00  0.00    +0.000 N 
ATOM     29  C   UNL     1       8.318  14.403  18.544  0.00  0.00    +0.000 C 
ENDBRANCH  23  24
ENDBRANCH  22  23
ENDBRANCH   4  22
TORSDOF 5
ENDMDL
MODEL 8
REMARK VINA RESULT:      -6.6      4.185      7.954
REMARK  Name = 
REMARK  7 active torsions:
REMARK  status: ('A' for Active; 'I' for Inactive)
REMARK    1  A    between atoms: C_1  and  C_2
REMARK    2  A    between atoms: C_4  and  C_5
REMARK    3  A    between atoms: C_5  and  C_6
REMARK    4  A    between atoms: C_6  and  C_7
REMARK    5  A    between atoms: N_11  and  C_12
REMARK    6  A    between atoms: C_14  and  N_15
REMARK    7  A    between atoms: C_22  and  C_23
REMARK                            x       y       z     vdW  Elec       q    Type
REMARK                         _______ _______ _______ _____ _____    ______ ____
ROOT
ATOM      1  C   UNL     1      -0.414   9.798  23.302  0.00  0.00    +0.000 C 
ATOM      2  C   UNL     1       0.270   9.579  21.984  0.00  0.00    +0.000 A 
ATOM      3  C   UNL     1       0.892   8.356  21.695  0.00  0.00    +0.000 A 
ATOM      4  C   UNL     1       1.536   8.159  20.468  0.00  0.00    +0.000 A 
ATOM      5  C   UNL     1       1.572   9.206  19.548  0.00  0.00    +0.000 A 
ATOM      6  C   UNL     1       0.730  10.314  19.715  0.00  0.00    +0.000 A 
ATOM      7  C   UNL     1       0.197  10.562  20.986  0.00  0.00    +0.000 A 
ENDROOT
BRANCH   6   8
ATOM      8  N   UNL     1       0.107  10.904  18.524  0.00  0.00    +0.000 N 
ATOM      9  C   UNL     1       0.457  12.333  18.352  0.00  0.00    +0.000 C 
ATOM     10  C   UNL     1      -0.651  13.023  19.095  0.00  0.00    +0.000 A 
ATOM     11  C   UNL     1      -1.746  12.156  19.124  0.00  0.00    +0.000 A 
ATOM     12  C   UNL     1      -2.864  12.384  19.903  0.00  0.00    +0.000 A 
ATOM     13  C   UNL     1      -2.879  13.547  20.670  0.00  0.00    +0.000 A 
ATOM     14  C   UNL     1      -1.802  14.452  20.620  0.00  0.00    +0.000 A 
ATOM     15  C   UNL     1      -0.668  14.212  19.815  0.00  0.00    +0.000 A 
ATOM     16  C   UNL     1      -1.316  10.876  18.527  0.00  0.00    +0.000 C 
ATOM     17  O   UNL     1      -2.063   9.937  18.300  0.00  0.00    +0.000 OA
BRANCH  15  18
ATOM     18  C   UNL     1       0.476  15.190  19.823  0.00  0.00    +0.000 C 
ATOM     19  F   UNL     1       1.629  14.683  20.342  0.00  0.00    +0.000 F 
ATOM     20  F   UNL     1       0.797  15.615  18.570  0.00  0.00    +0.000 F 
ATOM     21  F   UNL     1       0.206  16.313  20.543  0.00  0.00    +0.000 F 
ENDBRANCH  15  18
ENDBRANCH   6   8
BRANCH   4  22
ATOM     22  C   UNL     1       1.936   6.779  19.997  0.00  0.00    +0.000 C 
BRANCH  22  23
ATOM     23  C   UNL     1       2.879   6.732  18.792  0.00  0.00    +0.000 C 
BRANCH  23  24
ATOM     24  C   UNL     1       3.712   5.490  18.831  0.00  0.00    +0.000 A 
ATOM     25  N   UNL     1       4.912   5.371  19.364  0.00  0.00    +0.000 NA
ATOM     26  N   UNL     1       5.335   4.074  19.205  0.00  0.00    +0.000 NA
ATOM     27  C   UNL     1       4.388   3.427  18.571  0.00  0.00    +0.000 A 
ATOM     28  N   UNL     1       3.350   4.270  18.318  0.00  0.00    +0.000 N 
ATOM     29  C   UNL     1       2.129   3.919  17.646  0.00  0.00    +0.000 C 
ENDBRANCH  23  24
ENDBRANCH  22  23
ENDBRANCH   4  22
TORSDOF 5
ENDMDL
MODEL 9
REMARK VINA RESULT:      -6.6      4.019      7.423
REMARK  Name = 
REMARK  7 active torsions:
REMARK  status: ('A' for Active; 'I' for Inactive)
REMARK    1  A    between atoms: C_1  and  C_2
REMARK    2  A    between atoms: C_4  and  C_5
REMARK    3  A    between atoms: C_5  and  C_6
REMARK    4  A    between atoms: C_6  and  C_7
REMARK    5  A    between atoms: N_11  and  C_12
REMARK    6  A    between atoms: C_14  and  N_15
REMARK    7  A    between atoms: C_22  and  C_23
REMARK                            x       y       z     vdW  Elec       q    Type
REMARK                         _______ _______ _______ _____ _____    ______ ____
ROOT
ATOM      1  C   UNL     1      -0.461   9.052  22.802  0.00  0.00    +0.000 C 
ATOM      2  C   UNL     1       0.223   9.235  21.478  0.00  0.00    +0.000 A 
ATOM      3  C   UNL     1       1.063   8.239  20.961  0.00  0.00    +0.000 A 
ATOM      4  C   UNL     1       1.705   8.418  19.731  0.00  0.00    +0.000 A 
ATOM      5  C   UNL     1       1.517   9.614  19.039  0.00  0.00    +0.000 A 
ATOM      6  C   UNL     1       0.481  10.482  19.410  0.00  0.00    +0.000 A 
ATOM      7  C   UNL     1      -0.061  10.364  20.696  0.00  0.00    +0.000 A 
ENDROOT
BRANCH   6   8
ATOM      8  N   UNL     1      -0.271  11.165  18.351  0.00  0.00    +0.000 N 
ATOM      9  C   UNL     1       0.055  12.608  18.266  0.00  0.00    +0.000 C 
ATOM     10  C   UNL     1      -0.965  13.218  19.183  0.00  0.00    +0.000 A 
ATOM     11  C   UNL     1      -2.049  12.340  19.257  0.00  0.00    +0.000 A 
ATOM     12  C   UNL     1      -3.074  12.487  20.171  0.00  0.00    +0.000 A 
ATOM     13  C   UNL     1      -3.006  13.579  21.033  0.00  0.00    +0.000 A 
ATOM     14  C   UNL     1      -1.943  14.497  20.944  0.00  0.00    +0.000 A 
ATOM     15  C   UNL     1      -0.905  14.340  20.002  0.00  0.00    +0.000 A 
ATOM     16  C   UNL     1      -1.685  11.120  18.507  0.00  0.00    +0.000 C 
ATOM     17  O   UNL     1      -2.450  10.196  18.283  0.00  0.00    +0.000 OA
BRANCH  15  18
ATOM     18  C   UNL     1       0.231  15.327  19.969  0.00  0.00    +0.000 C 
ATOM     19  F   UNL     1       1.436  14.791  20.310  0.00  0.00    +0.000 F 
ATOM     20  F   UNL     1       0.409  15.864  18.731  0.00  0.00    +0.000 F 
ATOM     21  F   UNL     1       0.041  16.380  20.810  0.00  0.00    +0.000 F 
ENDBRANCH  15  18
ENDBRANCH   6   8
BRANCH   4  22
ATOM     22  C   UNL     1       2.352   7.263  19.001  0.00  0.00    +0.000 C 
BRANCH  22  23
ATOM     23  C   UNL     1       2.612   6.007  19.836  0.00  0.00    +0.000 C 
BRANCH  23  24
ATOM     24  C   UNL     1       2.013   4.807  19.173  0.00  0.00    +0.000 A 
ATOM     25  N   UNL     1       1.816   4.647  17.878  0.00  0.00    +0.000 NA
ATOM     26  N   UNL     1       1.257   3.411  17.670  0.00  0.00    +0.000 NA
ATOM     27  C   UNL     1       1.116   2.841  18.842  0.00  0.00    +0.000 A 
ATOM     28  N   UNL     1       1.579   3.675  19.813  0.00  0.00    +0.000 N 
ATOM     29  C   UNL     1       1.597   3.393  21.223  0.00  0.00    +0.000 C 
ENDBRANCH  23  24
ENDBRANCH  22  23
ENDBRANCH   4  22
TORSDOF 5
ENDMDL
