MODEL 1
REMARK VINA RESULT:      -9.6      0.000      0.000
REMARK  Name = 
REMARK  2 active torsions:
REMARK  status: ('A' for Active; 'I' for Inactive)
REMARK    1  A    between atoms: C_2  and  C_15
REMARK    2  A    between atoms: C_6  and  C_7
REMARK                            x       y       z     vdW  Elec       q    Type
REMARK                         _______ _______ _______ _____ _____    ______ ____
ROOT
ATOM      1  O   UNL     1       3.062   8.089  17.137  0.00  0.00    +0.000 OA
ATOM      2  C   UNL     1       3.124   7.126  17.900  0.00  0.00    +0.000 C 
ATOM      3  N   UNL     1       2.558   7.040  19.159  0.00  0.00    +0.000 N 
ATOM      4  C   UNL     1       1.833   8.069  19.683  0.00  0.00    +0.000 A 
ATOM      5  N   UNL     1       1.399   9.143  19.087  0.00  0.00    +0.000 NA
ATOM      6  C   UNL     1       0.735   9.958  19.987  0.00  0.00    +0.000 A 
ATOM      7  C   UNL     1       0.702   9.465  21.279  0.00  0.00    +0.000 A 
ATOM      8  S   UNL     1       1.462   7.920  21.338  0.00  0.00    +0.000 S 
ATOM      9  H   UNL     1       2.754   6.252  19.760  0.00  0.00    +0.000 HD
ENDROOT
BRANCH   2  10
ATOM     10  C   UNL     1       3.903   5.869  17.482  0.00  0.00    +0.000 C 
ATOM     11  C   UNL     1       3.263   4.622  18.049  0.00  0.00    +0.000 A 
ATOM     12  C   UNL     1       1.905   4.341  17.811  0.00  0.00    +0.000 A 
ATOM     13  C   UNL     1       1.316   3.193  18.343  0.00  0.00    +0.000 A 
ATOM     14  C   UNL     1       2.077   2.309  19.104  0.00  0.00    +0.000 A 
ATOM     15  C   UNL     1       3.426   2.575  19.332  0.00  0.00    +0.000 A 
ATOM     16  C   UNL     1       4.015   3.727  18.808  0.00  0.00    +0.000 A 
ATOM     17  O   UNL     1       5.346   3.903  19.096  0.00  0.00    +0.000 OA
ATOM     18  C   UNL     1       5.990   5.013  18.612  0.00  0.00    +0.000 A 
ATOM     19  C   UNL     1       7.338   5.135  18.957  0.00  0.00    +0.000 A 
ATOM     20  C   UNL     1       8.076   6.237  18.529  0.00  0.00    +0.000 A 
ATOM     21  C   UNL     1       7.470   7.215  17.745  0.00  0.00    +0.000 A 
ATOM     22  C   UNL     1       6.127   7.090  17.388  0.00  0.00    +0.000 A 
ATOM     23  C   UNL     1       5.371   5.991  17.832  0.00  0.00    +0.000 A 
ENDBRANCH   2  10
BRANCH   6  24
ATOM     24  C   UNL     1       0.142  11.211  19.530  0.00  0.00    +0.000 A 
ATOM     25  C   UNL     1       0.980  12.213  19.026  0.00  0.00    +0.000 A 
ATOM     26  C   UNL     1       0.419  13.397  18.580  0.00  0.00    +0.000 A 
ATOM     27  N   UNL     1      -0.905  13.651  18.602  0.00  0.00    +0.000 NA
ATOM     28  C   UNL     1      -1.698  12.678  19.097  0.00  0.00    +0.000 A 
ATOM     29  C   UNL     1      -1.232  11.460  19.567  0.00  0.00    +0.000 A 
ENDBRANCH   6  24
TORSDOF 2
ENDMDL
MODEL 2
REMARK VINA RESULT:      -9.4      1.859      3.706
REMARK  Name = 
REMARK  2 active torsions:
REMARK  status: ('A' for Active; 'I' for Inactive)
REMARK    1  A    between atoms: C_2  and  C_15
REMARK    2  A    between atoms: C_6  and  C_7
REMARK                            x       y       z     vdW  Elec       q    Type
REMARK                         _______ _______ _______ _____ _____    ______ ____
ROOT
ATOM      1  O   UNL     1       2.016   7.229  18.137  0.00  0.00    +0.000 OA
ATOM      2  C   UNL     1       2.509   6.902  19.216  0.00  0.00    +0.000 C 
ATOM      3  N   UNL     1       2.239   7.471  20.446  0.00  0.00    +0.000 N 
ATOM      4  C   UNL     1       1.345   8.492  20.576  0.00  0.00    +0.000 A 
ATOM      5  N   UNL     1       0.502   8.949  19.694  0.00  0.00    +0.000 NA
ATOM      6  C   UNL     1      -0.201  10.024  20.211  0.00  0.00    +0.000 A 
ATOM      7  C   UNL     1       0.157  10.365  21.504  0.00  0.00    +0.000 A 
ATOM      8  S   UNL     1       1.349   9.268  22.092  0.00  0.00    +0.000 S 
ATOM      9  H   UNL     1       2.773   7.212  21.263  0.00  0.00    +0.000 HD
ENDROOT
BRANCH   2  10
ATOM     10  C   UNL     1       3.542   5.766  19.270  0.00  0.00    +0.000 C 
ATOM     11  C   UNL     1       4.256   5.621  17.945  0.00  0.00    +0.000 A 
ATOM     12  C   UNL     1       4.909   6.721  17.357  0.00  0.00    +0.000 A 
ATOM     13  C   UNL     1       5.559   6.584  16.130  0.00  0.00    +0.000 A 
ATOM     14  C   UNL     1       5.577   5.351  15.485  0.00  0.00    +0.000 A 
ATOM     15  C   UNL     1       4.944   4.254  16.068  0.00  0.00    +0.000 A 
ATOM     16  C   UNL     1       4.285   4.390  17.292  0.00  0.00    +0.000 A 
ATOM     17  O   UNL     1       3.685   3.255  17.777  0.00  0.00    +0.000 OA
ATOM     18  C   UNL     1       3.021   3.316  18.977  0.00  0.00    +0.000 A 
ATOM     19  C   UNL     1       2.423   2.127  19.402  0.00  0.00    +0.000 A 
ATOM     20  C   UNL     1       1.708   2.090  20.598  0.00  0.00    +0.000 A 
ATOM     21  C   UNL     1       1.602   3.237  21.378  0.00  0.00    +0.000 A 
ATOM     22  C   UNL     1       2.209   4.423  20.962  0.00  0.00    +0.000 A 
ATOM     23  C   UNL     1       2.915   4.474  19.747  0.00  0.00    +0.000 A 
ENDBRANCH   2  10
BRANCH   6  24
ATOM     24  C   UNL     1      -1.222  10.682  19.401  0.00  0.00    +0.000 A 
ATOM     25  C   UNL     1      -1.404  10.268  18.076  0.00  0.00    +0.000 A 
ATOM     26  C   UNL     1      -2.379  10.880  17.309  0.00  0.00    +0.000 A 
ATOM     27  N   UNL     1      -3.176  11.868  17.764  0.00  0.00    +0.000 NA
ATOM     28  C   UNL     1      -2.982  12.260  19.041  0.00  0.00    +0.000 A 
ATOM     29  C   UNL     1      -2.033  11.709  19.887  0.00  0.00    +0.000 A 
ENDBRANCH   6  24
TORSDOF 2
ENDMDL
MODEL 3
REMARK VINA RESULT:      -9.1      2.103      3.922
REMARK  Name = 
REMARK  2 active torsions:
REMARK  status: ('A' for Active; 'I' for Inactive)
REMARK    1  A    between atoms: C_2  and  C_15
REMARK    2  A    between atoms: C_6  and  C_7
REMARK                            x       y       z     vdW  Elec       q    Type
REMARK                         _______ _______ _______ _____ _____    ______ ____
ROOT
ATOM      1  O   UNL     1       1.571   7.041  17.620  0.00  0.00    +0.000 OA
ATOM      2  C   UNL     1       2.202   7.098  18.675  0.00  0.00    +0.000 C 
ATOM      3  N   UNL     1       2.022   8.020  19.689  0.00  0.00    +0.000 N 
ATOM      4  C   UNL     1       1.069   8.992  19.605  0.00  0.00    +0.000 A 
ATOM      5  N   UNL     1       0.102   9.107  18.739  0.00  0.00    +0.000 NA
ATOM      6  C   UNL     1      -0.623  10.261  18.978  0.00  0.00    +0.000 A 
ATOM      7  C   UNL     1      -0.156  11.013  20.042  0.00  0.00    +0.000 A 
ATOM      8  S   UNL     1       1.175  10.212  20.787  0.00  0.00    +0.000 S 
ATOM      9  H   UNL     1       2.660   8.058  20.471  0.00  0.00    +0.000 HD
ENDROOT
BRANCH   2  10
ATOM     10  C   UNL     1       3.321   6.083  18.950  0.00  0.00    +0.000 C 
ATOM     11  C   UNL     1       4.128   5.815  17.699  0.00  0.00    +0.000 A 
ATOM     12  C   UNL     1       4.722   6.874  16.989  0.00  0.00    +0.000 A 
ATOM     13  C   UNL     1       5.459   6.624  15.831  0.00  0.00    +0.000 A 
ATOM     14  C   UNL     1       5.622   5.317  15.378  0.00  0.00    +0.000 A 
ATOM     15  C   UNL     1       5.048   4.262  16.085  0.00  0.00    +0.000 A 
ATOM     16  C   UNL     1       4.303   4.511  17.240  0.00  0.00    +0.000 A 
ATOM     17  O   UNL     1       3.771   3.406  17.858  0.00  0.00    +0.000 OA
ATOM     18  C   UNL     1       3.028   3.577  18.999  0.00  0.00    +0.000 A 
ATOM     19  C   UNL     1       2.506   2.412  19.566  0.00  0.00    +0.000 A 
ATOM     20  C   UNL     1       1.722   2.481  20.716  0.00  0.00    +0.000 A 
ATOM     21  C   UNL     1       1.470   3.714  21.310  0.00  0.00    +0.000 A 
ATOM     22  C   UNL     1       2.000   4.878  20.754  0.00  0.00    +0.000 A 
ATOM     23  C   UNL     1       2.776   4.820  19.582  0.00  0.00    +0.000 A 
ENDBRANCH   2  10
BRANCH   6  24
ATOM     24  C   UNL     1      -1.774  10.582  18.140  0.00  0.00    +0.000 A 
ATOM     25  C   UNL     1      -2.755  11.448  18.639  0.00  0.00    +0.000 A 
ATOM     26  C   UNL     1      -3.841  11.764  17.842  0.00  0.00    +0.000 A 
ATOM     27  N   UNL     1      -4.018  11.281  16.595  0.00  0.00    +0.000 NA
ATOM     28  C   UNL     1      -3.068  10.442  16.132  0.00  0.00    +0.000 A 
ATOM     29  C   UNL     1      -1.945  10.066  16.854  0.00  0.00    +0.000 A 
ENDBRANCH   6  24
TORSDOF 2
ENDMDL
MODEL 4
REMARK VINA RESULT:      -9.0      1.321      3.679
REMARK  Name = 
REMARK  2 active torsions:
REMARK  status: ('A' for Active; 'I' for Inactive)
REMARK    1  A    between atoms: C_2  and  C_15
REMARK    2  A    between atoms: C_6  and  C_7
REMARK                            x       y       z     vdW  Elec       q    Type
REMARK                         _______ _______ _______ _____ _____    ______ ____
ROOT
ATOM      1  O   UNL     1       2.952   7.454  18.122  0.00  0.00    +0.000 OA
ATOM      2  C   UNL     1       2.969   6.758  19.138  0.00  0.00    +0.000 C 
ATOM      3  N   UNL     1       2.388   7.069  20.353  0.00  0.00    +0.000 N 
ATOM      4  C   UNL     1       1.699   8.231  20.535  0.00  0.00    +0.000 A 
ATOM      5  N   UNL     1       1.313   9.095  19.638  0.00  0.00    +0.000 NA
ATOM      6  C   UNL     1       0.673  10.163  20.243  0.00  0.00    +0.000 A 
ATOM      7  C   UNL     1       0.608  10.076  21.623  0.00  0.00    +0.000 A 
ATOM      8  S   UNL     1       1.306   8.592  22.152  0.00  0.00    +0.000 S 
ATOM      9  H   UNL     1       2.547   6.488  21.164  0.00  0.00    +0.000 HD
ENDROOT
BRANCH   2  10
ATOM     10  C   UNL     1       3.702   5.408  19.126  0.00  0.00    +0.000 C 
ATOM     11  C   UNL     1       4.747   5.370  18.034  0.00  0.00    +0.000 A 
ATOM     12  C   UNL     1       5.744   6.361  17.961  0.00  0.00    +0.000 A 
ATOM     13  C   UNL     1       6.703   6.326  16.947  0.00  0.00    +0.000 A 
ATOM     14  C   UNL     1       6.685   5.299  16.007  0.00  0.00    +0.000 A 
ATOM     15  C   UNL     1       5.708   4.308  16.082  0.00  0.00    +0.000 A 
ATOM     16  C   UNL     1       4.743   4.345  17.090  0.00  0.00    +0.000 A 
ATOM     17  O   UNL     1       3.820   3.328  17.072  0.00  0.00    +0.000 OA
ATOM     18  C   UNL     1       2.843   3.301  18.035  0.00  0.00    +0.000 A 
ATOM     19  C   UNL     1       1.930   2.248  17.947  0.00  0.00    +0.000 A 
ATOM     20  C   UNL     1       0.889   2.142  18.867  0.00  0.00    +0.000 A 
ATOM     21  C   UNL     1       0.766   3.082  19.886  0.00  0.00    +0.000 A 
ATOM     22  C   UNL     1       1.684   4.128  19.985  0.00  0.00    +0.000 A 
ATOM     23  C   UNL     1       2.725   4.254  19.049  0.00  0.00    +0.000 A 
ENDBRANCH   2  10
BRANCH   6  24
ATOM     24  C   UNL     1       0.134  11.244  19.424  0.00  0.00    +0.000 A 
ATOM     25  C   UNL     1       0.834  12.454  19.354  0.00  0.00    +0.000 A 
ATOM     26  C   UNL     1       0.333  13.476  18.568  0.00  0.00    +0.000 A 
ATOM     27  N   UNL     1      -0.808  13.379  17.856  0.00  0.00    +0.000 NA
ATOM     28  C   UNL     1      -1.475  12.209  17.940  0.00  0.00    +0.000 A 
ATOM     29  C   UNL     1      -1.054  11.128  18.699  0.00  0.00    +0.000 A 
ENDBRANCH   6  24
TORSDOF 2
ENDMDL
MODEL 5
REMARK VINA RESULT:      -8.9      1.837      2.292
REMARK  Name = 
REMARK  2 active torsions:
REMARK  status: ('A' for Active; 'I' for Inactive)
REMARK    1  A    between atoms: C_2  and  C_15
REMARK    2  A    between atoms: C_6  and  C_7
REMARK                            x       y       z     vdW  Elec       q    Type
REMARK                         _______ _______ _______ _____ _____    ______ ____
ROOT
ATOM      1  O   UNL     1       2.074   6.299  19.515  0.00  0.00    +0.000 OA
ATOM      2  C   UNL     1       2.692   6.640  18.507  0.00  0.00    +0.000 C 
ATOM      3  N   UNL     1       2.731   7.909  17.960  0.00  0.00    +0.000 N 
ATOM      4  C   UNL     1       2.059   8.950  18.530  0.00  0.00    +0.000 A 
ATOM      5  N   UNL     1       1.478   8.999  19.696  0.00  0.00    +0.000 NA
ATOM      6  C   UNL     1       0.872  10.230  19.880  0.00  0.00    +0.000 A 
ATOM      7  C   UNL     1       1.007  11.093  18.807  0.00  0.00    +0.000 A 
ATOM      8  S   UNL     1       1.969  10.359  17.580  0.00  0.00    +0.000 S 
ATOM      9  H   UNL     1       3.175   8.073  17.068  0.00  0.00    +0.000 HD
ENDROOT
BRANCH   2  10
ATOM     10  C   UNL     1       3.509   5.601  17.724  0.00  0.00    +0.000 C 
ATOM     11  C   UNL     1       3.141   4.196  18.144  0.00  0.00    +0.000 A 
ATOM     12  C   UNL     1       1.804   3.761  18.098  0.00  0.00    +0.000 A 
ATOM     13  C   UNL     1       1.467   2.466  18.494  0.00  0.00    +0.000 A 
ATOM     14  C   UNL     1       2.459   1.589  18.925  0.00  0.00    +0.000 A 
ATOM     15  C   UNL     1       3.788   2.010  18.959  0.00  0.00    +0.000 A 
ATOM     16  C   UNL     1       4.126   3.308  18.572  0.00  0.00    +0.000 A 
ATOM     17  O   UNL     1       5.459   3.627  18.651  0.00  0.00    +0.000 OA
ATOM     18  C   UNL     1       5.863   4.886  18.284  0.00  0.00    +0.000 A 
ATOM     19  C   UNL     1       7.230   5.146  18.403  0.00  0.00    +0.000 A 
ATOM     20  C   UNL     1       7.738   6.401  18.073  0.00  0.00    +0.000 A 
ATOM     21  C   UNL     1       6.882   7.396  17.610  0.00  0.00    +0.000 A 
ATOM     22  C   UNL     1       5.517   7.136  17.478  0.00  0.00    +0.000 A 
ATOM     23  C   UNL     1       4.994   5.878  17.827  0.00  0.00    +0.000 A 
ENDBRANCH   2  10
BRANCH   6  24
ATOM     24  C   UNL     1       0.178  10.517  21.132  0.00  0.00    +0.000 A 
ATOM     25  C   UNL     1      -0.302  11.813  21.358  0.00  0.00    +0.000 A 
ATOM     26  C   UNL     1      -0.971  12.085  22.537  0.00  0.00    +0.000 A 
ATOM     27  N   UNL     1      -1.193  11.166  23.499  0.00  0.00    +0.000 NA
ATOM     28  C   UNL     1      -0.717   9.924  23.269  0.00  0.00    +0.000 A 
ATOM     29  C   UNL     1      -0.035   9.554  22.120  0.00  0.00    +0.000 A 
ENDBRANCH   6  24
TORSDOF 2
ENDMDL
MODEL 6
REMARK VINA RESULT:      -8.9      1.415      3.784
REMARK  Name = 
REMARK  2 active torsions:
REMARK  status: ('A' for Active; 'I' for Inactive)
REMARK    1  A    between atoms: C_2  and  C_15
REMARK    2  A    between atoms: C_6  and  C_7
REMARK                            x       y       z     vdW  Elec       q    Type
REMARK                         _______ _______ _______ _____ _____    ______ ____
ROOT
ATOM      1  O   UNL     1       2.646   7.085  18.035  0.00  0.00    +0.000 OA
ATOM      2  C   UNL     1       2.904   6.603  19.138  0.00  0.00    +0.000 C 
ATOM      3  N   UNL     1       2.468   7.075  20.361  0.00  0.00    +0.000 N 
ATOM      4  C   UNL     1       1.660   8.170  20.453  0.00  0.00    +0.000 A 
ATOM      5  N   UNL     1       1.034   8.799  19.498  0.00  0.00    +0.000 NA
ATOM      6  C   UNL     1       0.348   9.887  20.008  0.00  0.00    +0.000 A 
ATOM      7  C   UNL     1       0.495  10.060  21.373  0.00  0.00    +0.000 A 
ATOM      8  S   UNL     1       1.458   8.789  22.025  0.00  0.00    +0.000 S 
ATOM      9  H   UNL     1       2.820   6.682  21.222  0.00  0.00    +0.000 HD
ENDROOT
BRANCH   2  10
ATOM     10  C   UNL     1       3.806   5.363  19.236  0.00  0.00    +0.000 C 
ATOM     11  C   UNL     1       4.921   5.423  18.217  0.00  0.00    +0.000 A 
ATOM     12  C   UNL     1       5.783   6.533  18.162  0.00  0.00    +0.000 A 
ATOM     13  C   UNL     1       6.807   6.588  17.215  0.00  0.00    +0.000 A 
ATOM     14  C   UNL     1       6.989   5.533  16.325  0.00  0.00    +0.000 A 
ATOM     15  C   UNL     1       6.147   4.424  16.383  0.00  0.00    +0.000 A 
ATOM     16  C   UNL     1       5.117   4.370  17.324  0.00  0.00    +0.000 A 
ATOM     17  O   UNL     1       4.337   3.241  17.294  0.00  0.00    +0.000 OA
ATOM     18  C   UNL     1       3.307   3.120  18.193  0.00  0.00    +0.000 A 
ATOM     19  C   UNL     1       2.547   1.952  18.095  0.00  0.00    +0.000 A 
ATOM     20  C   UNL     1       1.467   1.744  18.950  0.00  0.00    +0.000 A 
ATOM     21  C   UNL     1       1.152   2.697  19.914  0.00  0.00    +0.000 A 
ATOM     22  C   UNL     1       1.916   3.859  20.023  0.00  0.00    +0.000 A 
ATOM     23  C   UNL     1       2.996   4.086  19.151  0.00  0.00    +0.000 A 
ENDBRANCH   2  10
BRANCH   6  24
ATOM     24  C   UNL     1      -0.447  10.726  19.116  0.00  0.00    +0.000 A 
ATOM     25  C   UNL     1      -1.377  10.118  18.264  0.00  0.00    +0.000 A 
ATOM     26  C   UNL     1      -2.141  10.912  17.427  0.00  0.00    +0.000 A 
ATOM     27  N   UNL     1      -2.043  12.256  17.378  0.00  0.00    +0.000 NA
ATOM     28  C   UNL     1      -1.137  12.826  18.200  0.00  0.00    +0.000 A 
ATOM     29  C   UNL     1      -0.326  12.117  19.073  0.00  0.00    +0.000 A 
ENDBRANCH   6  24
TORSDOF 2
ENDMDL
MODEL 7
REMARK VINA RESULT:      -8.6      2.756      8.802
REMARK  Name = 
REMARK  2 active torsions:
REMARK  status: ('A' for Active; 'I' for Inactive)
REMARK    1  A    between atoms: C_2  and  C_15
REMARK    2  A    between atoms: C_6  and  C_7
REMARK                            x       y       z     vdW  Elec       q    Type
REMARK                         _______ _______ _______ _____ _____    ______ ____
ROOT
ATOM      1  O   UNL     1       0.503   9.112  19.871  0.00  0.00    +0.000 OA
ATOM      2  C   UNL     1       0.875   9.667  18.838  0.00  0.00    +0.000 C 
ATOM      3  N   UNL     1       1.832   9.201  17.956  0.00  0.00    +0.000 N 
ATOM      4  C   UNL     1       2.471   8.014  18.163  0.00  0.00    +0.000 A 
ATOM      5  N   UNL     1       2.190   7.082  19.029  0.00  0.00    +0.000 NA
ATOM      6  C   UNL     1       3.109   6.051  18.941  0.00  0.00    +0.000 A 
ATOM      7  C   UNL     1       4.096   6.252  17.992  0.00  0.00    +0.000 A 
ATOM      8  S   UNL     1       3.814   7.732  17.156  0.00  0.00    +0.000 S 
ATOM      9  H   UNL     1       2.153   9.777  17.191  0.00  0.00    +0.000 HD
ENDROOT
BRANCH   2  10
ATOM     10  C   UNL     1       0.268  11.021  18.437  0.00  0.00    +0.000 C 
ATOM     11  C   UNL     1       0.597  12.085  19.460  0.00  0.00    +0.000 A 
ATOM     12  C   UNL     1       1.932  12.343  19.822  0.00  0.00    +0.000 A 
ATOM     13  C   UNL     1       2.231  13.321  20.772  0.00  0.00    +0.000 A 
ATOM     14  C   UNL     1       1.206  14.058  21.359  0.00  0.00    +0.000 A 
ATOM     15  C   UNL     1      -0.118  13.816  20.994  0.00  0.00    +0.000 A 
ATOM     16  C   UNL     1      -0.420  12.832  20.050  0.00  0.00    +0.000 A 
ATOM     17  O   UNL     1      -1.753  12.665  19.767  0.00  0.00    +0.000 OA
ATOM     18  C   UNL     1      -2.122  11.716  18.847  0.00  0.00    +0.000 A 
ATOM     19  C   UNL     1      -3.495  11.590  18.619  0.00  0.00    +0.000 A 
ATOM     20  C   UNL     1      -3.973  10.642  17.717  0.00  0.00    +0.000 A 
ATOM     21  C   UNL     1      -3.079   9.826  17.029  0.00  0.00    +0.000 A 
ATOM     22  C   UNL     1      -1.707   9.958  17.245  0.00  0.00    +0.000 A 
ATOM     23  C   UNL     1      -1.217  10.899  18.169  0.00  0.00    +0.000 A 
ENDBRANCH   2  10
BRANCH   6  24
ATOM     24  C   UNL     1       2.974   4.883  19.807  0.00  0.00    +0.000 A 
ATOM     25  C   UNL     1       3.781   3.764  19.564  0.00  0.00    +0.000 A 
ATOM     26  C   UNL     1       3.664   2.661  20.390  0.00  0.00    +0.000 A 
ATOM     27  N   UNL     1       2.808   2.592  21.429  0.00  0.00    +0.000 NA
ATOM     28  C   UNL     1       2.033   3.676  21.645  0.00  0.00    +0.000 A 
ATOM     29  C   UNL     1       2.076   4.827  20.874  0.00  0.00    +0.000 A 
ENDBRANCH   6  24
TORSDOF 2
ENDMDL
