MODEL 1
REMARK VINA RESULT:      -9.0      0.000      0.000
REMARK  Name = 
REMARK  8 active torsions:
REMARK  status: ('A' for Active; 'I' for Inactive)
REMARK    1  A    between atoms: C_1  and  N_2
REMARK    2  A    between atoms: C_6  and  C_7
REMARK    3  A    between atoms: C_7  and  C_8
REMARK    4  A    between atoms: C_8  and  O_9
REMARK    5  A    between atoms: O_9  and  C_10
REMARK    6  A    between atoms: C_14  and  N_15
REMARK    7  A    between atoms: C_20  and  C_21
REMARK    8  A    between atoms: C_25  and  C_26
REMARK                            x       y       z     vdW  Elec       q    Type
REMARK                         _______ _______ _______ _____ _____    ______ ____
ROOT
ATOM      1  N   UNL     1       3.993   4.134  19.165  0.00  0.00    +0.000 N 
ATOM      2  C   UNL     1       5.309   4.831  19.198  0.00  0.00    +0.000 C 
ATOM      3  C   UNL     1       5.731   4.792  17.761  0.00  0.00    +0.000 A 
ATOM      4  C   UNL     1       5.101   3.696  17.177  0.00  0.00    +0.000 A 
ATOM      5  C   UNL     1       5.176   3.424  15.828  0.00  0.00    +0.000 A 
ATOM      6  C   UNL     1       5.922   4.295  15.023  0.00  0.00    +0.000 A 
ATOM      7  C   UNL     1       6.573   5.404  15.602  0.00  0.00    +0.000 A 
ATOM      8  C   UNL     1       6.480   5.677  16.986  0.00  0.00    +0.000 A 
ATOM      9  C   UNL     1       4.132   3.148  18.140  0.00  0.00    +0.000 C 
ATOM     10  O   UNL     1       3.443   2.161  17.949  0.00  0.00    +0.000 OA
ENDROOT
BRANCH   1  15
ATOM     11  C   UNL     1       2.008   6.986  20.129  0.00  0.00    +0.000 A 
ATOM     12  C   UNL     1       2.408   7.800  19.061  0.00  0.00    +0.000 A 
ATOM     13  C   UNL     1       2.814   7.240  17.859  0.00  0.00    +0.000 A 
ATOM     14  C   UNL     1       2.963   5.868  17.762  0.00  0.00    +0.000 A 
ATOM     15  C   UNL     1       2.920   5.102  18.941  0.00  0.00    +0.000 A 
ATOM     16  C   UNL     1       2.263   5.617  20.067  0.00  0.00    +0.000 A 
BRANCH  11  17
ATOM     17  O   UNL     1       1.462   7.469  21.303  0.00  0.00    +0.000 OA
BRANCH  17  18
ATOM     18  C   UNL     1       1.044   8.833  21.173  0.00  0.00    +0.000 C 
BRANCH  18  19
ATOM     19  C   UNL     1      -0.407   9.054  21.584  0.00  0.00    +0.000 C 
BRANCH  19  25
ATOM     20  C   UNL     1      -1.090  11.461  19.655  0.00  0.00    +0.000 C 
ATOM     21  N   UNL     1      -0.875  11.521  21.077  0.00  0.00    +0.000 N 
ATOM     22  C   UNL     1      -0.927  12.655  21.829  0.00  0.00    +0.000 A 
ATOM     23  N   UNL     1      -0.702  12.358  23.088  0.00  0.00    +0.000 NA
ATOM     24  N   UNL     1      -0.493  11.009  23.153  0.00  0.00    +0.000 NA
ATOM     25  C   UNL     1      -0.595  10.497  21.936  0.00  0.00    +0.000 A 
ENDBRANCH  19  25
ENDBRANCH  18  19
ENDBRANCH  17  18
ENDBRANCH  11  17
ENDBRANCH   1  15
BRANCH   6  26
ATOM     26  C   UNL     1       6.332   3.850  13.628  0.00  0.00    +0.000 C 
ATOM     27  C   UNL     1       5.399   3.589  12.711  0.00  0.00    +0.000 C 
ATOM     28  N   UNL     1       6.728   3.420  12.280  0.00  0.00    +0.000 N 
ATOM     29  H   UNL     1       7.096   4.233  11.783  0.00  0.00    +0.000 HD
ENDBRANCH   6  26
BRANCH   8  30
ATOM     30  C   UNL     1       7.153   6.903  17.543  0.00  0.00    +0.000 C 
ATOM     31  F   UNL     1       7.824   6.689  18.708  0.00  0.00    +0.000 F 
ATOM     32  F   UNL     1       8.072   7.420  16.682  0.00  0.00    +0.000 F 
ATOM     33  F   UNL     1       6.271   7.908  17.799  0.00  0.00    +0.000 F 
ENDBRANCH   8  30
TORSDOF 7
ENDMDL
MODEL 2
REMARK VINA RESULT:      -8.9      0.786      1.238
REMARK  Name = 
REMARK  8 active torsions:
REMARK  status: ('A' for Active; 'I' for Inactive)
REMARK    1  A    between atoms: C_1  and  N_2
REMARK    2  A    between atoms: C_6  and  C_7
REMARK    3  A    between atoms: C_7  and  C_8
REMARK    4  A    between atoms: C_8  and  O_9
REMARK    5  A    between atoms: O_9  and  C_10
REMARK    6  A    between atoms: C_14  and  N_15
REMARK    7  A    between atoms: C_20  and  C_21
REMARK    8  A    between atoms: C_25  and  C_26
REMARK                            x       y       z     vdW  Elec       q    Type
REMARK                         _______ _______ _______ _____ _____    ______ ____
ROOT
ATOM      1  N   UNL     1       3.741   4.440  19.406  0.00  0.00    +0.000 N 
ATOM      2  C   UNL     1       5.083   5.085  19.388  0.00  0.00    +0.000 C 
ATOM      3  C   UNL     1       5.489   4.947  17.951  0.00  0.00    +0.000 A 
ATOM      4  C   UNL     1       4.809   3.845  17.438  0.00  0.00    +0.000 A 
ATOM      5  C   UNL     1       4.859   3.493  16.106  0.00  0.00    +0.000 A 
ATOM      6  C   UNL     1       5.630   4.286  15.245  0.00  0.00    +0.000 A 
ATOM      7  C   UNL     1       6.329   5.400  15.754  0.00  0.00    +0.000 A 
ATOM      8  C   UNL     1       6.263   5.756  17.120  0.00  0.00    +0.000 A 
ATOM      9  C   UNL     1       3.831   3.392  18.439  0.00  0.00    +0.000 C 
ATOM     10  O   UNL     1       3.102   2.424  18.311  0.00  0.00    +0.000 OA
ENDROOT
BRANCH   1  15
ATOM     11  C   UNL     1       1.877   7.417  20.223  0.00  0.00    +0.000 A 
ATOM     12  C   UNL     1       2.299   8.155  19.108  0.00  0.00    +0.000 A 
ATOM     13  C   UNL     1       2.671   7.513  17.936  0.00  0.00    +0.000 A 
ATOM     14  C   UNL     1       2.766   6.133  17.916  0.00  0.00    +0.000 A 
ATOM     15  C   UNL     1       2.705   5.435  19.136  0.00  0.00    +0.000 A 
ATOM     16  C   UNL     1       2.078   6.038  20.236  0.00  0.00    +0.000 A 
BRANCH  11  17
ATOM     17  O   UNL     1       1.361   7.987  21.371  0.00  0.00    +0.000 OA
BRANCH  17  18
ATOM     18  C   UNL     1       0.210   8.792  21.095  0.00  0.00    +0.000 C 
BRANCH  18  19
ATOM     19  C   UNL     1      -0.319   9.520  22.326  0.00  0.00    +0.000 C 
BRANCH  19  25
ATOM     20  C   UNL     1      -2.270  11.854  23.177  0.00  0.00    +0.000 C 
ATOM     21  N   UNL     1      -1.009  11.981  22.495  0.00  0.00    +0.000 N 
ATOM     22  C   UNL     1      -0.451  13.156  22.094  0.00  0.00    +0.000 A 
ATOM     23  N   UNL     1       0.706  12.921  21.520  0.00  0.00    +0.000 NA
ATOM     24  N   UNL     1       0.898  11.568  21.541  0.00  0.00    +0.000 NA
ATOM     25  C   UNL     1      -0.139  10.994  22.129  0.00  0.00    +0.000 A 
ENDBRANCH  19  25
ENDBRANCH  18  19
ENDBRANCH  17  18
ENDBRANCH  11  17
ENDBRANCH   1  15
BRANCH   6  26
ATOM     26  C   UNL     1       6.007   3.746  13.874  0.00  0.00    +0.000 C 
ATOM     27  C   UNL     1       6.858   4.424  13.103  0.00  0.00    +0.000 C 
ATOM     28  N   UNL     1       6.371   3.225  12.550  0.00  0.00    +0.000 N 
ATOM     29  H   UNL     1       7.004   2.434  12.683  0.00  0.00    +0.000 HD
ENDBRANCH   6  26
BRANCH   8  30
ATOM     30  C   UNL     1       6.989   6.984  17.600  0.00  0.00    +0.000 C 
ATOM     31  F   UNL     1       6.176   8.046  17.854  0.00  0.00    +0.000 F 
ATOM     32  F   UNL     1       7.669   6.758  18.757  0.00  0.00    +0.000 F 
ATOM     33  F   UNL     1       7.912   7.426  16.702  0.00  0.00    +0.000 F 
ENDBRANCH   8  30
TORSDOF 7
ENDMDL
MODEL 3
REMARK VINA RESULT:      -8.8      1.043      1.216
REMARK  Name = 
REMARK  8 active torsions:
REMARK  status: ('A' for Active; 'I' for Inactive)
REMARK    1  A    between atoms: C_1  and  N_2
REMARK    2  A    between atoms: C_6  and  C_7
REMARK    3  A    between atoms: C_7  and  C_8
REMARK    4  A    between atoms: C_8  and  O_9
REMARK    5  A    between atoms: O_9  and  C_10
REMARK    6  A    between atoms: C_14  and  N_15
REMARK    7  A    between atoms: C_20  and  C_21
REMARK    8  A    between atoms: C_25  and  C_26
REMARK                            x       y       z     vdW  Elec       q    Type
REMARK                         _______ _______ _______ _____ _____    ______ ____
ROOT
ATOM      1  N   UNL     1       3.662   4.508  19.393  0.00  0.00    +0.000 N 
ATOM      2  C   UNL     1       5.014   5.134  19.384  0.00  0.00    +0.000 C 
ATOM      3  C   UNL     1       5.429   4.983  17.951  0.00  0.00    +0.000 A 
ATOM      4  C   UNL     1       4.738   3.889  17.437  0.00  0.00    +0.000 A 
ATOM      5  C   UNL     1       4.793   3.530  16.107  0.00  0.00    +0.000 A 
ATOM      6  C   UNL     1       5.583   4.308  15.249  0.00  0.00    +0.000 A 
ATOM      7  C   UNL     1       6.294   5.414  15.759  0.00  0.00    +0.000 A 
ATOM      8  C   UNL     1       6.222   5.777  17.123  0.00  0.00    +0.000 A 
ATOM      9  C   UNL     1       3.745   3.455  18.432  0.00  0.00    +0.000 C 
ATOM     10  O   UNL     1       3.003   2.497  18.302  0.00  0.00    +0.000 OA
ENDROOT
BRANCH   1  15
ATOM     11  C   UNL     1       2.026   7.660  20.015  0.00  0.00    +0.000 A 
ATOM     12  C   UNL     1       2.346   8.230  18.775  0.00  0.00    +0.000 A 
ATOM     13  C   UNL     1       2.556   7.428  17.663  0.00  0.00    +0.000 A 
ATOM     14  C   UNL     1       2.592   6.053  17.811  0.00  0.00    +0.000 A 
ATOM     15  C   UNL     1       2.643   5.517  19.110  0.00  0.00    +0.000 A 
ATOM     16  C   UNL     1       2.171   6.285  20.184  0.00  0.00    +0.000 A 
BRANCH  11  17
ATOM     17  O   UNL     1       1.667   8.395  21.129  0.00  0.00    +0.000 OA
BRANCH  17  18
ATOM     18  C   UNL     1       0.256   8.351  21.365  0.00  0.00    +0.000 C 
BRANCH  18  19
ATOM     19  C   UNL     1      -0.326   9.701  21.767  0.00  0.00    +0.000 C 
BRANCH  19  25
ATOM     20  C   UNL     1      -0.924  10.371  18.738  0.00  0.00    +0.000 C 
ATOM     21  N   UNL     1       0.025  11.023  19.602  0.00  0.00    +0.000 N 
ATOM     22  C   UNL     1       0.838  12.053  19.235  0.00  0.00    +0.000 A 
ATOM     23  N   UNL     1       1.566  12.425  20.262  0.00  0.00    +0.000 NA
ATOM     24  N   UNL     1       1.225  11.619  21.312  0.00  0.00    +0.000 NA
ATOM     25  C   UNL     1       0.293  10.766  20.916  0.00  0.00    +0.000 A 
ENDBRANCH  19  25
ENDBRANCH  18  19
ENDBRANCH  17  18
ENDBRANCH  11  17
ENDBRANCH   1  15
BRANCH   6  26
ATOM     26  C   UNL     1       5.964   3.757  13.884  0.00  0.00    +0.000 C 
ATOM     27  C   UNL     1       6.906   4.363  13.160  0.00  0.00    +0.000 C 
ATOM     28  N   UNL     1       6.332   3.225  12.565  0.00  0.00    +0.000 N 
ATOM     29  H   UNL     1       6.881   2.376  12.707  0.00  0.00    +0.000 HD
ENDBRANCH   6  26
BRANCH   8  30
ATOM     30  C   UNL     1       6.961   6.997  17.603  0.00  0.00    +0.000 C 
ATOM     31  F   UNL     1       7.617   6.821  18.783  0.00  0.00    +0.000 F 
ATOM     32  F   UNL     1       7.909   7.405  16.715  0.00  0.00    +0.000 F 
ATOM     33  F   UNL     1       6.137   8.064  17.789  0.00  0.00    +0.000 F 
ENDBRANCH   8  30
TORSDOF 7
ENDMDL
MODEL 4
REMARK VINA RESULT:      -8.7      0.794      1.508
REMARK  Name = 
REMARK  8 active torsions:
REMARK  status: ('A' for Active; 'I' for Inactive)
REMARK    1  A    between atoms: C_1  and  N_2
REMARK    2  A    between atoms: C_6  and  C_7
REMARK    3  A    between atoms: C_7  and  C_8
REMARK    4  A    between atoms: C_8  and  O_9
REMARK    5  A    between atoms: O_9  and  C_10
REMARK    6  A    between atoms: C_14  and  N_15
REMARK    7  A    between atoms: C_20  and  C_21
REMARK    8  A    between atoms: C_25  and  C_26
REMARK                            x       y       z     vdW  Elec       q    Type
REMARK                         _______ _______ _______ _____ _____    ______ ____
ROOT
ATOM      1  N   UNL     1       3.918   4.366  19.223  0.00  0.00    +0.000 N 
ATOM      2  C   UNL     1       5.243   5.048  19.231  0.00  0.00    +0.000 C 
ATOM      3  C   UNL     1       5.666   4.948  17.796  0.00  0.00    +0.000 A 
ATOM      4  C   UNL     1       5.021   3.839  17.255  0.00  0.00    +0.000 A 
ATOM      5  C   UNL     1       5.093   3.514  15.917  0.00  0.00    +0.000 A 
ATOM      6  C   UNL     1       5.850   4.344  15.079  0.00  0.00    +0.000 A 
ATOM      7  C   UNL     1       6.515   5.467  15.616  0.00  0.00    +0.000 A 
ATOM      8  C   UNL     1       6.426   5.794  16.989  0.00  0.00    +0.000 A 
ATOM      9  C   UNL     1       4.046   3.341  18.238  0.00  0.00    +0.000 C 
ATOM     10  O   UNL     1       3.345   2.356  18.084  0.00  0.00    +0.000 OA
ENDROOT
BRANCH   1  15
ATOM     11  C   UNL     1       1.935   7.247  20.102  0.00  0.00    +0.000 A 
ATOM     12  C   UNL     1       2.364   8.042  19.031  0.00  0.00    +0.000 A 
ATOM     13  C   UNL     1       2.791   7.461  17.846  0.00  0.00    +0.000 A 
ATOM     14  C   UNL     1       2.932   6.087  17.773  0.00  0.00    +0.000 A 
ATOM     15  C   UNL     1       2.858   5.339  18.962  0.00  0.00    +0.000 A 
ATOM     16  C   UNL     1       2.181   5.875  20.066  0.00  0.00    +0.000 A 
BRANCH  11  17
ATOM     17  O   UNL     1       1.367   7.752  21.256  0.00  0.00    +0.000 OA
BRANCH  17  18
ATOM     18  C   UNL     1       1.162   9.167  21.173  0.00  0.00    +0.000 C 
BRANCH  18  19
ATOM     19  C   UNL     1      -0.306   9.564  21.271  0.00  0.00    +0.000 C 
BRANCH  19  25
ATOM     20  C   UNL     1      -0.462  12.691  21.694  0.00  0.00    +0.000 C 
ATOM     21  N   UNL     1      -0.666  11.969  20.466  0.00  0.00    +0.000 N 
ATOM     22  C   UNL     1      -0.972  12.536  19.267  0.00  0.00    +0.000 A 
ATOM     23  N   UNL     1      -1.073  11.601  18.351  0.00  0.00    +0.000 NA
ATOM     24  N   UNL     1      -0.835  10.405  18.968  0.00  0.00    +0.000 NA
ATOM     25  C   UNL     1      -0.590  10.623  20.251  0.00  0.00    +0.000 A 
ENDBRANCH  19  25
ENDBRANCH  18  19
ENDBRANCH  17  18
ENDBRANCH  11  17
ENDBRANCH   1  15
BRANCH   6  26
ATOM     26  C   UNL     1       6.255   3.842  13.703  0.00  0.00    +0.000 C 
ATOM     27  C   UNL     1       5.320   3.572  12.791  0.00  0.00    +0.000 C 
ATOM     28  N   UNL     1       6.646   3.355  12.373  0.00  0.00    +0.000 N 
ATOM     29  H   UNL     1       7.036   4.141  11.850  0.00  0.00    +0.000 HD
ENDBRANCH   6  26
BRANCH   8  30
ATOM     30  C   UNL     1       7.113   7.032  17.499  0.00  0.00    +0.000 C 
ATOM     31  F   UNL     1       6.268   8.062  17.778  0.00  0.00    +0.000 F 
ATOM     32  F   UNL     1       7.799   6.799  18.652  0.00  0.00    +0.000 F 
ATOM     33  F   UNL     1       8.023   7.523  16.614  0.00  0.00    +0.000 F 
ENDBRANCH   8  30
TORSDOF 7
ENDMDL
MODEL 5
REMARK VINA RESULT:      -8.7      3.705      8.516
REMARK  Name = 
REMARK  8 active torsions:
REMARK  status: ('A' for Active; 'I' for Inactive)
REMARK    1  A    between atoms: C_1  and  N_2
REMARK    2  A    between atoms: C_6  and  C_7
REMARK    3  A    between atoms: C_7  and  C_8
REMARK    4  A    between atoms: C_8  and  O_9
REMARK    5  A    between atoms: O_9  and  C_10
REMARK    6  A    between atoms: C_14  and  N_15
REMARK    7  A    between atoms: C_20  and  C_21
REMARK    8  A    between atoms: C_25  and  C_26
REMARK                            x       y       z     vdW  Elec       q    Type
REMARK                         _______ _______ _______ _____ _____    ______ ____
ROOT
ATOM      1  N   UNL     1       2.684   7.021  19.665  0.00  0.00    +0.000 N 
ATOM      2  C   UNL     1       2.271   7.845  20.835  0.00  0.00    +0.000 C 
ATOM      3  C   UNL     1       1.227   8.744  20.244  0.00  0.00    +0.000 A 
ATOM      4  C   UNL     1       1.505   8.856  18.884  0.00  0.00    +0.000 A 
ATOM      5  C   UNL     1       0.676   9.521  18.006  0.00  0.00    +0.000 A 
ATOM      6  C   UNL     1      -0.491  10.104  18.519  0.00  0.00    +0.000 A 
ATOM      7  C   UNL     1      -0.781  10.005  19.896  0.00  0.00    +0.000 A 
ATOM      8  C   UNL     1       0.074   9.313  20.784  0.00  0.00    +0.000 A 
ATOM      9  C   UNL     1       2.572   7.901  18.546  0.00  0.00    +0.000 C 
ATOM     10  O   UNL     1       3.070   7.778  17.441  0.00  0.00    +0.000 OA
ENDROOT
BRANCH   1  15
ATOM     11  C   UNL     1       2.060   3.636  18.589  0.00  0.00    +0.000 A 
ATOM     12  C   UNL     1       2.004   3.089  19.878  0.00  0.00    +0.000 A 
ATOM     13  C   UNL     1       1.621   3.868  20.960  0.00  0.00    +0.000 A 
ATOM     14  C   UNL     1       1.435   5.228  20.789  0.00  0.00    +0.000 A 
ATOM     15  C   UNL     1       1.856   5.819  19.584  0.00  0.00    +0.000 A 
ATOM     16  C   UNL     1       1.980   5.020  18.438  0.00  0.00    +0.000 A 
BRANCH  11  17
ATOM     17  O   UNL     1       2.295   2.894  17.448  0.00  0.00    +0.000 OA
BRANCH  17  18
ATOM     18  C   UNL     1       3.687   2.854  17.116  0.00  0.00    +0.000 C 
BRANCH  18  19
ATOM     19  C   UNL     1       4.199   4.165  16.530  0.00  0.00    +0.000 C 
BRANCH  19  25
ATOM     20  C   UNL     1       5.572   5.029  19.241  0.00  0.00    +0.000 C 
ATOM     21  N   UNL     1       6.227   4.681  18.008  0.00  0.00    +0.000 N 
ATOM     22  C   UNL     1       7.574   4.676  17.811  0.00  0.00    +0.000 A 
ATOM     23  N   UNL     1       7.838   4.295  16.583  0.00  0.00    +0.000 NA
ATOM     24  N   UNL     1       6.642   4.055  15.969  0.00  0.00    +0.000 NA
ATOM     25  C   UNL     1       5.661   4.289  16.828  0.00  0.00    +0.000 A 
ENDBRANCH  19  25
ENDBRANCH  18  19
ENDBRANCH  17  18
ENDBRANCH  11  17
ENDBRANCH   1  15
BRANCH   6  26
ATOM     26  C   UNL     1      -1.235  11.136  17.686  0.00  0.00    +0.000 C 
ATOM     27  C   UNL     1      -1.934  12.100  18.288  0.00  0.00    +0.000 C 
ATOM     28  N   UNL     1      -1.954  12.134  16.881  0.00  0.00    +0.000 N 
ATOM     29  H   UNL     1      -1.266  12.777  16.485  0.00  0.00    +0.000 HD
ENDBRANCH   6  26
BRANCH   8  30
ATOM     30  C   UNL     1      -0.309   9.194  22.235  0.00  0.00    +0.000 C 
ATOM     31  F   UNL     1      -0.972   8.046  22.543  0.00  0.00    +0.000 F 
ATOM     32  F   UNL     1       0.778   9.221  23.056  0.00  0.00    +0.000 F 
ATOM     33  F   UNL     1      -1.114  10.212  22.645  0.00  0.00    +0.000 F 
ENDBRANCH   8  30
TORSDOF 7
ENDMDL
MODEL 6
REMARK VINA RESULT:      -8.7      4.514      7.398
REMARK  Name = 
REMARK  8 active torsions:
REMARK  status: ('A' for Active; 'I' for Inactive)
REMARK    1  A    between atoms: C_1  and  N_2
REMARK    2  A    between atoms: C_6  and  C_7
REMARK    3  A    between atoms: C_7  and  C_8
REMARK    4  A    between atoms: C_8  and  O_9
REMARK    5  A    between atoms: O_9  and  C_10
REMARK    6  A    between atoms: C_14  and  N_15
REMARK    7  A    between atoms: C_20  and  C_21
REMARK    8  A    between atoms: C_25  and  C_26
REMARK                            x       y       z     vdW  Elec       q    Type
REMARK                         _______ _______ _______ _____ _____    ______ ____
ROOT
ATOM      1  N   UNL     1       5.698   4.938  15.866  0.00  0.00    +0.000 N 
ATOM      2  C   UNL     1       4.573   5.900  16.033  0.00  0.00    +0.000 C 
ATOM      3  C   UNL     1       3.958   5.456  17.326  0.00  0.00    +0.000 A 
ATOM      4  C   UNL     1       4.261   4.106  17.483  0.00  0.00    +0.000 A 
ATOM      5  C   UNL     1       3.947   3.399  18.623  0.00  0.00    +0.000 A 
ATOM      6  C   UNL     1       3.295   4.080  19.660  0.00  0.00    +0.000 A 
ATOM      7  C   UNL     1       2.975   5.446  19.512  0.00  0.00    +0.000 A 
ATOM      8  C   UNL     1       3.311   6.162  18.340  0.00  0.00    +0.000 A 
ATOM      9  C   UNL     1       5.217   3.718  16.433  0.00  0.00    +0.000 C 
ATOM     10  O   UNL     1       5.653   2.592  16.271  0.00  0.00    +0.000 OA
ENDROOT
BRANCH   1  15
ATOM     11  C   UNL     1       7.519   7.496  17.638  0.00  0.00    +0.000 A 
ATOM     12  C   UNL     1       7.759   6.727  18.784  0.00  0.00    +0.000 A 
ATOM     13  C   UNL     1       7.823   5.343  18.705  0.00  0.00    +0.000 A 
ATOM     14  C   UNL     1       7.504   4.713  17.516  0.00  0.00    +0.000 A 
ATOM     15  C   UNL     1       6.907   5.470  16.492  0.00  0.00    +0.000 A 
ATOM     16  C   UNL     1       7.091   6.860  16.474  0.00  0.00    +0.000 A 
BRANCH  11  17
ATOM     17  O   UNL     1       7.579   8.877  17.612  0.00  0.00    +0.000 OA
BRANCH  17  18
ATOM     18  C   UNL     1       8.693   9.375  18.361  0.00  0.00    +0.000 C 
BRANCH  18  19
ATOM     19  C   UNL     1       8.764  10.898  18.385  0.00  0.00    +0.000 C 
BRANCH  19  25
ATOM     20  C   UNL     1       9.519  11.925  21.275  0.00  0.00    +0.000 C 
ATOM     21  N   UNL     1      10.403  11.767  20.150  0.00  0.00    +0.000 N 
ATOM     22  C   UNL     1      11.735  12.050  20.156  0.00  0.00    +0.000 A 
ATOM     23  N   UNL     1      12.247  11.778  18.978  0.00  0.00    +0.000 NA
ATOM     24  N   UNL     1      11.229  11.318  18.192  0.00  0.00    +0.000 NA
ATOM     25  C   UNL     1      10.108  11.311  18.897  0.00  0.00    +0.000 A 
ENDBRANCH  19  25
ENDBRANCH  18  19
ENDBRANCH  17  18
ENDBRANCH  11  17
ENDBRANCH   1  15
BRANCH   6  26
ATOM     26  C   UNL     1       2.614   3.282  20.761  0.00  0.00    +0.000 C 
ATOM     27  C   UNL     1       1.344   3.536  21.078  0.00  0.00    +0.000 C 
ATOM     28  N   UNL     1       1.956   2.513  21.826  0.00  0.00    +0.000 N 
ATOM     29  H   UNL     1       1.759   1.578  21.465  0.00  0.00    +0.000 HD
ENDBRANCH   6  26
BRANCH   8  30
ATOM     30  C   UNL     1       2.991   7.630  18.255  0.00  0.00    +0.000 C 
ATOM     31  F   UNL     1       4.053   8.412  17.918  0.00  0.00    +0.000 F 
ATOM     32  F   UNL     1       2.033   7.893  17.324  0.00  0.00    +0.000 F 
ATOM     33  F   UNL     1       2.519   8.128  19.431  0.00  0.00    +0.000 F 
ENDBRANCH   8  30
TORSDOF 7
ENDMDL
MODEL 7
REMARK VINA RESULT:      -8.6      3.683      8.520
REMARK  Name = 
REMARK  8 active torsions:
REMARK  status: ('A' for Active; 'I' for Inactive)
REMARK    1  A    between atoms: C_1  and  N_2
REMARK    2  A    between atoms: C_6  and  C_7
REMARK    3  A    between atoms: C_7  and  C_8
REMARK    4  A    between atoms: C_8  and  O_9
REMARK    5  A    between atoms: O_9  and  C_10
REMARK    6  A    between atoms: C_14  and  N_15
REMARK    7  A    between atoms: C_20  and  C_21
REMARK    8  A    between atoms: C_25  and  C_26
REMARK                            x       y       z     vdW  Elec       q    Type
REMARK                         _______ _______ _______ _____ _____    ______ ____
ROOT
ATOM      1  N   UNL     1       2.585   7.349  19.478  0.00  0.00    +0.000 N 
ATOM      2  C   UNL     1       2.214   8.212  20.634  0.00  0.00    +0.000 C 
ATOM      3  C   UNL     1       1.061   9.001  20.091  0.00  0.00    +0.000 A 
ATOM      4  C   UNL     1       1.212   9.049  18.707  0.00  0.00    +0.000 A 
ATOM      5  C   UNL     1       0.264   9.602  17.873  0.00  0.00    +0.000 A 
ATOM      6  C   UNL     1      -0.894  10.135  18.455  0.00  0.00    +0.000 A 
ATOM      7  C   UNL     1      -1.056  10.099  19.856  0.00  0.00    +0.000 A 
ATOM      8  C   UNL     1      -0.080   9.522  20.700  0.00  0.00    +0.000 A 
ATOM      9  C   UNL     1       2.313   8.150  18.327  0.00  0.00    +0.000 C 
ATOM     10  O   UNL     1       2.722   7.995  17.190  0.00  0.00    +0.000 OA
ENDROOT
BRANCH   1  15
ATOM     11  C   UNL     1       2.141   3.860  18.683  0.00  0.00    +0.000 A 
ATOM     12  C   UNL     1       2.208   3.407  20.007  0.00  0.00    +0.000 A 
ATOM     13  C   UNL     1       1.839   4.235  21.057  0.00  0.00    +0.000 A 
ATOM     14  C   UNL     1       1.543   5.563  20.805  0.00  0.00    +0.000 A 
ATOM     15  C   UNL     1       1.843   6.091  19.536  0.00  0.00    +0.000 A 
ATOM     16  C   UNL     1       1.951   5.220  18.443  0.00  0.00    +0.000 A 
BRANCH  11  17
ATOM     17  O   UNL     1       2.357   3.053  17.582  0.00  0.00    +0.000 OA
BRANCH  17  18
ATOM     18  C   UNL     1       3.749   2.785  17.383  0.00  0.00    +0.000 C 
BRANCH  18  19
ATOM     19  C   UNL     1       4.465   3.888  16.610  0.00  0.00    +0.000 C 
BRANCH  19  25
ATOM     20  C   UNL     1       7.263   4.819  15.476  0.00  0.00    +0.000 C 
ATOM     21  N   UNL     1       6.886   4.688  16.859  0.00  0.00    +0.000 N 
ATOM     22  C   UNL     1       7.699   4.945  17.920  0.00  0.00    +0.000 A 
ATOM     23  N   UNL     1       7.041   4.743  19.038  0.00  0.00    +0.000 NA
ATOM     24  N   UNL     1       5.781   4.341  18.697  0.00  0.00    +0.000 NA
ATOM     25  C   UNL     1       5.681   4.304  17.377  0.00  0.00    +0.000 A 
ENDBRANCH  19  25
ENDBRANCH  18  19
ENDBRANCH  17  18
ENDBRANCH  11  17
ENDBRANCH   1  15
BRANCH   6  26
ATOM     26  C   UNL     1      -1.780  11.061  17.638  0.00  0.00    +0.000 C 
ATOM     27  C   UNL     1      -3.107  10.959  17.722  0.00  0.00    +0.000 C 
ATOM     28  N   UNL     1      -2.636  11.956  16.848  0.00  0.00    +0.000 N 
ATOM     29  H   UNL     1      -2.605  12.884  17.274  0.00  0.00    +0.000 HD
ENDBRANCH   6  26
BRANCH   8  30
ATOM     30  C   UNL     1      -0.327   9.465  22.184  0.00  0.00    +0.000 C 
ATOM     31  F   UNL     1      -0.892   8.302  22.610  0.00  0.00    +0.000 F 
ATOM     32  F   UNL     1       0.823   9.598  22.901  0.00  0.00    +0.000 F 
ATOM     33  F   UNL     1      -1.152  10.460  22.611  0.00  0.00    +0.000 F 
ENDBRANCH   8  30
TORSDOF 7
ENDMDL
MODEL 8
REMARK VINA RESULT:      -8.6      4.459      7.032
REMARK  Name = 
REMARK  8 active torsions:
REMARK  status: ('A' for Active; 'I' for Inactive)
REMARK    1  A    between atoms: C_1  and  N_2
REMARK    2  A    between atoms: C_6  and  C_7
REMARK    3  A    between atoms: C_7  and  C_8
REMARK    4  A    between atoms: C_8  and  O_9
REMARK    5  A    between atoms: O_9  and  C_10
REMARK    6  A    between atoms: C_14  and  N_15
REMARK    7  A    between atoms: C_20  and  C_21
REMARK    8  A    between atoms: C_25  and  C_26
REMARK                            x       y       z     vdW  Elec       q    Type
REMARK                         _______ _______ _______ _____ _____    ______ ____
ROOT
ATOM      1  N   UNL     1       5.865   5.180  15.722  0.00  0.00    +0.000 N 
ATOM      2  C   UNL     1       4.751   6.155  15.886  0.00  0.00    +0.000 C 
ATOM      3  C   UNL     1       4.036   5.628  17.094  0.00  0.00    +0.000 A 
ATOM      4  C   UNL     1       4.300   4.262  17.163  0.00  0.00    +0.000 A 
ATOM      5  C   UNL     1       3.890   3.477  18.219  0.00  0.00    +0.000 A 
ATOM      6  C   UNL     1       3.179   4.092  19.258  0.00  0.00    +0.000 A 
ATOM      7  C   UNL     1       2.898   5.473  19.197  0.00  0.00    +0.000 A 
ATOM      8  C   UNL     1       3.331   6.269  18.112  0.00  0.00    +0.000 A 
ATOM      9  C   UNL     1       5.321   3.933  16.156  0.00  0.00    +0.000 C 
ATOM     10  O   UNL     1       5.744   2.811  15.936  0.00  0.00    +0.000 OA
ENDROOT
BRANCH   1  15
ATOM     11  C   UNL     1       7.623   7.569  17.773  0.00  0.00    +0.000 A 
ATOM     12  C   UNL     1       7.740   6.732  18.891  0.00  0.00    +0.000 A 
ATOM     13  C   UNL     1       7.762   5.353  18.742  0.00  0.00    +0.000 A 
ATOM     14  C   UNL     1       7.520   4.798  17.498  0.00  0.00    +0.000 A 
ATOM     15  C   UNL     1       7.036   5.631  16.472  0.00  0.00    +0.000 A 
ATOM     16  C   UNL     1       7.271   7.011  16.545  0.00  0.00    +0.000 A 
BRANCH  11  17
ATOM     17  O   UNL     1       7.734   8.945  17.828  0.00  0.00    +0.000 OA
BRANCH  17  18
ATOM     18  C   UNL     1       8.835   9.358  18.645  0.00  0.00    +0.000 C 
BRANCH  18  19
ATOM     19  C   UNL     1       9.386  10.726  18.257  0.00  0.00    +0.000 C 
BRANCH  19  25
ATOM     20  C   UNL     1      10.927  13.467  18.565  0.00  0.00    +0.000 C 
ATOM     21  N   UNL     1      10.289  12.706  19.607  0.00  0.00    +0.000 N 
ATOM     22  C   UNL     1      10.256  13.057  20.922  0.00  0.00    +0.000 A 
ATOM     23  N   UNL     1       9.581  12.157  21.600  0.00  0.00    +0.000 NA
ATOM     24  N   UNL     1       9.176  11.202  20.711  0.00  0.00    +0.000 NA
ATOM     25  C   UNL     1       9.604  11.530  19.501  0.00  0.00    +0.000 A 
ENDBRANCH  19  25
ENDBRANCH  18  19
ENDBRANCH  17  18
ENDBRANCH  11  17
ENDBRANCH   1  15
BRANCH   6  26
ATOM     26  C   UNL     1       2.404   3.229  20.242  0.00  0.00    +0.000 C 
ATOM     27  C   UNL     1       1.074   3.169  20.171  0.00  0.00    +0.000 C 
ATOM     28  N   UNL     1       1.655   2.396  21.193  0.00  0.00    +0.000 N 
ATOM     29  H   UNL     1       1.789   1.418  20.931  0.00  0.00    +0.000 HD
ENDBRANCH   6  26
BRANCH   8  30
ATOM     30  C   UNL     1       3.048   7.748  18.122  0.00  0.00    +0.000 C 
ATOM     31  F   UNL     1       4.147   8.526  17.922  0.00  0.00    +0.000 F 
ATOM     32  F   UNL     1       2.164   8.107  17.150  0.00  0.00    +0.000 F 
ATOM     33  F   UNL     1       2.504   8.164  19.297  0.00  0.00    +0.000 F 
ENDBRANCH   8  30
TORSDOF 7
ENDMDL
MODEL 9
REMARK VINA RESULT:      -8.5      3.603      8.331
REMARK  Name = 
REMARK  8 active torsions:
REMARK  status: ('A' for Active; 'I' for Inactive)
REMARK    1  A    between atoms: C_1  and  N_2
REMARK    2  A    between atoms: C_6  and  C_7
REMARK    3  A    between atoms: C_7  and  C_8
REMARK    4  A    between atoms: C_8  and  O_9
REMARK    5  A    between atoms: O_9  and  C_10
REMARK    6  A    between atoms: C_14  and  N_15
REMARK    7  A    between atoms: C_20  and  C_21
REMARK    8  A    between atoms: C_25  and  C_26
REMARK                            x       y       z     vdW  Elec       q    Type
REMARK                         _______ _______ _______ _____ _____    ______ ____
ROOT
ATOM      1  N   UNL     1       2.616   6.932  19.713  0.00  0.00    +0.000 N 
ATOM      2  C   UNL     1       2.236   7.763  20.889  0.00  0.00    +0.000 C 
ATOM      3  C   UNL     1       1.242   8.719  20.301  0.00  0.00    +0.000 A 
ATOM      4  C   UNL     1       1.533   8.830  18.944  0.00  0.00    +0.000 A 
ATOM      5  C   UNL     1       0.743   9.544  18.069  0.00  0.00    +0.000 A 
ATOM      6  C   UNL     1      -0.397  10.179  18.580  0.00  0.00    +0.000 A 
ATOM      7  C   UNL     1      -0.699  10.080  19.955  0.00  0.00    +0.000 A 
ATOM      8  C   UNL     1       0.114   9.338  20.840  0.00  0.00    +0.000 A 
ATOM      9  C   UNL     1       2.554   7.828  18.602  0.00  0.00    +0.000 C 
ATOM     10  O   UNL     1       3.052   7.691  17.498  0.00  0.00    +0.000 OA
ENDROOT
BRANCH   1  15
ATOM     11  C   UNL     1       1.818   3.607  18.567  0.00  0.00    +0.000 A 
ATOM     12  C   UNL     1       1.751   3.033  19.843  0.00  0.00    +0.000 A 
ATOM     13  C   UNL     1       1.419   3.803  20.948  0.00  0.00    +0.000 A 
ATOM     14  C   UNL     1       1.296   5.174  20.811  0.00  0.00    +0.000 A 
ATOM     15  C   UNL     1       1.731   5.772  19.614  0.00  0.00    +0.000 A 
ATOM     16  C   UNL     1       1.803   4.996  18.449  0.00  0.00    +0.000 A 
BRANCH  11  17
ATOM     17  O   UNL     1       2.004   2.881  17.406  0.00  0.00    +0.000 OA
BRANCH  17  18
ATOM     18  C   UNL     1       3.121   3.363  16.650  0.00  0.00    +0.000 C 
BRANCH  18  19
ATOM     19  C   UNL     1       4.461   3.081  17.318  0.00  0.00    +0.000 C 
BRANCH  19  25
ATOM     20  C   UNL     1       6.352   4.067  14.987  0.00  0.00    +0.000 C 
ATOM     21  N   UNL     1       6.119   4.716  16.251  0.00  0.00    +0.000 N 
ATOM     22  C   UNL     1       6.697   5.883  16.649  0.00  0.00    +0.000 A 
ATOM     23  N   UNL     1       6.256   6.206  17.843  0.00  0.00    +0.000 NA
ATOM     24  N   UNL     1       5.383   5.229  18.229  0.00  0.00    +0.000 NA
ATOM     25  C   UNL     1       5.297   4.323  17.268  0.00  0.00    +0.000 A 
ENDBRANCH  19  25
ENDBRANCH  18  19
ENDBRANCH  17  18
ENDBRANCH  11  17
ENDBRANCH   1  15
BRANCH   6  26
ATOM     26  C   UNL     1      -1.084  11.255  17.754  0.00  0.00    +0.000 C 
ATOM     27  C   UNL     1      -2.412  11.376  17.791  0.00  0.00    +0.000 C 
ATOM     28  N   UNL     1      -1.748  12.293  16.955  0.00  0.00    +0.000 N 
ATOM     29  H   UNL     1      -1.578  13.195  17.403  0.00  0.00    +0.000 HD
ENDBRANCH   6  26
BRANCH   8  30
ATOM     30  C   UNL     1      -0.283   9.223  22.288  0.00  0.00    +0.000 C 
ATOM     31  F   UNL     1       0.766   9.244  23.156  0.00  0.00    +0.000 F 
ATOM     32  F   UNL     1      -1.100  10.241  22.677  0.00  0.00    +0.000 F 
ATOM     33  F   UNL     1      -0.963   8.074  22.550  0.00  0.00    +0.000 F 
ENDBRANCH   8  30
TORSDOF 7
ENDMDL
