MODEL 1
REMARK VINA RESULT:      -9.3      0.000      0.000
REMARK  Name = 
REMARK  5 active torsions:
REMARK  status: ('A' for Active; 'I' for Inactive)
REMARK    1  A    between atoms: C_1  and  C_2
REMARK    2  A    between atoms: C_5  and  C_6
REMARK    3  A    between atoms: N_8  and  C_9
REMARK    4  A    between atoms: C_12  and  O_13
REMARK    5  A    between atoms: O_13  and  C_14
REMARK                            x       y       z     vdW  Elec       q    Type
REMARK                         _______ _______ _______ _____ _____    ______ ____
ROOT
ATOM      1  C   UNL     1       7.771   8.058  17.769  0.00  0.00    +0.000 A 
ATOM      2  C   UNL     1       6.546   7.710  17.197  0.00  0.00    +0.000 A 
ATOM      3  C   UNL     1       5.879   6.492  17.505  0.00  0.00    +0.000 A 
ATOM      4  C   UNL     1       6.415   5.568  18.404  0.00  0.00    +0.000 A 
ATOM      5  C   UNL     1       7.667   5.901  18.962  0.00  0.00    +0.000 A 
ATOM      6  C   UNL     1       8.348   7.112  18.628  0.00  0.00    +0.000 A 
ENDROOT
BRANCH   1   9
ATOM      7  C   UNL     1       8.993  10.151  18.500  0.00  0.00    +0.000 C 
ATOM      8  O   UNL     1       9.097   9.835  19.686  0.00  0.00    +0.000 OA
ATOM      9  N   UNL     1       8.432   9.320  17.528  0.00  0.00    +0.000 N 
ATOM     10  H   UNL     1       8.557   9.610  16.555  0.00  0.00    +0.000 HD
BRANCH   7  15
ATOM     11  C   UNL     1      11.290  15.374  17.091  0.00  0.00    +0.000 C 
ATOM     12  C   UNL     1      10.728  14.019  17.430  0.00  0.00    +0.000 A 
ATOM     13  C   UNL     1      11.464  13.023  17.940  0.00  0.00    +0.000 A 
ATOM     14  C   UNL     1      10.843  11.751  18.264  0.00  0.00    +0.000 A 
ATOM     15  C   UNL     1       9.535  11.503  18.072  0.00  0.00    +0.000 A 
ATOM     16  C   UNL     1       8.732  12.606  17.475  0.00  0.00    +0.000 A 
ATOM     17  O   UNL     1       7.533  12.463  17.230  0.00  0.00    +0.000 OA
ATOM     18  N   UNL     1       9.381  13.791  17.206  0.00  0.00    +0.000 N 
ATOM     19  H   UNL     1       8.818  14.536  16.812  0.00  0.00    +0.000 HD
ENDBRANCH   7  15
ENDBRANCH   1   9
BRANCH   4  20
ATOM     20  O   UNL     1       5.556   4.693  19.073  0.00  0.00    +0.000 OA
BRANCH  20  21
ATOM     21  C   UNL     1       4.443   4.077  18.499  0.00  0.00    +0.000 A 
ATOM     22  C   UNL     1       4.639   3.151  17.468  0.00  0.00    +0.000 A 
ATOM     23  C   UNL     1       3.650   2.210  17.215  0.00  0.00    +0.000 A 
ATOM     24  N   UNL     1       2.481   2.136  17.878  0.00  0.00    +0.000 NA
ATOM     25  C   UNL     1       2.248   3.049  18.823  0.00  0.00    +0.000 A 
ATOM     26  C   UNL     1       1.001   2.987  19.429  0.00  0.00    +0.000 A 
ATOM     27  C   UNL     1       0.612   3.909  20.394  0.00  0.00    +0.000 A 
ATOM     28  C   UNL     1       1.530   4.871  20.815  0.00  0.00    +0.000 A 
ATOM     29  C   UNL     1       2.810   4.917  20.249  0.00  0.00    +0.000 A 
ATOM     30  C   UNL     1       3.193   4.043  19.203  0.00  0.00    +0.000 A 
ENDBRANCH  20  21
ENDBRANCH   4  20
TORSDOF 4
ENDMDL
MODEL 2
REMARK VINA RESULT:      -8.9      6.214      8.624
REMARK  Name = 
REMARK  5 active torsions:
REMARK  status: ('A' for Active; 'I' for Inactive)
REMARK    1  A    between atoms: C_1  and  C_2
REMARK    2  A    between atoms: C_5  and  C_6
REMARK    3  A    between atoms: N_8  and  C_9
REMARK    4  A    between atoms: C_12  and  O_13
REMARK    5  A    between atoms: O_13  and  C_14
REMARK                            x       y       z     vdW  Elec       q    Type
REMARK                         _______ _______ _______ _____ _____    ______ ____
ROOT
ATOM      1  C   UNL     1       0.794   9.256  19.664  0.00  0.00    +0.000 A 
ATOM      2  C   UNL     1       1.198   9.614  18.378  0.00  0.00    +0.000 A 
ATOM      3  C   UNL     1       2.182   8.882  17.656  0.00  0.00    +0.000 A 
ATOM      4  C   UNL     1       2.803   7.756  18.197  0.00  0.00    +0.000 A 
ATOM      5  C   UNL     1       2.420   7.407  19.509  0.00  0.00    +0.000 A 
ATOM      6  C   UNL     1       1.453   8.161  20.242  0.00  0.00    +0.000 A 
ENDROOT
BRANCH   1   9
ATOM      7  C   UNL     1      -0.325  11.313  20.629  0.00  0.00    +0.000 C 
ATOM      8  O   UNL     1       0.454  12.129  20.135  0.00  0.00    +0.000 OA
ATOM      9  N   UNL     1      -0.254   9.938  20.389  0.00  0.00    +0.000 N 
ATOM     10  H   UNL     1      -1.051   9.380  20.705  0.00  0.00    +0.000 HD
BRANCH   7  15
ATOM     11  C   UNL     1      -4.606  13.617  23.930  0.00  0.00    +0.000 C 
ATOM     12  C   UNL     1      -3.536  13.016  23.058  0.00  0.00    +0.000 A 
ATOM     13  C   UNL     1      -3.371  13.335  21.767  0.00  0.00    +0.000 A 
ATOM     14  C   UNL     1      -2.297  12.728  21.000  0.00  0.00    +0.000 A 
ATOM     15  C   UNL     1      -1.437  11.836  21.519  0.00  0.00    +0.000 A 
ATOM     16  C   UNL     1      -1.649  11.464  22.946  0.00  0.00    +0.000 A 
ATOM     17  O   UNL     1      -0.933  10.628  23.502  0.00  0.00    +0.000 OA
ATOM     18  N   UNL     1      -2.676  12.088  23.620  0.00  0.00    +0.000 N 
ATOM     19  H   UNL     1      -2.799  11.834  24.593  0.00  0.00    +0.000 HD
ENDBRANCH   7  15
ENDBRANCH   1   9
BRANCH   4  20
ATOM     20  O   UNL     1       3.328   6.790  17.336  0.00  0.00    +0.000 OA
BRANCH  20  21
ATOM     21  C   UNL     1       4.056   5.672  17.743  0.00  0.00    +0.000 A 
ATOM     22  C   UNL     1       5.392   5.837  18.126  0.00  0.00    +0.000 A 
ATOM     23  C   UNL     1       5.976   4.884  18.951  0.00  0.00    +0.000 A 
ATOM     24  N   UNL     1       5.353   3.778  19.397  0.00  0.00    +0.000 NA
ATOM     25  C   UNL     1       4.098   3.570  18.993  0.00  0.00    +0.000 A 
ATOM     26  C   UNL     1       3.519   2.380  19.410  0.00  0.00    +0.000 A 
ATOM     27  C   UNL     1       2.234   2.018  19.019  0.00  0.00    +0.000 A 
ATOM     28  C   UNL     1       1.487   2.911  18.252  0.00  0.00    +0.000 A 
ATOM     29  C   UNL     1       2.040   4.138  17.863  0.00  0.00    +0.000 A 
ATOM     30  C   UNL     1       3.376   4.485  18.177  0.00  0.00    +0.000 A 
ENDBRANCH  20  21
ENDBRANCH   4  20
TORSDOF 4
ENDMDL
MODEL 3
REMARK VINA RESULT:      -8.9      6.257      8.591
REMARK  Name = 
REMARK  5 active torsions:
REMARK  status: ('A' for Active; 'I' for Inactive)
REMARK    1  A    between atoms: C_1  and  C_2
REMARK    2  A    between atoms: C_5  and  C_6
REMARK    3  A    between atoms: N_8  and  C_9
REMARK    4  A    between atoms: C_12  and  O_13
REMARK    5  A    between atoms: O_13  and  C_14
REMARK                            x       y       z     vdW  Elec       q    Type
REMARK                         _______ _______ _______ _____ _____    ______ ____
ROOT
ATOM      1  C   UNL     1       0.801   9.576  19.416  0.00  0.00    +0.000 A 
ATOM      2  C   UNL     1       1.392   9.878  18.188  0.00  0.00    +0.000 A 
ATOM      3  C   UNL     1       2.351   9.026  17.573  0.00  0.00    +0.000 A 
ATOM      4  C   UNL     1       2.758   7.830  18.166  0.00  0.00    +0.000 A 
ATOM      5  C   UNL     1       2.187   7.535  19.421  0.00  0.00    +0.000 A 
ATOM      6  C   UNL     1       1.246   8.407  20.050  0.00  0.00    +0.000 A 
ENDROOT
BRANCH   1   9
ATOM      7  C   UNL     1      -0.148  11.016  21.270  0.00  0.00    +0.000 C 
ATOM      8  O   UNL     1       0.880  11.049  21.949  0.00  0.00    +0.000 OA
ATOM      9  N   UNL     1      -0.228  10.387  20.025  0.00  0.00    +0.000 N 
ATOM     10  H   UNL     1      -1.071  10.573  19.476  0.00  0.00    +0.000 HD
BRANCH   7  15
ATOM     11  C   UNL     1      -4.974  13.506  23.515  0.00  0.00    +0.000 C 
ATOM     12  C   UNL     1      -3.717  12.883  22.969  0.00  0.00    +0.000 A 
ATOM     13  C   UNL     1      -2.909  12.098  23.693  0.00  0.00    +0.000 A 
ATOM     14  C   UNL     1      -1.726  11.514  23.085  0.00  0.00    +0.000 A 
ATOM     15  C   UNL     1      -1.379  11.725  21.804  0.00  0.00    +0.000 A 
ATOM     16  C   UNL     1      -2.266  12.626  21.016  0.00  0.00    +0.000 A 
ATOM     17  O   UNL     1      -2.012  12.907  19.843  0.00  0.00    +0.000 OA
ATOM     18  N   UNL     1      -3.380  13.134  21.650  0.00  0.00    +0.000 N 
ATOM     19  H   UNL     1      -3.980  13.734  21.097  0.00  0.00    +0.000 HD
ENDBRANCH   7  15
ENDBRANCH   1   9
BRANCH   4  20
ATOM     20  O   UNL     1       3.252   6.804  17.357  0.00  0.00    +0.000 OA
BRANCH  20  21
ATOM     21  C   UNL     1       3.969   5.701  17.821  0.00  0.00    +0.000 A 
ATOM     22  C   UNL     1       5.289   5.882  18.249  0.00  0.00    +0.000 A 
ATOM     23  C   UNL     1       5.845   4.954  19.121  0.00  0.00    +0.000 A 
ATOM     24  N   UNL     1       5.210   3.857  19.570  0.00  0.00    +0.000 NA
ATOM     25  C   UNL     1       3.972   3.632  19.124  0.00  0.00    +0.000 A 
ATOM     26  C   UNL     1       3.382   2.450  19.550  0.00  0.00    +0.000 A 
ATOM     27  C   UNL     1       2.115   2.071  19.120  0.00  0.00    +0.000 A 
ATOM     28  C   UNL     1       1.394   2.940  18.302  0.00  0.00    +0.000 A 
ATOM     29  C   UNL     1       1.956   4.160  17.903  0.00  0.00    +0.000 A 
ATOM     30  C   UNL     1       3.278   4.522  18.258  0.00  0.00    +0.000 A 
ENDBRANCH  20  21
ENDBRANCH   4  20
TORSDOF 4
ENDMDL
MODEL 4
REMARK VINA RESULT:      -8.9      6.230      8.281
REMARK  Name = 
REMARK  5 active torsions:
REMARK  status: ('A' for Active; 'I' for Inactive)
REMARK    1  A    between atoms: C_1  and  C_2
REMARK    2  A    between atoms: C_5  and  C_6
REMARK    3  A    between atoms: N_8  and  C_9
REMARK    4  A    between atoms: C_12  and  O_13
REMARK    5  A    between atoms: O_13  and  C_14
REMARK                            x       y       z     vdW  Elec       q    Type
REMARK                         _______ _______ _______ _____ _____    ______ ____
ROOT
ATOM      1  C   UNL     1       0.906   9.578  19.956  0.00  0.00    +0.000 A 
ATOM      2  C   UNL     1       1.308   9.865  18.651  0.00  0.00    +0.000 A 
ATOM      3  C   UNL     1       2.111   8.972  17.886  0.00  0.00    +0.000 A 
ATOM      4  C   UNL     1       2.544   7.750  18.402  0.00  0.00    +0.000 A 
ATOM      5  C   UNL     1       2.166   7.469  19.731  0.00  0.00    +0.000 A 
ATOM      6  C   UNL     1       1.385   8.380  20.506  0.00  0.00    +0.000 A 
ENDROOT
BRANCH   1   9
ATOM      7  C   UNL     1       0.380  11.658  21.301  0.00  0.00    +0.000 C 
ATOM      8  O   UNL     1       1.461  12.216  21.109  0.00  0.00    +0.000 OA
ATOM      9  N   UNL     1       0.032  10.433  20.726  0.00  0.00    +0.000 N 
ATOM     10  H   UNL     1      -0.948  10.153  20.811  0.00  0.00    +0.000 HD
BRANCH   7  15
ATOM     11  C   UNL     1      -3.787  14.232  24.549  0.00  0.00    +0.000 C 
ATOM     12  C   UNL     1      -2.720  13.542  23.741  0.00  0.00    +0.000 A 
ATOM     13  C   UNL     1      -2.844  12.296  23.266  0.00  0.00    +0.000 A 
ATOM     14  C   UNL     1      -1.777  11.709  22.474  0.00  0.00    +0.000 A 
ATOM     15  C   UNL     1      -0.637  12.359  22.183  0.00  0.00    +0.000 A 
ATOM     16  C   UNL     1      -0.495  13.732  22.742  0.00  0.00    +0.000 A 
ATOM     17  O   UNL     1       0.529  14.394  22.559  0.00  0.00    +0.000 OA
ATOM     18  N   UNL     1      -1.550  14.233  23.473  0.00  0.00    +0.000 N 
ATOM     19  H   UNL     1      -1.444  15.173  23.835  0.00  0.00    +0.000 HD
ENDBRANCH   7  15
ENDBRANCH   1   9
BRANCH   4  20
ATOM     20  O   UNL     1       2.848   6.710  17.520  0.00  0.00    +0.000 OA
BRANCH  20  21
ATOM     21  C   UNL     1       3.611   5.588  17.845  0.00  0.00    +0.000 A 
ATOM     22  C   UNL     1       4.977   5.750  18.101  0.00  0.00    +0.000 A 
ATOM     23  C   UNL     1       5.637   4.790  18.858  0.00  0.00    +0.000 A 
ATOM     24  N   UNL     1       5.059   3.679  19.349  0.00  0.00    +0.000 NA
ATOM     25  C   UNL     1       3.771   3.474  19.064  0.00  0.00    +0.000 A 
ATOM     26  C   UNL     1       3.234   2.280  19.522  0.00  0.00    +0.000 A 
ATOM     27  C   UNL     1       1.918   1.920  19.251  0.00  0.00    +0.000 A 
ATOM     28  C   UNL     1       1.101   2.820  18.567  0.00  0.00    +0.000 A 
ATOM     29  C   UNL     1       1.615   4.052  18.140  0.00  0.00    +0.000 A 
ATOM     30  C   UNL     1       2.975   4.397  18.329  0.00  0.00    +0.000 A 
ENDBRANCH  20  21
ENDBRANCH   4  20
TORSDOF 4
ENDMDL
MODEL 5
REMARK VINA RESULT:      -8.9      6.526      8.198
REMARK  Name = 
REMARK  5 active torsions:
REMARK  status: ('A' for Active; 'I' for Inactive)
REMARK    1  A    between atoms: C_1  and  C_2
REMARK    2  A    between atoms: C_5  and  C_6
REMARK    3  A    between atoms: N_8  and  C_9
REMARK    4  A    between atoms: C_12  and  O_13
REMARK    5  A    between atoms: O_13  and  C_14
REMARK                            x       y       z     vdW  Elec       q    Type
REMARK                         _______ _______ _______ _____ _____    ______ ____
ROOT
ATOM      1  C   UNL     1       0.920   9.790  19.895  0.00  0.00    +0.000 A 
ATOM      2  C   UNL     1       1.342  10.010  18.583  0.00  0.00    +0.000 A 
ATOM      3  C   UNL     1       2.090   9.046  17.851  0.00  0.00    +0.000 A 
ATOM      4  C   UNL     1       2.446   7.816  18.407  0.00  0.00    +0.000 A 
ATOM      5  C   UNL     1       2.048   7.602  19.743  0.00  0.00    +0.000 A 
ATOM      6  C   UNL     1       1.322   8.583  20.485  0.00  0.00    +0.000 A 
ENDROOT
BRANCH   1   9
ATOM      7  C   UNL     1       0.530  11.919  21.211  0.00  0.00    +0.000 C 
ATOM      8  O   UNL     1       1.659  12.382  21.048  0.00  0.00    +0.000 OA
ATOM      9  N   UNL     1       0.098  10.722  20.634  0.00  0.00    +0.000 N 
ATOM     10  H   UNL     1      -0.904  10.525  20.692  0.00  0.00    +0.000 HD
BRANCH   7  15
ATOM     11  C   UNL     1      -3.046  15.203  24.523  0.00  0.00    +0.000 C 
ATOM     12  C   UNL     1      -2.144  14.380  23.643  0.00  0.00    +0.000 A 
ATOM     13  C   UNL     1      -1.293  14.912  22.755  0.00  0.00    +0.000 A 
ATOM     14  C   UNL     1      -0.437  14.049  21.960  0.00  0.00    +0.000 A 
ATOM     15  C   UNL     1      -0.451  12.709  22.059  0.00  0.00    +0.000 A 
ATOM     16  C   UNL     1      -1.423  12.125  23.025  0.00  0.00    +0.000 A 
ATOM     17  O   UNL     1      -1.534  10.905  23.162  0.00  0.00    +0.000 OA
ATOM     18  N   UNL     1      -2.194  13.001  23.758  0.00  0.00    +0.000 N 
ATOM     19  H   UNL     1      -2.840  12.588  24.420  0.00  0.00    +0.000 HD
ENDBRANCH   7  15
ENDBRANCH   1   9
BRANCH   4  20
ATOM     20  O   UNL     1       2.687   6.732  17.560  0.00  0.00    +0.000 OA
BRANCH  20  21
ATOM     21  C   UNL     1       3.507   5.647  17.870  0.00  0.00    +0.000 A 
ATOM     22  C   UNL     1       4.864   5.875  18.124  0.00  0.00    +0.000 A 
ATOM     23  C   UNL     1       5.574   4.942  18.868  0.00  0.00    +0.000 A 
ATOM     24  N   UNL     1       5.055   3.797  19.348  0.00  0.00    +0.000 NA
ATOM     25  C   UNL     1       3.778   3.530  19.064  0.00  0.00    +0.000 A 
ATOM     26  C   UNL     1       3.303   2.305  19.511  0.00  0.00    +0.000 A 
ATOM     27  C   UNL     1       2.006   1.883  19.240  0.00  0.00    +0.000 A 
ATOM     28  C   UNL     1       1.143   2.748  18.569  0.00  0.00    +0.000 A 
ATOM     29  C   UNL     1       1.592   4.009  18.154  0.00  0.00    +0.000 A 
ATOM     30  C   UNL     1       2.934   4.420  18.343  0.00  0.00    +0.000 A 
ENDBRANCH  20  21
ENDBRANCH   4  20
TORSDOF 4
ENDMDL
MODEL 6
REMARK VINA RESULT:      -8.7      1.839      2.541
REMARK  Name = 
REMARK  5 active torsions:
REMARK  status: ('A' for Active; 'I' for Inactive)
REMARK    1  A    between atoms: C_1  and  C_2
REMARK    2  A    between atoms: C_5  and  C_6
REMARK    3  A    between atoms: N_8  and  C_9
REMARK    4  A    between atoms: C_12  and  O_13
REMARK    5  A    between atoms: O_13  and  C_14
REMARK                            x       y       z     vdW  Elec       q    Type
REMARK                         _______ _______ _______ _____ _____    ______ ____
ROOT
ATOM      1  C   UNL     1       8.115   7.483  18.366  0.00  0.00    +0.000 A 
ATOM      2  C   UNL     1       7.518   7.338  17.113  0.00  0.00    +0.000 A 
ATOM      3  C   UNL     1       6.783   6.176  16.748  0.00  0.00    +0.000 A 
ATOM      4  C   UNL     1       6.614   5.107  17.629  0.00  0.00    +0.000 A 
ATOM      5  C   UNL     1       7.241   5.235  18.886  0.00  0.00    +0.000 A 
ATOM      6  C   UNL     1       8.003   6.391  19.239  0.00  0.00    +0.000 A 
ENDROOT
BRANCH   1   9
ATOM      7  C   UNL     1       8.655   9.953  18.225  0.00  0.00    +0.000 C 
ATOM      8  O   UNL     1       7.812  10.223  17.369  0.00  0.00    +0.000 OA
ATOM      9  N   UNL     1       8.803   8.682  18.786  0.00  0.00    +0.000 N 
ATOM     10  H   UNL     1       9.411   8.615  19.606  0.00  0.00    +0.000 HD
BRANCH   7  15
ATOM     11  C   UNL     1      12.333  14.229  19.875  0.00  0.00    +0.000 C 
ATOM     12  C   UNL     1      11.371  13.160  19.431  0.00  0.00    +0.000 A 
ATOM     13  C   UNL     1      11.081  12.915  18.147  0.00  0.00    +0.000 A 
ATOM     14  C   UNL     1      10.159  11.848  17.799  0.00  0.00    +0.000 A 
ATOM     15  C   UNL     1       9.557  11.070  18.716  0.00  0.00    +0.000 A 
ATOM     16  C   UNL     1       9.861  11.371  20.143  0.00  0.00    +0.000 A 
ATOM     17  O   UNL     1       9.332  10.736  21.057  0.00  0.00    +0.000 OA
ATOM     18  N   UNL     1      10.756  12.387  20.402  0.00  0.00    +0.000 N 
ATOM     19  H   UNL     1      10.962  12.570  21.377  0.00  0.00    +0.000 HD
ENDBRANCH   7  15
ENDBRANCH   1   9
BRANCH   4  20
ATOM     20  O   UNL     1       5.510   4.266  17.475  0.00  0.00    +0.000 OA
BRANCH  20  21
ATOM     21  C   UNL     1       4.381   4.276  18.294  0.00  0.00    +0.000 A 
ATOM     22  C   UNL     1       4.191   3.224  19.197  0.00  0.00    +0.000 A 
ATOM     23  C   UNL     1       3.380   3.430  20.306  0.00  0.00    +0.000 A 
ATOM     24  N   UNL     1       2.727   4.576  20.569  0.00  0.00    +0.000 NA
ATOM     25  C   UNL     1       2.845   5.571  19.688  0.00  0.00    +0.000 A 
ATOM     26  C   UNL     1       2.094   6.707  19.956  0.00  0.00    +0.000 A 
ATOM     27  C   UNL     1       2.087   7.798  19.092  0.00  0.00    +0.000 A 
ATOM     28  C   UNL     1       2.917   7.774  17.972  0.00  0.00    +0.000 A 
ATOM     29  C   UNL     1       3.718   6.654  17.713  0.00  0.00    +0.000 A 
ATOM     30  C   UNL     1       3.672   5.500  18.532  0.00  0.00    +0.000 A 
ENDBRANCH  20  21
ENDBRANCH   4  20
TORSDOF 4
ENDMDL
MODEL 7
REMARK VINA RESULT:      -8.5      7.199      9.734
REMARK  Name = 
REMARK  5 active torsions:
REMARK  status: ('A' for Active; 'I' for Inactive)
REMARK    1  A    between atoms: C_1  and  C_2
REMARK    2  A    between atoms: C_5  and  C_6
REMARK    3  A    between atoms: N_8  and  C_9
REMARK    4  A    between atoms: C_12  and  O_13
REMARK    5  A    between atoms: O_13  and  C_14
REMARK                            x       y       z     vdW  Elec       q    Type
REMARK                         _______ _______ _______ _____ _____    ______ ____
ROOT
ATOM      1  C   UNL     1      -0.487  10.033  19.393  0.00  0.00    +0.000 A 
ATOM      2  C   UNL     1       0.369   9.746  18.328  0.00  0.00    +0.000 A 
ATOM      3  C   UNL     1       1.540   8.953  18.484  0.00  0.00    +0.000 A 
ATOM      4  C   UNL     1       1.902   8.412  19.718  0.00  0.00    +0.000 A 
ATOM      5  C   UNL     1       1.057   8.724  20.803  0.00  0.00    +0.000 A 
ATOM      6  C   UNL     1      -0.102   9.544  20.650  0.00  0.00    +0.000 A 
ENDROOT
BRANCH   1   9
ATOM      7  C   UNL     1      -2.744  10.492  18.340  0.00  0.00    +0.000 C 
ATOM      8  O   UNL     1      -2.765   9.484  17.632  0.00  0.00    +0.000 OA
ATOM      9  N   UNL     1      -1.719  10.774  19.247  0.00  0.00    +0.000 N 
ATOM     10  H   UNL     1      -1.891  11.539  19.903  0.00  0.00    +0.000 HD
BRANCH   7  15
ATOM     11  C   UNL     1      -7.203  14.258  17.656  0.00  0.00    +0.000 C 
ATOM     12  C   UNL     1      -6.085  13.264  17.823  0.00  0.00    +0.000 A 
ATOM     13  C   UNL     1      -5.761  12.354  16.895  0.00  0.00    +0.000 A 
ATOM     14  C   UNL     1      -4.651  11.445  17.122  0.00  0.00    +0.000 A 
ATOM     15  C   UNL     1      -3.911  11.457  18.243  0.00  0.00    +0.000 A 
ATOM     16  C   UNL     1      -4.298  12.450  19.284  0.00  0.00    +0.000 A 
ATOM     17  O   UNL     1      -3.701  12.515  20.360  0.00  0.00    +0.000 OA
ATOM     18  N   UNL     1      -5.351  13.293  18.997  0.00  0.00    +0.000 N 
ATOM     19  H   UNL     1      -5.593  13.971  19.709  0.00  0.00    +0.000 HD
ENDBRANCH   7  15
ENDBRANCH   1   9
BRANCH   4  20
ATOM     20  O   UNL     1       2.696   7.263  19.750  0.00  0.00    +0.000 OA
BRANCH  20  21
ATOM     21  C   UNL     1       2.824   6.355  18.699  0.00  0.00    +0.000 A 
ATOM     22  C   UNL     1       3.786   6.594  17.711  0.00  0.00    +0.000 A 
ATOM     23  C   UNL     1       4.249   5.526  16.953  0.00  0.00    +0.000 A 
ATOM     24  N   UNL     1       3.814   4.259  17.076  0.00  0.00    +0.000 NA
ATOM     25  C   UNL     1       2.851   4.021  17.969  0.00  0.00    +0.000 A 
ATOM     26  C   UNL     1       2.375   2.718  18.011  0.00  0.00    +0.000 A 
ATOM     27  C   UNL     1       1.339   2.346  18.861  0.00  0.00    +0.000 A 
ATOM     28  C   UNL     1       0.822   3.292  19.745  0.00  0.00    +0.000 A 
ATOM     29  C   UNL     1       1.325   4.600  19.750  0.00  0.00    +0.000 A 
ATOM     30  C   UNL     1       2.317   5.019  18.831  0.00  0.00    +0.000 A 
ENDBRANCH  20  21
ENDBRANCH   4  20
TORSDOF 4
ENDMDL
MODEL 8
REMARK VINA RESULT:      -8.5      5.455      8.179
REMARK  Name = 
REMARK  5 active torsions:
REMARK  status: ('A' for Active; 'I' for Inactive)
REMARK    1  A    between atoms: C_1  and  C_2
REMARK    2  A    between atoms: C_5  and  C_6
REMARK    3  A    between atoms: N_8  and  C_9
REMARK    4  A    between atoms: C_12  and  O_13
REMARK    5  A    between atoms: O_13  and  C_14
REMARK                            x       y       z     vdW  Elec       q    Type
REMARK                         _______ _______ _______ _____ _____    ______ ____
ROOT
ATOM      1  C   UNL     1       1.452   8.128  19.939  0.00  0.00    +0.000 A 
ATOM      2  C   UNL     1       1.491   6.955  20.694  0.00  0.00    +0.000 A 
ATOM      3  C   UNL     1       2.193   5.794  20.264  0.00  0.00    +0.000 A 
ATOM      4  C   UNL     1       2.889   5.763  19.055  0.00  0.00    +0.000 A 
ATOM      5  C   UNL     1       2.828   6.936  18.274  0.00  0.00    +0.000 A 
ATOM      6  C   UNL     1       2.098   8.090  18.695  0.00  0.00    +0.000 A 
ENDROOT
BRANCH   1   9
ATOM      7  C   UNL     1       0.825   9.847  21.690  0.00  0.00    +0.000 C 
ATOM      8  O   UNL     1       1.507   9.367  22.595  0.00  0.00    +0.000 OA
ATOM      9  N   UNL     1       0.808   9.342  20.387  0.00  0.00    +0.000 N 
ATOM     10  H   UNL     1       0.346   9.920  19.681  0.00  0.00    +0.000 HD
BRANCH   7  15
ATOM     11  C   UNL     1      -2.680  14.400  22.927  0.00  0.00    +0.000 C 
ATOM     12  C   UNL     1      -1.775  13.229  22.648  0.00  0.00    +0.000 A 
ATOM     13  C   UNL     1      -1.918  12.031  23.230  0.00  0.00    +0.000 A 
ATOM     14  C   UNL     1      -1.017  10.944  22.888  0.00  0.00    +0.000 A 
ATOM     15  C   UNL     1      -0.016  11.072  22.001  0.00  0.00    +0.000 A 
ATOM     16  C   UNL     1       0.155  12.417  21.383  0.00  0.00    +0.000 A 
ATOM     17  O   UNL     1       1.066  12.642  20.584  0.00  0.00    +0.000 OA
ATOM     18  N   UNL     1      -0.743  13.399  21.740  0.00  0.00    +0.000 N 
ATOM     19  H   UNL     1      -0.622  14.304  21.301  0.00  0.00    +0.000 HD
ENDBRANCH   7  15
ENDBRANCH   1   9
BRANCH   4  20
ATOM     20  O   UNL     1       3.955   4.873  18.907  0.00  0.00    +0.000 OA
BRANCH  20  21
ATOM     21  C   UNL     1       5.214   5.214  18.413  0.00  0.00    +0.000 A 
ATOM     22  C   UNL     1       6.248   5.476  19.320  0.00  0.00    +0.000 A 
ATOM     23  C   UNL     1       7.564   5.353  18.891  0.00  0.00    +0.000 A 
ATOM     24  N   UNL     1       7.929   5.023  17.639  0.00  0.00    +0.000 NA
ATOM     25  C   UNL     1       6.959   4.829  16.743  0.00  0.00    +0.000 A 
ATOM     26  C   UNL     1       7.378   4.568  15.446  0.00  0.00    +0.000 A 
ATOM     27  C   UNL     1       6.470   4.396  14.407  0.00  0.00    +0.000 A 
ATOM     28  C   UNL     1       5.106   4.412  14.695  0.00  0.00    +0.000 A 
ATOM     29  C   UNL     1       4.666   4.626  16.008  0.00  0.00    +0.000 A 
ATOM     30  C   UNL     1       5.573   4.891  17.063  0.00  0.00    +0.000 A 
ENDBRANCH  20  21
ENDBRANCH   4  20
TORSDOF 4
ENDMDL
MODEL 9
REMARK VINA RESULT:      -8.5      6.152      8.331
REMARK  Name = 
REMARK  5 active torsions:
REMARK  status: ('A' for Active; 'I' for Inactive)
REMARK    1  A    between atoms: C_1  and  C_2
REMARK    2  A    between atoms: C_5  and  C_6
REMARK    3  A    between atoms: N_8  and  C_9
REMARK    4  A    between atoms: C_12  and  O_13
REMARK    5  A    between atoms: O_13  and  C_14
REMARK                            x       y       z     vdW  Elec       q    Type
REMARK                         _______ _______ _______ _____ _____    ______ ____
ROOT
ATOM      1  C   UNL     1       1.045   9.576  19.894  0.00  0.00    +0.000 A 
ATOM      2  C   UNL     1       1.688   8.458  20.427  0.00  0.00    +0.000 A 
ATOM      3  C   UNL     1       2.316   7.477  19.610  0.00  0.00    +0.000 A 
ATOM      4  C   UNL     1       2.325   7.578  18.218  0.00  0.00    +0.000 A 
ATOM      5  C   UNL     1       1.650   8.690  17.673  0.00  0.00    +0.000 A 
ATOM      6  C   UNL     1       0.996   9.658  18.495  0.00  0.00    +0.000 A 
ENDROOT
BRANCH   1   9
ATOM      7  C   UNL     1      -0.380  10.438  21.801  0.00  0.00    +0.000 C 
ATOM      8  O   UNL     1      -0.632   9.335  22.286  0.00  0.00    +0.000 OA
ATOM      9  N   UNL     1       0.464  10.623  20.704  0.00  0.00    +0.000 N 
ATOM     10  H   UNL     1       0.740  11.586  20.499  0.00  0.00    +0.000 HD
BRANCH   7  15
ATOM     11  C   UNL     1      -3.050  15.059  24.263  0.00  0.00    +0.000 C 
ATOM     12  C   UNL     1      -2.367  13.857  23.667  0.00  0.00    +0.000 A 
ATOM     13  C   UNL     1      -2.857  12.613  23.750  0.00  0.00    +0.000 A 
ATOM     14  C   UNL     1      -2.150  11.509  23.126  0.00  0.00    +0.000 A 
ATOM     15  C   UNL     1      -0.996  11.662  22.455  0.00  0.00    +0.000 A 
ATOM     16  C   UNL     1      -0.442  13.044  22.395  0.00  0.00    +0.000 A 
ATOM     17  O   UNL     1       0.628  13.279  21.831  0.00  0.00    +0.000 OA
ATOM     18  N   UNL     1      -1.171  14.047  22.995  0.00  0.00    +0.000 N 
ATOM     19  H   UNL     1      -0.788  14.983  22.934  0.00  0.00    +0.000 HD
ENDBRANCH   7  15
ENDBRANCH   1   9
BRANCH   4  20
ATOM     20  O   UNL     1       3.342   6.948  17.498  0.00  0.00    +0.000 OA
BRANCH  20  21
ATOM     21  C   UNL     1       3.976   5.766  17.884  0.00  0.00    +0.000 A 
ATOM     22  C   UNL     1       5.305   5.823  18.320  0.00  0.00    +0.000 A 
ATOM     23  C   UNL     1       5.791   4.801  19.126  0.00  0.00    +0.000 A 
ATOM     24  N   UNL     1       5.078   3.724  19.502  0.00  0.00    +0.000 NA
ATOM     25  C   UNL     1       3.828   3.619  19.045  0.00  0.00    +0.000 A 
ATOM     26  C   UNL     1       3.153   2.457  19.391  0.00  0.00    +0.000 A 
ATOM     27  C   UNL     1       1.863   2.201  18.940  0.00  0.00    +0.000 A 
ATOM     28  C   UNL     1       1.208   3.173  18.185  0.00  0.00    +0.000 A 
ATOM     29  C   UNL     1       1.857   4.373  17.867  0.00  0.00    +0.000 A 
ATOM     30  C   UNL     1       3.201   4.614  18.243  0.00  0.00    +0.000 A 
ENDBRANCH  20  21
ENDBRANCH   4  20
TORSDOF 4
ENDMDL
