MODEL 1
REMARK VINA RESULT:      -8.4      0.000      0.000
REMARK  Name = 
REMARK  5 active torsions:
REMARK  status: ('A' for Active; 'I' for Inactive)
REMARK    1  A    between atoms: C_1  and  C_2
REMARK    2  A    between atoms: C_2  and  C_3
REMARK    3  A    between atoms: C_2  and  C_8
REMARK    4  A    between atoms: C_12  and  N_13
REMARK    5  A    between atoms: C_20  and  C_21
REMARK                            x       y       z     vdW  Elec       q    Type
REMARK                         _______ _______ _______ _____ _____    ______ ____
ROOT
ATOM      1  C   UNL     1       2.279   5.922  20.075  0.00  0.00    +0.000 A 
ATOM      2  C   UNL     1       1.167   5.181  20.556  0.00  0.00    +0.000 A 
ATOM      3  C   UNL     1       1.249   3.799  20.796  0.00  0.00    +0.000 A 
ATOM      4  C   UNL     1       2.423   3.119  20.504  0.00  0.00    +0.000 A 
ATOM      5  C   UNL     1       3.429   3.796  19.798  0.00  0.00    +0.000 A 
ATOM      6  C   UNL     1       3.435   5.202  19.758  0.00  0.00    +0.000 A 
ENDROOT
BRANCH   5   7
ATOM      7  N   UNL     1       4.060   3.121  18.670  0.00  0.00    +0.000 N 
ATOM      8  C   UNL     1       5.530   3.337  18.711  0.00  0.00    +0.000 C 
ATOM      9  C   UNL     1       5.707   4.523  17.812  0.00  0.00    +0.000 A 
ATOM     10  C   UNL     1       4.633   4.533  16.917  0.00  0.00    +0.000 A 
ATOM     11  C   UNL     1       4.378   5.584  16.057  0.00  0.00    +0.000 A 
ATOM     12  C   UNL     1       5.232   6.682  16.125  0.00  0.00    +0.000 A 
ATOM     13  C   UNL     1       6.306   6.700  17.036  0.00  0.00    +0.000 A 
ATOM     14  C   UNL     1       6.570   5.614  17.898  0.00  0.00    +0.000 A 
ATOM     15  C   UNL     1       3.638   3.541  17.385  0.00  0.00    +0.000 C 
ATOM     16  O   UNL     1       2.571   3.339  16.835  0.00  0.00    +0.000 OA
BRANCH  14  17
ATOM     17  C   UNL     1       7.663   5.729  18.932  0.00  0.00    +0.000 C 
ATOM     18  F   UNL     1       7.212   5.672  20.214  0.00  0.00    +0.000 F 
ATOM     19  F   UNL     1       8.588   4.737  18.823  0.00  0.00    +0.000 F 
ATOM     20  F   UNL     1       8.356   6.897  18.837  0.00  0.00    +0.000 F 
ENDBRANCH  14  17
ENDBRANCH   5   7
BRANCH   1  22
ATOM     21  C   UNL     1       2.260   7.713  18.341  0.00  0.00    +0.000 C 
ATOM     22  C   UNL     1       2.240   7.473  19.908  0.00  0.00    +0.000 C 
BRANCH  22  23
ATOM     23  C   UNL     1       1.109   8.284  20.772  0.00  0.00    +0.000 C 
ATOM     24  N   UNL     1       0.197   8.952  21.452  0.00  0.00    +0.000 NA
ATOM     25  C   UNL     1       0.066   9.929  20.548  0.00  0.00    +0.000 C 
ATOM     26  N   UNL     1      -0.594  11.075  20.271  0.00  0.00    +0.000 N 
ATOM     27  N   UNL     1       0.915   9.328  19.831  0.00  0.00    +0.000 NA
ATOM     28  H   UNL     1      -1.482  11.335  20.685  0.00  0.00    +0.000 HD
ATOM     29  H   UNL     1      -0.564  11.293  19.275  0.00  0.00    +0.000 HD
ENDBRANCH  22  23
ENDBRANCH   1  22
TORSDOF 4
ENDMDL
MODEL 2
REMARK VINA RESULT:      -8.2      0.753      1.075
REMARK  Name = 
REMARK  5 active torsions:
REMARK  status: ('A' for Active; 'I' for Inactive)
REMARK    1  A    between atoms: C_1  and  C_2
REMARK    2  A    between atoms: C_2  and  C_3
REMARK    3  A    between atoms: C_2  and  C_8
REMARK    4  A    between atoms: C_12  and  N_13
REMARK    5  A    between atoms: C_20  and  C_21
REMARK                            x       y       z     vdW  Elec       q    Type
REMARK                         _______ _______ _______ _____ _____    ______ ____
ROOT
ATOM      1  C   UNL     1       2.336   6.347  19.719  0.00  0.00    +0.000 A 
ATOM      2  C   UNL     1       1.134   5.778  20.217  0.00  0.00    +0.000 A 
ATOM      3  C   UNL     1       1.078   4.447  20.667  0.00  0.00    +0.000 A 
ATOM      4  C   UNL     1       2.204   3.642  20.572  0.00  0.00    +0.000 A 
ATOM      5  C   UNL     1       3.311   4.121  19.855  0.00  0.00    +0.000 A 
ATOM      6  C   UNL     1       3.443   5.500  19.605  0.00  0.00    +0.000 A 
ENDROOT
BRANCH   5   7
ATOM      7  N   UNL     1       3.952   3.233  18.893  0.00  0.00    +0.000 N 
ATOM      8  C   UNL     1       5.428   3.386  18.971  0.00  0.00    +0.000 C 
ATOM      9  C   UNL     1       5.706   4.389  17.892  0.00  0.00    +0.000 A 
ATOM     10  C   UNL     1       4.674   4.291  16.955  0.00  0.00    +0.000 A 
ATOM     11  C   UNL     1       4.512   5.187  15.916  0.00  0.00    +0.000 A 
ATOM     12  C   UNL     1       5.419   6.241  15.838  0.00  0.00    +0.000 A 
ATOM     13  C   UNL     1       6.454   6.369  16.786  0.00  0.00    +0.000 A 
ATOM     14  C   UNL     1       6.622   5.438  17.834  0.00  0.00    +0.000 A 
ATOM     15  C   UNL     1       3.608   3.442  17.534  0.00  0.00    +0.000 C 
ATOM     16  O   UNL     1       2.556   3.195  16.973  0.00  0.00    +0.000 OA
BRANCH  14  17
ATOM     17  C   UNL     1       7.674   5.682  18.888  0.00  0.00    +0.000 C 
ATOM     18  F   UNL     1       8.317   6.873  18.754  0.00  0.00    +0.000 F 
ATOM     19  F   UNL     1       7.158   5.681  20.147  0.00  0.00    +0.000 F 
ATOM     20  F   UNL     1       8.652   4.733  18.884  0.00  0.00    +0.000 F 
ENDBRANCH  14  17
ENDBRANCH   5   7
BRANCH   1  22
ATOM     21  C   UNL     1       2.858   7.836  17.789  0.00  0.00    +0.000 C 
ATOM     22  C   UNL     1       2.446   7.851  19.320  0.00  0.00    +0.000 C 
BRANCH  22  23
ATOM     23  C   UNL     1       1.198   8.825  19.747  0.00  0.00    +0.000 C 
ATOM     24  N   UNL     1       0.194   9.617  20.070  0.00  0.00    +0.000 NA
ATOM     25  C   UNL     1       0.124  10.214  18.875  0.00  0.00    +0.000 C 
ATOM     26  N   UNL     1      -0.546  11.145  18.161  0.00  0.00    +0.000 N 
ATOM     27  N   UNL     1       1.066   9.467  18.488  0.00  0.00    +0.000 NA
ATOM     28  H   UNL     1      -1.482  11.465  18.380  0.00  0.00    +0.000 HD
ATOM     29  H   UNL     1      -0.418  11.011  17.158  0.00  0.00    +0.000 HD
ENDBRANCH  22  23
ENDBRANCH   1  22
TORSDOF 4
ENDMDL
MODEL 3
REMARK VINA RESULT:      -8.2      3.433      4.905
REMARK  Name = 
REMARK  5 active torsions:
REMARK  status: ('A' for Active; 'I' for Inactive)
REMARK    1  A    between atoms: C_1  and  C_2
REMARK    2  A    between atoms: C_2  and  C_3
REMARK    3  A    between atoms: C_2  and  C_8
REMARK    4  A    between atoms: C_12  and  N_13
REMARK    5  A    between atoms: C_20  and  C_21
REMARK                            x       y       z     vdW  Elec       q    Type
REMARK                         _______ _______ _______ _____ _____    ______ ____
ROOT
ATOM      1  C   UNL     1       1.271   9.357  19.121  0.00  0.00    +0.000 A 
ATOM      2  C   UNL     1       0.896   8.756  20.352  0.00  0.00    +0.000 A 
ATOM      3  C   UNL     1       1.491   7.566  20.805  0.00  0.00    +0.000 A 
ATOM      4  C   UNL     1       2.429   6.922  20.010  0.00  0.00    +0.000 A 
ATOM      5  C   UNL     1       2.614   7.373  18.695  0.00  0.00    +0.000 A 
ATOM      6  C   UNL     1       2.192   8.665  18.330  0.00  0.00    +0.000 A 
ENDROOT
BRANCH   5   7
ATOM      7  N   UNL     1       2.658   6.387  17.622  0.00  0.00    +0.000 N 
ATOM      8  C   UNL     1       1.712   5.280  17.915  0.00  0.00    +0.000 C 
ATOM      9  C   UNL     1       2.596   4.267  18.579  0.00  0.00    +0.000 A 
ATOM     10  C   UNL     1       3.899   4.490  18.124  0.00  0.00    +0.000 A 
ATOM     11  C   UNL     1       5.003   3.854  18.660  0.00  0.00    +0.000 A 
ATOM     12  C   UNL     1       4.779   2.976  19.718  0.00  0.00    +0.000 A 
ATOM     13  C   UNL     1       3.476   2.755  20.205  0.00  0.00    +0.000 A 
ATOM     14  C   UNL     1       2.352   3.395  19.639  0.00  0.00    +0.000 A 
ATOM     15  C   UNL     1       3.916   5.777  17.395  0.00  0.00    +0.000 C 
ATOM     16  O   UNL     1       4.918   6.268  16.906  0.00  0.00    +0.000 OA
BRANCH  14  17
ATOM     17  C   UNL     1       0.992   3.213  20.268  0.00  0.00    +0.000 C 
ATOM     18  F   UNL     1       0.377   4.382  20.590  0.00  0.00    +0.000 F 
ATOM     19  F   UNL     1       0.127   2.553  19.452  0.00  0.00    +0.000 F 
ATOM     20  F   UNL     1       1.040   2.492  21.422  0.00  0.00    +0.000 F 
ENDBRANCH  14  17
ENDBRANCH   5   7
BRANCH   1  22
ATOM     21  C   UNL     1      -0.856  10.643  18.933  0.00  0.00    +0.000 C 
ATOM     22  C   UNL     1       0.702  10.733  18.656  0.00  0.00    +0.000 C 
BRANCH  22  23
ATOM     23  C   UNL     1       1.477  12.075  19.189  0.00  0.00    +0.000 C 
ATOM     24  N   UNL     1       2.112  13.156  19.600  0.00  0.00    +0.000 NA
ATOM     25  C   UNL     1       2.860  13.280  18.498  0.00  0.00    +0.000 C 
ATOM     26  N   UNL     1       3.811  14.037  17.908  0.00  0.00    +0.000 N 
ATOM     27  N   UNL     1       2.273  12.265  18.030  0.00  0.00    +0.000 NA
ATOM     28  H   UNL     1       4.003  15.002  18.151  0.00  0.00    +0.000 HD
ATOM     29  H   UNL     1       3.832  13.891  16.898  0.00  0.00    +0.000 HD
ENDBRANCH  22  23
ENDBRANCH   1  22
TORSDOF 4
ENDMDL
MODEL 4
REMARK VINA RESULT:      -8.1      3.363      4.795
REMARK  Name = 
REMARK  5 active torsions:
REMARK  status: ('A' for Active; 'I' for Inactive)
REMARK    1  A    between atoms: C_1  and  C_2
REMARK    2  A    between atoms: C_2  and  C_3
REMARK    3  A    between atoms: C_2  and  C_8
REMARK    4  A    between atoms: C_12  and  N_13
REMARK    5  A    between atoms: C_20  and  C_21
REMARK                            x       y       z     vdW  Elec       q    Type
REMARK                         _______ _______ _______ _____ _____    ______ ____
ROOT
ATOM      1  C   UNL     1       1.040   9.232  19.330  0.00  0.00    +0.000 A 
ATOM      2  C   UNL     1       0.810   8.562  20.561  0.00  0.00    +0.000 A 
ATOM      3  C   UNL     1       1.556   7.433  20.939  0.00  0.00    +0.000 A 
ATOM      4  C   UNL     1       2.506   6.915  20.069  0.00  0.00    +0.000 A 
ATOM      5  C   UNL     1       2.559   7.418  18.760  0.00  0.00    +0.000 A 
ATOM      6  C   UNL     1       1.979   8.666  18.463  0.00  0.00    +0.000 A 
ENDROOT
BRANCH   5   7
ATOM      7  N   UNL     1       2.640   6.471  17.655  0.00  0.00    +0.000 N 
ATOM      8  C   UNL     1       1.716   5.332  17.897  0.00  0.00    +0.000 C 
ATOM      9  C   UNL     1       2.614   4.318  18.538  0.00  0.00    +0.000 A 
ATOM     10  C   UNL     1       3.918   4.586  18.111  0.00  0.00    +0.000 A 
ATOM     11  C   UNL     1       5.029   3.957  18.641  0.00  0.00    +0.000 A 
ATOM     12  C   UNL     1       4.811   3.039  19.665  0.00  0.00    +0.000 A 
ATOM     13  C   UNL     1       3.506   2.772  20.125  0.00  0.00    +0.000 A 
ATOM     14  C   UNL     1       2.375   3.405  19.565  0.00  0.00    +0.000 A 
ATOM     15  C   UNL     1       3.915   5.898  17.426  0.00  0.00    +0.000 C 
ATOM     16  O   UNL     1       4.912   6.428  16.969  0.00  0.00    +0.000 OA
BRANCH  14  17
ATOM     17  C   UNL     1       1.012   3.171  20.167  0.00  0.00    +0.000 C 
ATOM     18  F   UNL     1       0.152   2.520  19.339  0.00  0.00    +0.000 F 
ATOM     19  F   UNL     1       1.068   2.422  21.302  0.00  0.00    +0.000 F 
ATOM     20  F   UNL     1       0.384   4.328  20.514  0.00  0.00    +0.000 F 
ENDBRANCH  14  17
ENDBRANCH   5   7
BRANCH   1  22
ATOM     21  C   UNL     1       1.455  11.575  18.586  0.00  0.00    +0.000 C 
ATOM     22  C   UNL     1       0.299  10.550  18.945  0.00  0.00    +0.000 C 
BRANCH  22  23
ATOM     23  C   UNL     1      -0.939  10.421  17.879  0.00  0.00    +0.000 C 
ATOM     24  N   UNL     1      -1.946  10.333  17.031  0.00  0.00    +0.000 NA
ATOM     25  C   UNL     1      -2.656  11.320  17.588  0.00  0.00    +0.000 C 
ATOM     26  N   UNL     1      -3.806  12.023  17.489  0.00  0.00    +0.000 N 
ATOM     27  N   UNL     1      -1.716  11.479  18.416  0.00  0.00    +0.000 NA
ATOM     28  H   UNL     1      -4.354  12.102  16.641  0.00  0.00    +0.000 HD
ATOM     29  H   UNL     1      -3.744  12.914  17.982  0.00  0.00    +0.000 HD
ENDBRANCH  22  23
ENDBRANCH   1  22
TORSDOF 4
ENDMDL
MODEL 5
REMARK VINA RESULT:      -8.1      2.210      3.871
REMARK  Name = 
REMARK  5 active torsions:
REMARK  status: ('A' for Active; 'I' for Inactive)
REMARK    1  A    between atoms: C_1  and  C_2
REMARK    2  A    between atoms: C_2  and  C_3
REMARK    3  A    between atoms: C_2  and  C_8
REMARK    4  A    between atoms: C_12  and  N_13
REMARK    5  A    between atoms: C_20  and  C_21
REMARK                            x       y       z     vdW  Elec       q    Type
REMARK                         _______ _______ _______ _____ _____    ______ ____
ROOT
ATOM      1  C   UNL     1       1.423   8.682  19.696  0.00  0.00    +0.000 A 
ATOM      2  C   UNL     1       2.064   9.092  18.497  0.00  0.00    +0.000 A 
ATOM      3  C   UNL     1       2.757   8.181  17.681  0.00  0.00    +0.000 A 
ATOM      4  C   UNL     1       2.875   6.856  18.077  0.00  0.00    +0.000 A 
ATOM      5  C   UNL     1       2.463   6.506  19.372  0.00  0.00    +0.000 A 
ATOM      6  C   UNL     1       1.589   7.349  20.083  0.00  0.00    +0.000 A 
ENDROOT
BRANCH   5   7
ATOM      7  N   UNL     1       3.345   5.671  20.178  0.00  0.00    +0.000 N 
ATOM      8  C   UNL     1       4.572   5.341  19.408  0.00  0.00    +0.000 C 
ATOM      9  C   UNL     1       4.229   4.011  18.808  0.00  0.00    +0.000 A 
ATOM     10  C   UNL     1       3.275   3.413  19.636  0.00  0.00    +0.000 A 
ATOM     11  C   UNL     1       2.602   2.255  19.297  0.00  0.00    +0.000 A 
ATOM     12  C   UNL     1       2.889   1.694  18.055  0.00  0.00    +0.000 A 
ATOM     13  C   UNL     1       3.832   2.293  17.197  0.00  0.00    +0.000 A 
ATOM     14  C   UNL     1       4.528   3.466  17.560  0.00  0.00    +0.000 A 
ATOM     15  C   UNL     1       2.804   4.432  20.602  0.00  0.00    +0.000 C 
ATOM     16  O   UNL     1       1.942   4.228  21.438  0.00  0.00    +0.000 OA
BRANCH  14  17
ATOM     17  C   UNL     1       5.443   4.132  16.561  0.00  0.00    +0.000 C 
ATOM     18  F   UNL     1       5.819   3.319  15.538  0.00  0.00    +0.000 F 
ATOM     19  F   UNL     1       4.871   5.219  15.977  0.00  0.00    +0.000 F 
ATOM     20  F   UNL     1       6.601   4.576  17.124  0.00  0.00    +0.000 F 
ENDBRANCH  14  17
ENDBRANCH   5   7
BRANCH   1  22
ATOM     21  C   UNL     1       1.057   9.434  22.044  0.00  0.00    +0.000 C 
ATOM     22  C   UNL     1       0.558   9.654  20.555  0.00  0.00    +0.000 C 
BRANCH  22  23
ATOM     23  C   UNL     1       0.438  11.202  20.031  0.00  0.00    +0.000 C 
ATOM     24  N   UNL     1       0.328  12.442  19.594  0.00  0.00    +0.000 NA
ATOM     25  C   UNL     1      -0.544  12.149  18.623  0.00  0.00    +0.000 C 
ATOM     26  N   UNL     1      -1.279  12.682  17.623  0.00  0.00    +0.000 N 
ATOM     27  N   UNL     1      -0.509  10.946  19.006  0.00  0.00    +0.000 NA
ATOM     28  H   UNL     1      -1.541  13.659  17.568  0.00  0.00    +0.000 HD
ATOM     29  H   UNL     1      -2.051  12.069  17.358  0.00  0.00    +0.000 HD
ENDBRANCH  22  23
ENDBRANCH   1  22
TORSDOF 4
ENDMDL
MODEL 6
REMARK VINA RESULT:      -8.0      5.150      8.343
REMARK  Name = 
REMARK  5 active torsions:
REMARK  status: ('A' for Active; 'I' for Inactive)
REMARK    1  A    between atoms: C_1  and  C_2
REMARK    2  A    between atoms: C_2  and  C_3
REMARK    3  A    between atoms: C_2  and  C_8
REMARK    4  A    between atoms: C_12  and  N_13
REMARK    5  A    between atoms: C_20  and  C_21
REMARK                            x       y       z     vdW  Elec       q    Type
REMARK                         _______ _______ _______ _____ _____    ______ ____
ROOT
ATOM      1  C   UNL     1      -4.211  11.643  18.070  0.00  0.00    +0.000 A 
ATOM      2  C   UNL     1      -3.966  11.215  16.738  0.00  0.00    +0.000 A 
ATOM      3  C   UNL     1      -2.769  10.574  16.377  0.00  0.00    +0.000 A 
ATOM      4  C   UNL     1      -1.769  10.401  17.324  0.00  0.00    +0.000 A 
ATOM      5  C   UNL     1      -1.906  11.041  18.565  0.00  0.00    +0.000 A 
ATOM      6  C   UNL     1      -3.172  11.485  18.991  0.00  0.00    +0.000 A 
ENDROOT
BRANCH   5   7
ATOM      7  N   UNL     1      -0.760  11.765  19.103  0.00  0.00    +0.000 N 
ATOM      8  C   UNL     1       0.500  11.166  18.592  0.00  0.00    +0.000 C 
ATOM      9  C   UNL     1       0.872  10.212  19.688  0.00  0.00    +0.000 A 
ATOM     10  C   UNL     1       0.299  10.691  20.869  0.00  0.00    +0.000 A 
ATOM     11  C   UNL     1       0.289   9.970  22.048  0.00  0.00    +0.000 A 
ATOM     12  C   UNL     1       0.859   8.700  22.021  0.00  0.00    +0.000 A 
ATOM     13  C   UNL     1       1.422   8.191  20.834  0.00  0.00    +0.000 A 
ATOM     14  C   UNL     1       1.445   8.942  19.639  0.00  0.00    +0.000 A 
ATOM     15  C   UNL     1      -0.644  11.776  20.515  0.00  0.00    +0.000 C 
ATOM     16  O   UNL     1      -1.328  12.374  21.326  0.00  0.00    +0.000 OA
BRANCH  14  17
ATOM     17  C   UNL     1       1.956   8.310  18.368  0.00  0.00    +0.000 C 
ATOM     18  F   UNL     1       2.240   6.986  18.491  0.00  0.00    +0.000 F 
ATOM     19  F   UNL     1       1.063   8.402  17.346  0.00  0.00    +0.000 F 
ATOM     20  F   UNL     1       3.101   8.892  17.915  0.00  0.00    +0.000 F 
ENDBRANCH  14  17
ENDBRANCH   5   7
BRANCH   1  22
ATOM     21  C   UNL     1      -6.354  12.533  17.160  0.00  0.00    +0.000 C 
ATOM     22  C   UNL     1      -5.576  12.255  18.513  0.00  0.00    +0.000 C 
BRANCH  22  23
ATOM     23  C   UNL     1      -6.393  11.469  19.695  0.00  0.00    +0.000 C 
ATOM     24  N   UNL     1      -7.054  10.818  20.634  0.00  0.00    +0.000 NA
ATOM     25  C   UNL     1      -7.270   9.727  19.892  0.00  0.00    +0.000 C 
ATOM     26  N   UNL     1      -7.831   8.497  19.903  0.00  0.00    +0.000 N 
ATOM     27  N   UNL     1      -6.624  10.278  18.958  0.00  0.00    +0.000 NA
ATOM     28  H   UNL     1      -8.029   7.969  20.744  0.00  0.00    +0.000 HD
ATOM     29  H   UNL     1      -7.446   7.904  19.167  0.00  0.00    +0.000 HD
ENDBRANCH  22  23
ENDBRANCH   1  22
TORSDOF 4
ENDMDL
MODEL 7
REMARK VINA RESULT:      -7.9      2.201      3.830
REMARK  Name = 
REMARK  5 active torsions:
REMARK  status: ('A' for Active; 'I' for Inactive)
REMARK    1  A    between atoms: C_1  and  C_2
REMARK    2  A    between atoms: C_2  and  C_3
REMARK    3  A    between atoms: C_2  and  C_8
REMARK    4  A    between atoms: C_12  and  N_13
REMARK    5  A    between atoms: C_20  and  C_21
REMARK                            x       y       z     vdW  Elec       q    Type
REMARK                         _______ _______ _______ _____ _____    ______ ____
ROOT
ATOM      1  C   UNL     1       1.636   9.013  19.178  0.00  0.00    +0.000 A 
ATOM      2  C   UNL     1       2.234   9.115  17.894  0.00  0.00    +0.000 A 
ATOM      3  C   UNL     1       2.745   7.989  17.226  0.00  0.00    +0.000 A 
ATOM      4  C   UNL     1       2.723   6.750  17.851  0.00  0.00    +0.000 A 
ATOM      5  C   UNL     1       2.367   6.692  19.207  0.00  0.00    +0.000 A 
ATOM      6  C   UNL     1       1.661   7.758  19.794  0.00  0.00    +0.000 A 
ENDROOT
BRANCH   5   7
ATOM      7  N   UNL     1       3.194   5.898  20.108  0.00  0.00    +0.000 N 
ATOM      8  C   UNL     1       4.452   5.503  19.423  0.00  0.00    +0.000 C 
ATOM      9  C   UNL     1       4.116   4.142  18.892  0.00  0.00    +0.000 A 
ATOM     10  C   UNL     1       3.112   3.612  19.707  0.00  0.00    +0.000 A 
ATOM     11  C   UNL     1       2.437   2.443  19.408  0.00  0.00    +0.000 A 
ATOM     12  C   UNL     1       2.776   1.800  18.220  0.00  0.00    +0.000 A 
ATOM     13  C   UNL     1       3.771   2.330  17.375  0.00  0.00    +0.000 A 
ATOM     14  C   UNL     1       4.468   3.515  17.698  0.00  0.00    +0.000 A 
ATOM     15  C   UNL     1       2.612   4.696  20.582  0.00  0.00    +0.000 C 
ATOM     16  O   UNL     1       1.706   4.558  21.384  0.00  0.00    +0.000 OA
BRANCH  14  17
ATOM     17  C   UNL     1       5.442   4.102  16.706  0.00  0.00    +0.000 C 
ATOM     18  F   UNL     1       5.791   3.246  15.709  0.00  0.00    +0.000 F 
ATOM     19  F   UNL     1       4.949   5.208  16.087  0.00  0.00    +0.000 F 
ATOM     20  F   UNL     1       6.612   4.489  17.286  0.00  0.00    +0.000 F 
ENDBRANCH  14  17
ENDBRANCH   5   7
BRANCH   1  22
ATOM     21  C   UNL     1      -0.214  10.663  18.919  0.00  0.00    +0.000 C 
ATOM     22  C   UNL     1       0.964  10.230  19.887  0.00  0.00    +0.000 C 
BRANCH  22  23
ATOM     23  C   UNL     1       0.598  10.055  21.474  0.00  0.00    +0.000 C 
ATOM     24  N   UNL     1       0.286   9.927  22.750  0.00  0.00    +0.000 NA
ATOM     25  C   UNL     1      -0.788  10.721  22.690  0.00  0.00    +0.000 C 
ATOM     26  N   UNL     1      -1.799  11.241  23.419  0.00  0.00    +0.000 N 
ATOM     27  N   UNL     1      -0.565  10.867  21.455  0.00  0.00    +0.000 NA
ATOM     28  H   UNL     1      -2.137  10.845  24.288  0.00  0.00    +0.000 HD
ATOM     29  H   UNL     1      -2.567  11.556  22.825  0.00  0.00    +0.000 HD
ENDBRANCH  22  23
ENDBRANCH   1  22
TORSDOF 4
ENDMDL
MODEL 8
REMARK VINA RESULT:      -7.9      2.295      3.859
REMARK  Name = 
REMARK  5 active torsions:
REMARK  status: ('A' for Active; 'I' for Inactive)
REMARK    1  A    between atoms: C_1  and  C_2
REMARK    2  A    between atoms: C_2  and  C_3
REMARK    3  A    between atoms: C_2  and  C_8
REMARK    4  A    between atoms: C_12  and  N_13
REMARK    5  A    between atoms: C_20  and  C_21
REMARK                            x       y       z     vdW  Elec       q    Type
REMARK                         _______ _______ _______ _____ _____    ______ ____
ROOT
ATOM      1  C   UNL     1       1.222   8.655  20.013  0.00  0.00    +0.000 A 
ATOM      2  C   UNL     1       1.740   9.154  18.789  0.00  0.00    +0.000 A 
ATOM      3  C   UNL     1       2.414   8.324  17.878  0.00  0.00    +0.000 A 
ATOM      4  C   UNL     1       2.637   6.992  18.198  0.00  0.00    +0.000 A 
ATOM      5  C   UNL     1       2.352   6.561  19.503  0.00  0.00    +0.000 A 
ATOM      6  C   UNL     1       1.493   7.318  20.321  0.00  0.00    +0.000 A 
ENDROOT
BRANCH   5   7
ATOM      7  N   UNL     1       3.342   5.745  20.196  0.00  0.00    +0.000 N 
ATOM      8  C   UNL     1       4.522   5.530  19.319  0.00  0.00    +0.000 C 
ATOM      9  C   UNL     1       4.212   4.210  18.679  0.00  0.00    +0.000 A 
ATOM     10  C   UNL     1       3.362   3.516  19.544  0.00  0.00    +0.000 A 
ATOM     11  C   UNL     1       2.733   2.335  19.197  0.00  0.00    +0.000 A 
ATOM     12  C   UNL     1       2.955   1.852  17.910  0.00  0.00    +0.000 A 
ATOM     13  C   UNL     1       3.791   2.549  17.015  0.00  0.00    +0.000 A 
ATOM     14  C   UNL     1       4.444   3.745  17.385  0.00  0.00    +0.000 A 
ATOM     15  C   UNL     1       2.910   4.456  20.595  0.00  0.00    +0.000 C 
ATOM     16  O   UNL     1       2.129   4.160  21.481  0.00  0.00    +0.000 OA
BRANCH  14  17
ATOM     17  C   UNL     1       5.237   4.513  16.356  0.00  0.00    +0.000 C 
ATOM     18  F   UNL     1       6.497   4.828  16.760  0.00  0.00    +0.000 F 
ATOM     19  F   UNL     1       5.385   3.823  15.193  0.00  0.00    +0.000 F 
ATOM     20  F   UNL     1       4.652   5.695  16.017  0.00  0.00    +0.000 F 
ENDBRANCH  14  17
ENDBRANCH   5   7
BRANCH   1  22
ATOM     21  C   UNL     1       1.045   9.329  22.406  0.00  0.00    +0.000 C 
ATOM     22  C   UNL     1       0.375   9.535  20.984  0.00  0.00    +0.000 C 
BRANCH  22  23
ATOM     23  C   UNL     1       0.076  11.077  20.518  0.00  0.00    +0.000 C 
ATOM     24  N   UNL     1      -0.150  12.325  20.156  0.00  0.00    +0.000 NA
ATOM     25  C   UNL     1       0.772  12.853  20.969  0.00  0.00    +0.000 C 
ATOM     26  N   UNL     1       1.340  14.015  21.362  0.00  0.00    +0.000 N 
ATOM     27  N   UNL     1       1.060  11.682  21.343  0.00  0.00    +0.000 NA
ATOM     28  H   UNL     1       1.330  14.867  20.814  0.00  0.00    +0.000 HD
ATOM     29  H   UNL     1       2.248  13.858  21.800  0.00  0.00    +0.000 HD
ENDBRANCH  22  23
ENDBRANCH   1  22
TORSDOF 4
ENDMDL
MODEL 9
REMARK VINA RESULT:      -7.9      3.367      4.885
REMARK  Name = 
REMARK  5 active torsions:
REMARK  status: ('A' for Active; 'I' for Inactive)
REMARK    1  A    between atoms: C_1  and  C_2
REMARK    2  A    between atoms: C_2  and  C_3
REMARK    3  A    between atoms: C_2  and  C_8
REMARK    4  A    between atoms: C_12  and  N_13
REMARK    5  A    between atoms: C_20  and  C_21
REMARK                            x       y       z     vdW  Elec       q    Type
REMARK                         _______ _______ _______ _____ _____    ______ ____
ROOT
ATOM      1  C   UNL     1       1.252   9.393  19.221  0.00  0.00    +0.000 A 
ATOM      2  C   UNL     1       0.811   8.759  20.413  0.00  0.00    +0.000 A 
ATOM      3  C   UNL     1       1.356   7.538  20.845  0.00  0.00    +0.000 A 
ATOM      4  C   UNL     1       2.308   6.896  20.066  0.00  0.00    +0.000 A 
ATOM      5  C   UNL     1       2.559   7.389  18.776  0.00  0.00    +0.000 A 
ATOM      6  C   UNL     1       2.187   8.705  18.442  0.00  0.00    +0.000 A 
ENDROOT
BRANCH   5   7
ATOM      7  N   UNL     1       2.621   6.441  17.670  0.00  0.00    +0.000 N 
ATOM      8  C   UNL     1       1.701   5.304  17.928  0.00  0.00    +0.000 C 
ATOM      9  C   UNL     1       2.609   4.289  18.555  0.00  0.00    +0.000 A 
ATOM     10  C   UNL     1       3.905   4.555  18.105  0.00  0.00    +0.000 A 
ATOM     11  C   UNL     1       5.024   3.926  18.616  0.00  0.00    +0.000 A 
ATOM     12  C   UNL     1       4.823   3.008  19.644  0.00  0.00    +0.000 A 
ATOM     13  C   UNL     1       3.526   2.742  20.126  0.00  0.00    +0.000 A 
ATOM     14  C   UNL     1       2.387   3.377  19.585  0.00  0.00    +0.000 A 
ATOM     15  C   UNL     1       3.892   5.867  17.419  0.00  0.00    +0.000 C 
ATOM     16  O   UNL     1       4.881   6.396  16.945  0.00  0.00    +0.000 OA
BRANCH  14  17
ATOM     17  C   UNL     1       1.034   3.143  20.211  0.00  0.00    +0.000 C 
ATOM     18  F   UNL     1       0.155   2.507  19.392  0.00  0.00    +0.000 F 
ATOM     19  F   UNL     1       1.107   2.382  21.336  0.00  0.00    +0.000 F 
ATOM     20  F   UNL     1       0.420   4.300  20.583  0.00  0.00    +0.000 F 
ENDBRANCH  14  17
ENDBRANCH   5   7
BRANCH   1  22
ATOM     21  C   UNL     1      -0.359  11.184  19.861  0.00  0.00    +0.000 C 
ATOM     22  C   UNL     1       0.740  10.800  18.784  0.00  0.00    +0.000 C 
BRANCH  22  23
ATOM     23  C   UNL     1       1.877  11.931  18.444  0.00  0.00    +0.000 C 
ATOM     24  N   UNL     1       2.787  12.851  18.189  0.00  0.00    +0.000 NA
ATOM     25  C   UNL     1       2.602  13.521  19.331  0.00  0.00    +0.000 C 
ATOM     26  N   UNL     1       3.022  14.587  20.048  0.00  0.00    +0.000 N 
ATOM     27  N   UNL     1       1.737  12.660  19.653  0.00  0.00    +0.000 NA
ATOM     28  H   UNL     1       3.921  15.037  19.925  0.00  0.00    +0.000 HD
ATOM     29  H   UNL     1       2.777  14.495  21.034  0.00  0.00    +0.000 HD
ENDBRANCH  22  23
ENDBRANCH   1  22
TORSDOF 4
ENDMDL
