MODEL 1
REMARK VINA RESULT:      -8.4      0.000      0.000
REMARK  Name = 
REMARK  5 active torsions:
REMARK  status: ('A' for Active; 'I' for Inactive)
REMARK    1  A    between atoms: C_2  and  C_16
REMARK    2  A    between atoms: N_3  and  C_4
REMARK    3  A    between atoms: C_10  and  N_11
REMARK    4  A    between atoms: C_20  and  S_21
REMARK    5  A    between atoms: S_21  and  N_24
REMARK                            x       y       z     vdW  Elec       q    Type
REMARK                         _______ _______ _______ _____ _____    ______ ____
ROOT
ATOM      1  O   UNL     1       2.733   8.351  17.381  0.00  0.00    +0.000 OA
ATOM      2  C   UNL     1       2.444   7.899  18.487  0.00  0.00    +0.000 C 
ATOM      3  N   UNL     1       2.876   6.685  18.988  0.00  0.00    +0.000 N 
ATOM      4  H   UNL     1       2.366   6.274  19.775  0.00  0.00    +0.000 HD
ENDROOT
BRANCH   3   5
ATOM      5  C   UNL     1       3.780   5.803  18.320  0.00  0.00    +0.000 A 
ATOM      6  C   UNL     1       4.910   6.318  17.658  0.00  0.00    +0.000 A 
ATOM      7  C   UNL     1       5.783   5.502  16.944  0.00  0.00    +0.000 A 
ATOM      8 CL   UNL     1       7.105   6.195  16.084  0.00  0.00    +0.000 Cl
ATOM      9  C   UNL     1       5.582   4.133  16.912  0.00  0.00    +0.000 A 
ATOM     10  C   UNL     1       4.497   3.582  17.597  0.00  0.00    +0.000 A 
ATOM     11  C   UNL     1       3.581   4.402  18.296  0.00  0.00    +0.000 A 
BRANCH  11  12
ATOM     12  N   UNL     1       2.449   3.790  18.905  0.00  0.00    +0.000 N 
ATOM     13  C   UNL     1       1.400   3.130  18.301  0.00  0.00    +0.000 A 
ATOM     14  N   UNL     1       0.501   2.773  19.188  0.00  0.00    +0.000 NA
ATOM     15  C   UNL     1       1.044   3.219  20.356  0.00  0.00    +0.000 A 
ATOM     16  N   UNL     1       2.233   3.811  20.251  0.00  0.00    +0.000 NA
ENDBRANCH  11  12
ENDBRANCH   3   5
BRANCH   2  17
ATOM     17  C   UNL     1       1.512   8.725  19.298  0.00  0.00    +0.000 A 
ATOM     18  C   UNL     1       1.521   8.467  20.681  0.00  0.00    +0.000 A 
ATOM     19  C   UNL     1       0.556   9.012  21.520  0.00  0.00    +0.000 A 
ATOM     20  C   UNL     1      -0.416   9.853  20.991  0.00  0.00    +0.000 A 
ATOM     21  C   UNL     1      -0.398  10.173  19.625  0.00  0.00    +0.000 A 
ATOM     22  C   UNL     1       0.565   9.609  18.764  0.00  0.00    +0.000 A 
BRANCH  21  23
ATOM     23  S   UNL     1      -1.472  11.487  19.050  0.00  0.00    +0.000 S 
ATOM     24  O   UNL     1      -2.078  12.079  20.224  0.00  0.00    +0.000 OA
ATOM     25  O   UNL     1      -0.690  12.287  18.137  0.00  0.00    +0.000 OA
BRANCH  23  26
ATOM     26  N   UNL     1      -2.691  10.736  18.166  0.00  0.00    +0.000 NA
ATOM     27  C   UNL     1      -2.378  10.017  16.924  0.00  0.00    +0.000 C 
ATOM     28  C   UNL     1      -2.984  10.895  15.847  0.00  0.00    +0.000 C 
ATOM     29  C   UNL     1      -4.240  11.458  16.495  0.00  0.00    +0.000 C 
ATOM     30  C   UNL     1      -3.988  11.416  18.000  0.00  0.00    +0.000 C 
ENDBRANCH  23  26
ENDBRANCH  21  23
ENDBRANCH   2  17
TORSDOF 5
ENDMDL
MODEL 2
REMARK VINA RESULT:      -8.3      2.149      2.718
REMARK  Name = 
REMARK  5 active torsions:
REMARK  status: ('A' for Active; 'I' for Inactive)
REMARK    1  A    between atoms: C_2  and  C_16
REMARK    2  A    between atoms: N_3  and  C_4
REMARK    3  A    between atoms: C_10  and  N_11
REMARK    4  A    between atoms: C_20  and  S_21
REMARK    5  A    between atoms: S_21  and  N_24
REMARK                            x       y       z     vdW  Elec       q    Type
REMARK                         _______ _______ _______ _____ _____    ______ ____
ROOT
ATOM      1  O   UNL     1       1.905   8.139  17.783  0.00  0.00    +0.000 OA
ATOM      2  C   UNL     1       2.016   7.823  18.966  0.00  0.00    +0.000 C 
ATOM      3  N   UNL     1       2.677   6.700  19.430  0.00  0.00    +0.000 N 
ATOM      4  H   UNL     1       2.476   6.374  20.380  0.00  0.00    +0.000 HD
ENDROOT
BRANCH   3   5
ATOM      5  C   UNL     1       3.389   5.774  18.606  0.00  0.00    +0.000 A 
ATOM      6  C   UNL     1       4.101   6.232  17.483  0.00  0.00    +0.000 A 
ATOM      7  C   UNL     1       4.758   5.359  16.619  0.00  0.00    +0.000 A 
ATOM      8 CL   UNL     1       5.547   5.966  15.214  0.00  0.00    +0.000 Cl
ATOM      9  C   UNL     1       4.765   4.000  16.881  0.00  0.00    +0.000 A 
ATOM     10  C   UNL     1       4.107   3.515  18.013  0.00  0.00    +0.000 A 
ATOM     11  C   UNL     1       3.405   4.386  18.880  0.00  0.00    +0.000 A 
BRANCH  11  12
ATOM     12  N   UNL     1       2.684   3.823  19.971  0.00  0.00    +0.000 N 
ATOM     13  C   UNL     1       3.150   3.010  20.981  0.00  0.00    +0.000 A 
ATOM     14  N   UNL     1       2.168   2.624  21.762  0.00  0.00    +0.000 NA
ATOM     15  C   UNL     1       1.089   3.244  21.206  0.00  0.00    +0.000 A 
ATOM     16  N   UNL     1       1.345   4.007  20.143  0.00  0.00    +0.000 NA
ENDBRANCH  11  12
ENDBRANCH   3   5
BRANCH   2  17
ATOM     17  C   UNL     1       1.328   8.710  19.940  0.00  0.00    +0.000 A 
ATOM     18  C   UNL     1       1.503   8.372  21.295  0.00  0.00    +0.000 A 
ATOM     19  C   UNL     1       0.749   8.984  22.290  0.00  0.00    +0.000 A 
ATOM     20  C   UNL     1      -0.169   9.970  21.946  0.00  0.00    +0.000 A 
ATOM     21  C   UNL     1      -0.306  10.364  20.606  0.00  0.00    +0.000 A 
ATOM     22  C   UNL     1       0.440   9.735  19.589  0.00  0.00    +0.000 A 
BRANCH  21  23
ATOM     23  S   UNL     1      -1.268  11.833  20.252  0.00  0.00    +0.000 S 
ATOM     24  O   UNL     1      -1.966  11.590  19.008  0.00  0.00    +0.000 OA
ATOM     25  O   UNL     1      -1.995  12.149  21.460  0.00  0.00    +0.000 OA
BRANCH  23  26
ATOM     26  N   UNL     1      -0.153  13.064  19.984  0.00  0.00    +0.000 NA
ATOM     27  C   UNL     1       0.264  13.410  18.619  0.00  0.00    +0.000 C 
ATOM     28  C   UNL     1       1.701  12.933  18.557  0.00  0.00    +0.000 C 
ATOM     29  C   UNL     1       2.234  13.190  19.959  0.00  0.00    +0.000 C 
ATOM     30  C   UNL     1       1.013  13.191  20.876  0.00  0.00    +0.000 C 
ENDBRANCH  23  26
ENDBRANCH  21  23
ENDBRANCH   2  17
TORSDOF 5
ENDMDL
MODEL 3
REMARK VINA RESULT:      -8.3      3.055      4.662
REMARK  Name = 
REMARK  5 active torsions:
REMARK  status: ('A' for Active; 'I' for Inactive)
REMARK    1  A    between atoms: C_2  and  C_16
REMARK    2  A    between atoms: N_3  and  C_4
REMARK    3  A    between atoms: C_10  and  N_11
REMARK    4  A    between atoms: C_20  and  S_21
REMARK    5  A    between atoms: S_21  and  N_24
REMARK                            x       y       z     vdW  Elec       q    Type
REMARK                         _______ _______ _______ _____ _____    ______ ____
ROOT
ATOM      1  O   UNL     1       3.996   7.312  17.164  0.00  0.00    +0.000 OA
ATOM      2  C   UNL     1       3.858   6.226  17.724  0.00  0.00    +0.000 C 
ATOM      3  N   UNL     1       4.392   5.030  17.281  0.00  0.00    +0.000 N 
ATOM      4  H   UNL     1       3.995   4.157  17.642  0.00  0.00    +0.000 HD
ENDROOT
BRANCH   3   5
ATOM      5  C   UNL     1       5.241   4.888  16.141  0.00  0.00    +0.000 A 
ATOM      6  C   UNL     1       4.727   4.372  14.938  0.00  0.00    +0.000 A 
ATOM      7  C   UNL     1       5.532   4.161  13.821  0.00  0.00    +0.000 A 
ATOM      8 CL   UNL     1       4.868   3.451  12.400  0.00  0.00    +0.000 Cl
ATOM      9  C   UNL     1       6.871   4.507  13.858  0.00  0.00    +0.000 A 
ATOM     10  C   UNL     1       7.405   5.066  15.021  0.00  0.00    +0.000 A 
ATOM     11  C   UNL     1       6.608   5.253  16.175  0.00  0.00    +0.000 A 
BRANCH  11  12
ATOM     12  N   UNL     1       7.229   5.748  17.357  0.00  0.00    +0.000 N 
ATOM     13  C   UNL     1       7.655   7.030  17.631  0.00  0.00    +0.000 A 
ATOM     14  N   UNL     1       8.254   7.083  18.798  0.00  0.00    +0.000 NA
ATOM     15  C   UNL     1       8.163   5.796  19.235  0.00  0.00    +0.000 A 
ATOM     16  N   UNL     1       7.526   4.953  18.422  0.00  0.00    +0.000 NA
ENDBRANCH  11  12
ENDBRANCH   3   5
BRANCH   2  17
ATOM     17  C   UNL     1       3.000   6.230  18.937  0.00  0.00    +0.000 A 
ATOM     18  C   UNL     1       2.758   4.968  19.511  0.00  0.00    +0.000 A 
ATOM     19  C   UNL     1       1.808   4.805  20.514  0.00  0.00    +0.000 A 
ATOM     20  C   UNL     1       1.109   5.913  20.982  0.00  0.00    +0.000 A 
ATOM     21  C   UNL     1       1.388   7.187  20.466  0.00  0.00    +0.000 A 
ATOM     22  C   UNL     1       2.335   7.358  19.436  0.00  0.00    +0.000 A 
BRANCH  21  23
ATOM     23  S   UNL     1       0.691   8.609  21.304  0.00  0.00    +0.000 S 
ATOM     24  O   UNL     1      -0.635   8.230  21.743  0.00  0.00    +0.000 OA
ATOM     25  O   UNL     1       1.685   9.055  22.252  0.00  0.00    +0.000 OA
BRANCH  23  26
ATOM     26  N   UNL     1       0.523   9.803  20.131  0.00  0.00    +0.000 NA
ATOM     27  C   UNL     1       1.183  11.105  20.291  0.00  0.00    +0.000 C 
ATOM     28  C   UNL     1       0.029  12.056  20.544  0.00  0.00    +0.000 C 
ATOM     29  C   UNL     1      -1.098  11.502  19.685  0.00  0.00    +0.000 C 
ATOM     30  C   UNL     1      -0.791  10.018  19.500  0.00  0.00    +0.000 C 
ENDBRANCH  23  26
ENDBRANCH  21  23
ENDBRANCH   2  17
TORSDOF 5
ENDMDL
MODEL 4
REMARK VINA RESULT:      -8.2      4.660      9.213
REMARK  Name = 
REMARK  5 active torsions:
REMARK  status: ('A' for Active; 'I' for Inactive)
REMARK    1  A    between atoms: C_2  and  C_16
REMARK    2  A    between atoms: N_3  and  C_4
REMARK    3  A    between atoms: C_10  and  N_11
REMARK    4  A    between atoms: C_20  and  S_21
REMARK    5  A    between atoms: S_21  and  N_24
REMARK                            x       y       z     vdW  Elec       q    Type
REMARK                         _______ _______ _______ _____ _____    ______ ____
ROOT
ATOM      1  O   UNL     1       1.048   9.780  22.499  0.00  0.00    +0.000 OA
ATOM      2  C   UNL     1       0.827  10.069  21.324  0.00  0.00    +0.000 C 
ATOM      3  N   UNL     1       0.053  11.133  20.900  0.00  0.00    +0.000 N 
ATOM      4  H   UNL     1      -0.302  11.124  19.939  0.00  0.00    +0.000 HD
ENDROOT
BRANCH   3   5
ATOM      5  C   UNL     1      -0.552  12.097  21.764  0.00  0.00    +0.000 A 
ATOM      6  C   UNL     1      -1.696  11.759  22.509  0.00  0.00    +0.000 A 
ATOM      7  C   UNL     1      -2.352  12.685  23.316  0.00  0.00    +0.000 A 
ATOM      8 CL   UNL     1      -3.795  12.240  24.144  0.00  0.00    +0.000 Cl
ATOM      9  C   UNL     1      -1.853  13.969  23.443  0.00  0.00    +0.000 A 
ATOM     10  C   UNL     1      -0.692  14.327  22.754  0.00  0.00    +0.000 A 
ATOM     11  C   UNL     1      -0.036  13.408  21.902  0.00  0.00    +0.000 A 
BRANCH  11  12
ATOM     12  N   UNL     1       1.095  13.857  21.161  0.00  0.00    +0.000 N 
ATOM     13  C   UNL     1       1.152  14.825  20.182  0.00  0.00    +0.000 A 
ATOM     14  N   UNL     1       2.359  14.902  19.672  0.00  0.00    +0.000 NA
ATOM     15  C   UNL     1       3.042  13.963  20.384  0.00  0.00    +0.000 A 
ATOM     16  N   UNL     1       2.339  13.323  21.319  0.00  0.00    +0.000 NA
ENDBRANCH  11  12
ENDBRANCH   3   5
BRANCH   2  17
ATOM     17  C   UNL     1       1.408   9.149  20.312  0.00  0.00    +0.000 A 
ATOM     18  C   UNL     1       1.423   9.634  18.991  0.00  0.00    +0.000 A 
ATOM     19  C   UNL     1       1.740   8.802  17.924  0.00  0.00    +0.000 A 
ATOM     20  C   UNL     1       2.081   7.475  18.167  0.00  0.00    +0.000 A 
ATOM     21  C   UNL     1       2.134   6.996  19.484  0.00  0.00    +0.000 A 
ATOM     22  C   UNL     1       1.795   7.828  20.570  0.00  0.00    +0.000 A 
BRANCH  21  23
ATOM     23  S   UNL     1       2.866   5.385  19.767  0.00  0.00    +0.000 S 
ATOM     24  O   UNL     1       4.286   5.518  19.523  0.00  0.00    +0.000 OA
ATOM     25  O   UNL     1       2.374   4.929  21.046  0.00  0.00    +0.000 OA
BRANCH  23  26
ATOM     26  N   UNL     1       2.233   4.373  18.580  0.00  0.00    +0.000 NA
ATOM     27  C   UNL     1       1.107   3.480  18.883  0.00  0.00    +0.000 C 
ATOM     28  C   UNL     1       1.734   2.101  18.855  0.00  0.00    +0.000 C 
ATOM     29  C   UNL     1       2.786   2.198  17.760  0.00  0.00    +0.000 C 
ATOM     30  C   UNL     1       3.148   3.677  17.659  0.00  0.00    +0.000 C 
ENDBRANCH  23  26
ENDBRANCH  21  23
ENDBRANCH   2  17
TORSDOF 5
ENDMDL
MODEL 5
REMARK VINA RESULT:      -8.2      1.804      2.200
REMARK  Name = 
REMARK  5 active torsions:
REMARK  status: ('A' for Active; 'I' for Inactive)
REMARK    1  A    between atoms: C_2  and  C_16
REMARK    2  A    between atoms: N_3  and  C_4
REMARK    3  A    between atoms: C_10  and  N_11
REMARK    4  A    between atoms: C_20  and  S_21
REMARK    5  A    between atoms: S_21  and  N_24
REMARK                            x       y       z     vdW  Elec       q    Type
REMARK                         _______ _______ _______ _____ _____    ______ ____
ROOT
ATOM      1  O   UNL     1       1.770   7.756  17.688  0.00  0.00    +0.000 OA
ATOM      2  C   UNL     1       2.121   7.609  18.857  0.00  0.00    +0.000 C 
ATOM      3  N   UNL     1       2.936   6.593  19.322  0.00  0.00    +0.000 N 
ATOM      4  H   UNL     1       2.937   6.391  20.326  0.00  0.00    +0.000 HD
ENDROOT
BRANCH   3   5
ATOM      5  C   UNL     1       3.548   5.599  18.499  0.00  0.00    +0.000 A 
ATOM      6  C   UNL     1       4.284   5.979  17.362  0.00  0.00    +0.000 A 
ATOM      7  C   UNL     1       4.846   5.041  16.499  0.00  0.00    +0.000 A 
ATOM      8 CL   UNL     1       5.668   5.560  15.077  0.00  0.00    +0.000 Cl
ATOM      9  C   UNL     1       4.732   3.690  16.775  0.00  0.00    +0.000 A 
ATOM     10  C   UNL     1       4.048   3.278  17.920  0.00  0.00    +0.000 A 
ATOM     11  C   UNL     1       3.441   4.217  18.787  0.00  0.00    +0.000 A 
BRANCH  11  12
ATOM     12  N   UNL     1       2.686   3.733  19.893  0.00  0.00    +0.000 N 
ATOM     13  C   UNL     1       3.127   3.027  20.991  0.00  0.00    +0.000 A 
ATOM     14  N   UNL     1       2.121   2.684  21.761  0.00  0.00    +0.000 NA
ATOM     15  C   UNL     1       1.052   3.220  21.106  0.00  0.00    +0.000 A 
ATOM     16  N   UNL     1       1.336   3.892  19.990  0.00  0.00    +0.000 NA
ENDBRANCH  11  12
ENDBRANCH   3   5
BRANCH   2  17
ATOM     17  C   UNL     1       1.562   8.587  19.826  0.00  0.00    +0.000 A 
ATOM     18  C   UNL     1       0.972   8.031  20.976  0.00  0.00    +0.000 A 
ATOM     19  C   UNL     1       0.229   8.813  21.853  0.00  0.00    +0.000 A 
ATOM     20  C   UNL     1       0.093  10.176  21.609  0.00  0.00    +0.000 A 
ATOM     21  C   UNL     1       0.731  10.756  20.502  0.00  0.00    +0.000 A 
ATOM     22  C   UNL     1       1.469   9.967  19.598  0.00  0.00    +0.000 A 
BRANCH  21  23
ATOM     23  S   UNL     1       0.781  12.544  20.399  0.00  0.00    +0.000 S 
ATOM     24  O   UNL     1       0.713  13.047  21.755  0.00  0.00    +0.000 OA
ATOM     25  O   UNL     1       1.895  12.875  19.541  0.00  0.00    +0.000 OA
BRANCH  23  26
ATOM     26  N   UNL     1      -0.633  13.003  19.610  0.00  0.00    +0.000 NA
ATOM     27  C   UNL     1      -1.773  13.535  20.368  0.00  0.00    +0.000 C 
ATOM     28  C   UNL     1      -2.806  12.430  20.271  0.00  0.00    +0.000 C 
ATOM     29  C   UNL     1      -2.596  11.852  18.880  0.00  0.00    +0.000 C 
ATOM     30  C   UNL     1      -1.150  12.170  18.509  0.00  0.00    +0.000 C 
ENDBRANCH  23  26
ENDBRANCH  21  23
ENDBRANCH   2  17
TORSDOF 5
ENDMDL
MODEL 6
REMARK VINA RESULT:      -8.2      3.705      8.746
REMARK  Name = 
REMARK  5 active torsions:
REMARK  status: ('A' for Active; 'I' for Inactive)
REMARK    1  A    between atoms: C_2  and  C_16
REMARK    2  A    between atoms: N_3  and  C_4
REMARK    3  A    between atoms: C_10  and  N_11
REMARK    4  A    between atoms: C_20  and  S_21
REMARK    5  A    between atoms: S_21  and  N_24
REMARK                            x       y       z     vdW  Elec       q    Type
REMARK                         _______ _______ _______ _____ _____    ______ ____
ROOT
ATOM      1  O   UNL     1      -0.229   9.274  21.372  0.00  0.00    +0.000 OA
ATOM      2  C   UNL     1       0.254   9.784  20.363  0.00  0.00    +0.000 C 
ATOM      3  N   UNL     1      -0.108  11.012  19.842  0.00  0.00    +0.000 N 
ATOM      4  H   UNL     1       0.134  11.218  18.868  0.00  0.00    +0.000 HD
ENDROOT
BRANCH   3   5
ATOM      5  C   UNL     1      -1.051  11.904  20.437  0.00  0.00    +0.000 A 
ATOM      6  C   UNL     1      -0.783  12.481  21.692  0.00  0.00    +0.000 A 
ATOM      7  C   UNL     1      -1.701  13.308  22.336  0.00  0.00    +0.000 A 
ATOM      8 CL   UNL     1      -1.356  13.922  23.907  0.00  0.00    +0.000 Cl
ATOM      9  C   UNL     1      -2.899  13.624  21.720  0.00  0.00    +0.000 A 
ATOM     10  C   UNL     1      -3.179  13.107  20.453  0.00  0.00    +0.000 A 
ATOM     11  C   UNL     1      -2.272  12.237  19.803  0.00  0.00    +0.000 A 
BRANCH  11  12
ATOM     12  N   UNL     1      -2.650  11.675  18.550  0.00  0.00    +0.000 N 
ATOM     13  C   UNL     1      -3.853  11.107  18.191  0.00  0.00    +0.000 A 
ATOM     14  N   UNL     1      -3.796  10.625  16.971  0.00  0.00    +0.000 NA
ATOM     15  C   UNL     1      -2.524  10.934  16.590  0.00  0.00    +0.000 A 
ATOM     16  N   UNL     1      -1.797  11.597  17.490  0.00  0.00    +0.000 NA
ENDBRANCH  11  12
ENDBRANCH   3   5
BRANCH   2  17
ATOM     17  C   UNL     1       1.264   8.963  19.645  0.00  0.00    +0.000 A 
ATOM     18  C   UNL     1       1.728   9.500  18.430  0.00  0.00    +0.000 A 
ATOM     19  C   UNL     1       2.506   8.744  17.561  0.00  0.00    +0.000 A 
ATOM     20  C   UNL     1       2.860   7.446  17.911  0.00  0.00    +0.000 A 
ATOM     21  C   UNL     1       2.461   6.920  19.149  0.00  0.00    +0.000 A 
ATOM     22  C   UNL     1       1.655   7.673  20.027  0.00  0.00    +0.000 A 
BRANCH  21  23
ATOM     23  S   UNL     1       3.189   5.373  19.684  0.00  0.00    +0.000 S 
ATOM     24  O   UNL     1       4.624   5.560  19.682  0.00  0.00    +0.000 OA
ATOM     25  O   UNL     1       2.495   4.988  20.891  0.00  0.00    +0.000 OA
BRANCH  23  26
ATOM     26  N   UNL     1       2.815   4.247  18.491  0.00  0.00    +0.000 NA
ATOM     27  C   UNL     1       1.416   3.964  18.143  0.00  0.00    +0.000 C 
ATOM     28  C   UNL     1       1.199   2.560  18.671  0.00  0.00    +0.000 C 
ATOM     29  C   UNL     1       2.539   1.874  18.450  0.00  0.00    +0.000 C 
ATOM     30  C   UNL     1       3.580   2.990  18.417  0.00  0.00    +0.000 C 
ENDBRANCH  23  26
ENDBRANCH  21  23
ENDBRANCH   2  17
TORSDOF 5
ENDMDL
MODEL 7
REMARK VINA RESULT:      -8.2      2.602      3.311
REMARK  Name = 
REMARK  5 active torsions:
REMARK  status: ('A' for Active; 'I' for Inactive)
REMARK    1  A    between atoms: C_2  and  C_16
REMARK    2  A    between atoms: N_3  and  C_4
REMARK    3  A    between atoms: C_10  and  N_11
REMARK    4  A    between atoms: C_20  and  S_21
REMARK    5  A    between atoms: S_21  and  N_24
REMARK                            x       y       z     vdW  Elec       q    Type
REMARK                         _______ _______ _______ _____ _____    ______ ____
ROOT
ATOM      1  O   UNL     1       1.797   7.761  17.780  0.00  0.00    +0.000 OA
ATOM      2  C   UNL     1       2.154   7.592  18.945  0.00  0.00    +0.000 C 
ATOM      3  N   UNL     1       2.967   6.564  19.386  0.00  0.00    +0.000 N 
ATOM      4  H   UNL     1       2.974   6.344  20.386  0.00  0.00    +0.000 HD
ENDROOT
BRANCH   3   5
ATOM      5  C   UNL     1       3.569   5.581  18.541  0.00  0.00    +0.000 A 
ATOM      6  C   UNL     1       4.284   5.977  17.396  0.00  0.00    +0.000 A 
ATOM      7  C   UNL     1       4.835   5.052  16.514  0.00  0.00    +0.000 A 
ATOM      8 CL   UNL     1       5.632   5.589  15.084  0.00  0.00    +0.000 Cl
ATOM      9  C   UNL     1       4.730   3.697  16.776  0.00  0.00    +0.000 A 
ATOM     10  C   UNL     1       4.067   3.269  17.928  0.00  0.00    +0.000 A 
ATOM     11  C   UNL     1       3.472   4.196  18.815  0.00  0.00    +0.000 A 
BRANCH  11  12
ATOM     12  N   UNL     1       2.737   3.696  19.928  0.00  0.00    +0.000 N 
ATOM     13  C   UNL     1       3.174   2.881  20.950  0.00  0.00    +0.000 A 
ATOM     14  N   UNL     1       2.184   2.566  21.752  0.00  0.00    +0.000 NA
ATOM     15  C   UNL     1       1.131   3.231  21.197  0.00  0.00    +0.000 A 
ATOM     16  N   UNL     1       1.412   3.955  20.114  0.00  0.00    +0.000 NA
ENDBRANCH  11  12
ENDBRANCH   3   5
BRANCH   2  17
ATOM     17  C   UNL     1       1.606   8.555  19.935  0.00  0.00    +0.000 A 
ATOM     18  C   UNL     1       1.170   7.994  21.149  0.00  0.00    +0.000 A 
ATOM     19  C   UNL     1       0.448   8.745  22.070  0.00  0.00    +0.000 A 
ATOM     20  C   UNL     1       0.179  10.083  21.802  0.00  0.00    +0.000 A 
ATOM     21  C   UNL     1       0.665  10.674  20.626  0.00  0.00    +0.000 A 
ATOM     22  C   UNL     1       1.381   9.914  19.679  0.00  0.00    +0.000 A 
BRANCH  21  23
ATOM     23  S   UNL     1       0.559  12.456  20.470  0.00  0.00    +0.000 S 
ATOM     24  O   UNL     1      -0.486  12.733  19.508  0.00  0.00    +0.000 OA
ATOM     25  O   UNL     1       0.487  12.982  21.814  0.00  0.00    +0.000 OA
BRANCH  23  26
ATOM     26  N   UNL     1       2.021  12.950  19.799  0.00  0.00    +0.000 NA
ATOM     27  C   UNL     1       2.904  13.869  20.529  0.00  0.00    +0.000 C 
ATOM     28  C   UNL     1       2.809  15.155  19.733  0.00  0.00    +0.000 C 
ATOM     29  C   UNL     1       2.673  14.686  18.292  0.00  0.00    +0.000 C 
ATOM     30  C   UNL     1       2.084  13.280  18.365  0.00  0.00    +0.000 C 
ENDBRANCH  23  26
ENDBRANCH  21  23
ENDBRANCH   2  17
TORSDOF 5
ENDMDL
MODEL 8
REMARK VINA RESULT:      -8.1      3.936      8.464
REMARK  Name = 
REMARK  5 active torsions:
REMARK  status: ('A' for Active; 'I' for Inactive)
REMARK    1  A    between atoms: C_2  and  C_16
REMARK    2  A    between atoms: N_3  and  C_4
REMARK    3  A    between atoms: C_10  and  N_11
REMARK    4  A    between atoms: C_20  and  S_21
REMARK    5  A    between atoms: S_21  and  N_24
REMARK                            x       y       z     vdW  Elec       q    Type
REMARK                         _______ _______ _______ _____ _____    ______ ____
ROOT
ATOM      1  O   UNL     1       2.106   9.961  17.978  0.00  0.00    +0.000 OA
ATOM      2  C   UNL     1       1.565   8.857  18.008  0.00  0.00    +0.000 C 
ATOM      3  N   UNL     1       0.200   8.642  18.056  0.00  0.00    +0.000 N 
ATOM      4  H   UNL     1      -0.137   7.725  18.362  0.00  0.00    +0.000 HD
ENDROOT
BRANCH   3   5
ATOM      5  C   UNL     1      -0.790   9.671  18.010  0.00  0.00    +0.000 A 
ATOM      6  C   UNL     1      -1.556   9.862  16.845  0.00  0.00    +0.000 A 
ATOM      7  C   UNL     1      -2.488  10.891  16.735  0.00  0.00    +0.000 A 
ATOM      8 CL   UNL     1      -3.340  11.129  15.258  0.00  0.00    +0.000 Cl
ATOM      9  C   UNL     1      -2.720  11.733  17.808  0.00  0.00    +0.000 A 
ATOM     10  C   UNL     1      -2.011  11.544  18.997  0.00  0.00    +0.000 A 
ATOM     11  C   UNL     1      -1.035  10.526  19.111  0.00  0.00    +0.000 A 
BRANCH  11  12
ATOM     12  N   UNL     1      -0.286  10.435  20.319  0.00  0.00    +0.000 N 
ATOM     13  C   UNL     1       0.562  11.368  20.876  0.00  0.00    +0.000 A 
ATOM     14  N   UNL     1       1.136  10.891  21.955  0.00  0.00    +0.000 NA
ATOM     15  C   UNL     1       0.597   9.644  22.051  0.00  0.00    +0.000 A 
ATOM     16  N   UNL     1      -0.292   9.326  21.109  0.00  0.00    +0.000 NA
ENDBRANCH  11  12
ENDBRANCH   3   5
BRANCH   2  17
ATOM     17  C   UNL     1       2.483   7.689  18.050  0.00  0.00    +0.000 A 
ATOM     18  C   UNL     1       2.437   6.925  19.230  0.00  0.00    +0.000 A 
ATOM     19  C   UNL     1       3.384   5.940  19.486  0.00  0.00    +0.000 A 
ATOM     20  C   UNL     1       4.376   5.683  18.545  0.00  0.00    +0.000 A 
ATOM     21  C   UNL     1       4.395   6.391  17.335  0.00  0.00    +0.000 A 
ATOM     22  C   UNL     1       3.449   7.404  17.076  0.00  0.00    +0.000 A 
BRANCH  21  23
ATOM     23  S   UNL     1       5.493   5.820  16.039  0.00  0.00    +0.000 S 
ATOM     24  O   UNL     1       5.226   4.410  15.852  0.00  0.00    +0.000 OA
ATOM     25  O   UNL     1       5.355   6.752  14.944  0.00  0.00    +0.000 OA
BRANCH  23  26
ATOM     26  N   UNL     1       7.052   5.972  16.653  0.00  0.00    +0.000 NA
ATOM     27  C   UNL     1       7.662   4.878  17.421  0.00  0.00    +0.000 C 
ATOM     28  C   UNL     1       7.714   5.426  18.833  0.00  0.00    +0.000 C 
ATOM     29  C   UNL     1       7.989   6.910  18.641  0.00  0.00    +0.000 C 
ATOM     30  C   UNL     1       7.476   7.253  17.245  0.00  0.00    +0.000 C 
ENDBRANCH  23  26
ENDBRANCH  21  23
ENDBRANCH   2  17
TORSDOF 5
ENDMDL
MODEL 9
REMARK VINA RESULT:      -8.1      1.027      1.429
REMARK  Name = 
REMARK  5 active torsions:
REMARK  status: ('A' for Active; 'I' for Inactive)
REMARK    1  A    between atoms: C_2  and  C_16
REMARK    2  A    between atoms: N_3  and  C_4
REMARK    3  A    between atoms: C_10  and  N_11
REMARK    4  A    between atoms: C_20  and  S_21
REMARK    5  A    between atoms: S_21  and  N_24
REMARK                            x       y       z     vdW  Elec       q    Type
REMARK                         _______ _______ _______ _____ _____    ______ ____
ROOT
ATOM      1  O   UNL     1       3.170   8.278  17.838  0.00  0.00    +0.000 OA
ATOM      2  C   UNL     1       2.490   7.719  18.696  0.00  0.00    +0.000 C 
ATOM      3  N   UNL     1       2.488   6.359  18.948  0.00  0.00    +0.000 N 
ATOM      4  H   UNL     1       1.700   5.962  19.468  0.00  0.00    +0.000 HD
ENDROOT
BRANCH   3   5
ATOM      5  C   UNL     1       3.327   5.408  18.293  0.00  0.00    +0.000 A 
ATOM      6  C   UNL     1       4.066   5.783  17.155  0.00  0.00    +0.000 A 
ATOM      7  C   UNL     1       4.849   4.872  16.450  0.00  0.00    +0.000 A 
ATOM      8 CL   UNL     1       5.668   5.365  15.017  0.00  0.00    +0.000 Cl
ATOM      9  C   UNL     1       4.958   3.565  16.891  0.00  0.00    +0.000 A 
ATOM     10  C   UNL     1       4.276   3.169  18.044  0.00  0.00    +0.000 A 
ATOM     11  C   UNL     1       3.448   4.074  18.750  0.00  0.00    +0.000 A 
BRANCH  11  12
ATOM     12  N   UNL     1       2.713   3.589  19.869  0.00  0.00    +0.000 N 
ATOM     13  C   UNL     1       3.176   2.904  20.971  0.00  0.00    +0.000 A 
ATOM     14  N   UNL     1       2.183   2.553  21.755  0.00  0.00    +0.000 NA
ATOM     15  C   UNL     1       1.100   3.064  21.105  0.00  0.00    +0.000 A 
ATOM     16  N   UNL     1       1.361   3.727  19.978  0.00  0.00    +0.000 NA
ENDBRANCH  11  12
ENDBRANCH   3   5
BRANCH   2  17
ATOM     17  C   UNL     1       1.571   8.598  19.466  0.00  0.00    +0.000 A 
ATOM     18  C   UNL     1       1.307   8.190  20.786  0.00  0.00    +0.000 A 
ATOM     19  C   UNL     1       0.309   8.797  21.540  0.00  0.00    +0.000 A 
ATOM     20  C   UNL     1      -0.420   9.847  20.993  0.00  0.00    +0.000 A 
ATOM     21  C   UNL     1      -0.123  10.309  19.701  0.00  0.00    +0.000 A 
ATOM     22  C   UNL     1       0.874   9.686  18.924  0.00  0.00    +0.000 A 
BRANCH  21  23
ATOM     23  S   UNL     1      -0.872  11.844  19.160  0.00  0.00    +0.000 S 
ATOM     24  O   UNL     1      -1.707  12.310  20.246  0.00  0.00    +0.000 OA
ATOM     25  O   UNL     1       0.200  12.664  18.645  0.00  0.00    +0.000 OA
BRANCH  23  26
ATOM     26  N   UNL     1      -1.878  11.441  17.873  0.00  0.00    +0.000 NA
ATOM     27  C   UNL     1      -3.302  11.800  17.898  0.00  0.00    +0.000 C 
ATOM     28  C   UNL     1      -3.999  10.464  18.060  0.00  0.00    +0.000 C 
ATOM     29  C   UNL     1      -3.130   9.498  17.267  0.00  0.00    +0.000 C 
ATOM     30  C   UNL     1      -1.738  10.122  17.231  0.00  0.00    +0.000 C 
ENDBRANCH  23  26
ENDBRANCH  21  23
ENDBRANCH   2  17
TORSDOF 5
ENDMDL
