MODEL 1
REMARK VINA RESULT:      -8.4      0.000      0.000
REMARK  Name = 
REMARK  8 active torsions:
REMARK  status: ('A' for Active; 'I' for Inactive)
REMARK    1  A    between atoms: C_1  and  C_2
REMARK    2  A    between atoms: C_4  and  N_5
REMARK    3  A    between atoms: N_5  and  C_6
REMARK    4  A    between atoms: N_5  and  C_7
REMARK    5  A    between atoms: C_7  and  C_8
REMARK    6  A    between atoms: C_7  and  C_9
REMARK    7  A    between atoms: C_13  and  N_14
REMARK    8  A    between atoms: C_15  and  C_17
REMARK                            x       y       z     vdW  Elec       q    Type
REMARK                         _______ _______ _______ _____ _____    ______ ____
ROOT
ATOM      1  C   UNL     1       2.379   5.885  18.890  0.00  0.00    +0.000 A 
ATOM      2  C   UNL     1       1.955   5.415  20.141  0.00  0.00    +0.000 A 
ATOM      3  C   UNL     1       1.439   6.294  21.092  0.00  0.00    +0.000 A 
ATOM      4  C   UNL     1       1.342   7.658  20.818  0.00  0.00    +0.000 A 
ATOM      5  C   UNL     1       1.765   8.172  19.591  0.00  0.00    +0.000 A 
ATOM      6  C   UNL     1       2.264   7.272  18.631  0.00  0.00    +0.000 A 
ENDROOT
BRANCH   5   7
ATOM      7  N   UNL     1       1.728   9.553  19.263  0.00  0.00    +0.000 N 
ATOM      8  C   UNL     1       0.617  10.387  19.320  0.00  0.00    +0.000 C 
ATOM      9  O   UNL     1      -0.516  10.054  19.653  0.00  0.00    +0.000 OA
ATOM     10  H   UNL     1       2.622   9.974  19.056  0.00  0.00    +0.000 HD
BRANCH   8  11
ATOM     11  C   UNL     1       0.825  11.824  18.963  0.00  0.00    +0.000 A 
ATOM     12  C   UNL     1      -0.183  12.793  19.051  0.00  0.00    +0.000 A 
ATOM     13  C   UNL     1       0.112  14.134  18.765  0.00  0.00    +0.000 A 
ATOM     14  C   UNL     1       1.404  14.515  18.402  0.00  0.00    +0.000 A 
ATOM     15  C   UNL     1       2.410  13.557  18.310  0.00  0.00    +0.000 A 
ATOM     16  C   UNL     1       2.122  12.218  18.591  0.00  0.00    +0.000 A 
ENDBRANCH   8  11
ENDBRANCH   5   7
BRANCH   1  17
ATOM     17  C   UNL     1       2.902   4.948  17.802  0.00  0.00    +0.000 C 
ATOM     18  C   UNL     1       1.918   3.779  17.604  0.00  0.00    +0.000 C 
BRANCH  17  19
ATOM     19  N   UNL     1       4.320   4.500  18.040  0.00  0.00    +0.000 N 
ATOM     20  C   UNL     1       4.457   3.265  18.836  0.00  0.00    +0.000 C 
BRANCH  19  24
ATOM     21  C   UNL     1       8.043   7.856  18.188  0.00  0.00    +0.000 C 
ATOM     22  C   UNL     1       7.331   6.753  17.438  0.00  0.00    +0.000 A 
ATOM     23  C   UNL     1       6.186   6.085  18.124  0.00  0.00    +0.000 A 
ATOM     24  C   UNL     1       5.465   5.153  17.457  0.00  0.00    +0.000 A 
ATOM     25  N   UNL     1       5.934   4.853  16.131  0.00  0.00    +0.000 N 
ATOM     26  N   UNL     1       5.485   3.951  15.206  0.00  0.00    +0.000 NA
ATOM     27  C   UNL     1       6.351   4.093  14.209  0.00  0.00    +0.000 A 
ATOM     28  N   UNL     1       7.328   5.008  14.392  0.00  0.00    +0.000 NA
ATOM     29  C   UNL     1       7.070   5.497  15.585  0.00  0.00    +0.000 A 
ATOM     30  N   UNL     1       7.755   6.468  16.248  0.00  0.00    +0.000 NA
ENDBRANCH  19  24
ENDBRANCH  17  19
ENDBRANCH   1  17
TORSDOF 5
ENDMDL
MODEL 2
REMARK VINA RESULT:      -8.3      2.027      3.401
REMARK  Name = 
REMARK  8 active torsions:
REMARK  status: ('A' for Active; 'I' for Inactive)
REMARK    1  A    between atoms: C_1  and  C_2
REMARK    2  A    between atoms: C_4  and  N_5
REMARK    3  A    between atoms: N_5  and  C_6
REMARK    4  A    between atoms: N_5  and  C_7
REMARK    5  A    between atoms: C_7  and  C_8
REMARK    6  A    between atoms: C_7  and  C_9
REMARK    7  A    between atoms: C_13  and  N_14
REMARK    8  A    between atoms: C_15  and  C_17
REMARK                            x       y       z     vdW  Elec       q    Type
REMARK                         _______ _______ _______ _____ _____    ______ ____
ROOT
ATOM      1  C   UNL     1       2.620   5.683  18.468  0.00  0.00    +0.000 A 
ATOM      2  C   UNL     1       3.358   6.269  17.431  0.00  0.00    +0.000 A 
ATOM      3  C   UNL     1       3.411   7.656  17.293  0.00  0.00    +0.000 A 
ATOM      4  C   UNL     1       2.724   8.483  18.182  0.00  0.00    +0.000 A 
ATOM      5  C   UNL     1       1.966   7.942  19.221  0.00  0.00    +0.000 A 
ATOM      6  C   UNL     1       1.937   6.542  19.363  0.00  0.00    +0.000 A 
ENDROOT
BRANCH   5   7
ATOM      7  N   UNL     1       1.214   8.725  20.136  0.00  0.00    +0.000 N 
ATOM      8  C   UNL     1       0.334   9.753  19.815  0.00  0.00    +0.000 C 
ATOM      9  O   UNL     1       0.078  10.154  18.684  0.00  0.00    +0.000 OA
ATOM     10  H   UNL     1       1.267   8.437  21.102  0.00  0.00    +0.000 HD
BRANCH   8  11
ATOM     11  C   UNL     1      -0.381  10.416  20.948  0.00  0.00    +0.000 A 
ATOM     12  C   UNL     1      -0.430   9.885  22.244  0.00  0.00    +0.000 A 
ATOM     13  C   UNL     1      -1.062  10.604  23.269  0.00  0.00    +0.000 A 
ATOM     14  C   UNL     1      -1.637  11.849  23.012  0.00  0.00    +0.000 A 
ATOM     15  C   UNL     1      -1.595  12.381  21.727  0.00  0.00    +0.000 A 
ATOM     16  C   UNL     1      -0.968  11.668  20.700  0.00  0.00    +0.000 A 
ENDBRANCH   8  11
ENDBRANCH   5   7
BRANCH   1  17
ATOM     17  C   UNL     1       2.578   4.170  18.684  0.00  0.00    +0.000 C 
ATOM     18  C   UNL     1       1.728   3.845  19.926  0.00  0.00    +0.000 C 
BRANCH  17  19
ATOM     19  N   UNL     1       3.946   3.540  18.716  0.00  0.00    +0.000 N 
ATOM     20  C   UNL     1       4.074   2.375  19.611  0.00  0.00    +0.000 C 
BRANCH  19  24
ATOM     21  C   UNL     1       6.236   3.782  14.261  0.00  0.00    +0.000 C 
ATOM     22  C   UNL     1       6.225   4.154  15.726  0.00  0.00    +0.000 A 
ATOM     23  C   UNL     1       5.044   3.728  16.534  0.00  0.00    +0.000 A 
ATOM     24  C   UNL     1       5.032   3.963  17.867  0.00  0.00    +0.000 A 
ATOM     25  N   UNL     1       6.174   4.678  18.371  0.00  0.00    +0.000 N 
ATOM     26  N   UNL     1       6.468   5.117  19.632  0.00  0.00    +0.000 NA
ATOM     27  C   UNL     1       7.620   5.757  19.461  0.00  0.00    +0.000 A 
ATOM     28  N   UNL     1       8.111   5.779  18.202  0.00  0.00    +0.000 NA
ATOM     29  C   UNL     1       7.220   5.097  17.515  0.00  0.00    +0.000 A 
ATOM     30  N   UNL     1       7.244   4.809  16.186  0.00  0.00    +0.000 NA
ENDBRANCH  19  24
ENDBRANCH  17  19
ENDBRANCH   1  17
TORSDOF 5
ENDMDL
MODEL 3
REMARK VINA RESULT:      -8.2      3.447      6.718
REMARK  Name = 
REMARK  8 active torsions:
REMARK  status: ('A' for Active; 'I' for Inactive)
REMARK    1  A    between atoms: C_1  and  C_2
REMARK    2  A    between atoms: C_4  and  N_5
REMARK    3  A    between atoms: N_5  and  C_6
REMARK    4  A    between atoms: N_5  and  C_7
REMARK    5  A    between atoms: C_7  and  C_8
REMARK    6  A    between atoms: C_7  and  C_9
REMARK    7  A    between atoms: C_13  and  N_14
REMARK    8  A    between atoms: C_15  and  C_17
REMARK                            x       y       z     vdW  Elec       q    Type
REMARK                         _______ _______ _______ _____ _____    ______ ____
ROOT
ATOM      1  C   UNL     1       6.518   6.069  17.318  0.00  0.00    +0.000 A 
ATOM      2  C   UNL     1       6.998   5.311  18.395  0.00  0.00    +0.000 A 
ATOM      3  C   UNL     1       7.939   5.844  19.275  0.00  0.00    +0.000 A 
ATOM      4  C   UNL     1       8.425   7.140  19.094  0.00  0.00    +0.000 A 
ATOM      5  C   UNL     1       7.984   7.924  18.027  0.00  0.00    +0.000 A 
ATOM      6  C   UNL     1       7.019   7.383  17.159  0.00  0.00    +0.000 A 
ENDROOT
BRANCH   5   7
ATOM      7  N   UNL     1       8.466   9.235  17.765  0.00  0.00    +0.000 N 
ATOM      8  C   UNL     1       8.995  10.122  18.695  0.00  0.00    +0.000 C 
ATOM      9  O   UNL     1       9.120   9.915  19.897  0.00  0.00    +0.000 OA
ATOM     10  H   UNL     1       8.502   9.497  16.790  0.00  0.00    +0.000 HD
BRANCH   8  11
ATOM     11  C   UNL     1       9.478  11.440  18.180  0.00  0.00    +0.000 A 
ATOM     12  C   UNL     1       8.683  12.594  18.151  0.00  0.00    +0.000 A 
ATOM     13  C   UNL     1       9.233  13.809  17.718  0.00  0.00    +0.000 A 
ATOM     14  C   UNL     1      10.568  13.883  17.322  0.00  0.00    +0.000 A 
ATOM     15  C   UNL     1      11.363  12.740  17.346  0.00  0.00    +0.000 A 
ATOM     16  C   UNL     1      10.820  11.525  17.773  0.00  0.00    +0.000 A 
ENDBRANCH   8  11
ENDBRANCH   5   7
BRANCH   1  17
ATOM     17  C   UNL     1       5.448   5.540  16.362  0.00  0.00    +0.000 C 
ATOM     18  C   UNL     1       5.220   6.553  15.225  0.00  0.00    +0.000 C 
BRANCH  17  19
ATOM     19  N   UNL     1       4.179   5.134  17.063  0.00  0.00    +0.000 N 
ATOM     20  C   UNL     1       3.828   3.707  16.938  0.00  0.00    +0.000 C 
BRANCH  19  24
ATOM     21  C   UNL     1       2.077   9.597  17.964  0.00  0.00    +0.000 C 
ATOM     22  C   UNL     1       2.325   8.175  18.413  0.00  0.00    +0.000 A 
ATOM     23  C   UNL     1       3.087   7.285  17.487  0.00  0.00    +0.000 A 
ATOM     24  C   UNL     1       3.407   6.032  17.885  0.00  0.00    +0.000 A 
ATOM     25  N   UNL     1       2.908   5.657  19.181  0.00  0.00    +0.000 N 
ATOM     26  N   UNL     1       2.999   4.478  19.868  0.00  0.00    +0.000 NA
ATOM     27  C   UNL     1       2.298   4.721  20.969  0.00  0.00    +0.000 A 
ATOM     28  N   UNL     1       1.753   5.954  21.071  0.00  0.00    +0.000 NA
ATOM     29  C   UNL     1       2.139   6.551  19.963  0.00  0.00    +0.000 A 
ATOM     30  N   UNL     1       1.868   7.825  19.573  0.00  0.00    +0.000 NA
ENDBRANCH  19  24
ENDBRANCH  17  19
ENDBRANCH   1  17
TORSDOF 5
ENDMDL
MODEL 4
REMARK VINA RESULT:      -8.2      0.839      2.294
REMARK  Name = 
REMARK  8 active torsions:
REMARK  status: ('A' for Active; 'I' for Inactive)
REMARK    1  A    between atoms: C_1  and  C_2
REMARK    2  A    between atoms: C_4  and  N_5
REMARK    3  A    between atoms: N_5  and  C_6
REMARK    4  A    between atoms: N_5  and  C_7
REMARK    5  A    between atoms: C_7  and  C_8
REMARK    6  A    between atoms: C_7  and  C_9
REMARK    7  A    between atoms: C_13  and  N_14
REMARK    8  A    between atoms: C_15  and  C_17
REMARK                            x       y       z     vdW  Elec       q    Type
REMARK                         _______ _______ _______ _____ _____    ______ ____
ROOT
ATOM      1  C   UNL     1       2.366   5.287  18.791  0.00  0.00    +0.000 A 
ATOM      2  C   UNL     1       1.930   4.829  20.041  0.00  0.00    +0.000 A 
ATOM      3  C   UNL     1       1.483   5.727  21.010  0.00  0.00    +0.000 A 
ATOM      4  C   UNL     1       1.469   7.099  20.752  0.00  0.00    +0.000 A 
ATOM      5  C   UNL     1       1.908   7.599  19.525  0.00  0.00    +0.000 A 
ATOM      6  C   UNL     1       2.336   6.682  18.549  0.00  0.00    +0.000 A 
ENDROOT
BRANCH   5   7
ATOM      7  N   UNL     1       1.954   8.984  19.213  0.00  0.00    +0.000 N 
ATOM      8  C   UNL     1       0.936   9.910  19.409  0.00  0.00    +0.000 C 
ATOM      9  O   UNL     1      -0.173   9.672  19.874  0.00  0.00    +0.000 OA
ATOM     10  H   UNL     1       2.851   9.329  18.903  0.00  0.00    +0.000 HD
BRANCH   8  11
ATOM     11  C   UNL     1       1.227  11.329  19.040  0.00  0.00    +0.000 A 
ATOM     12  C   UNL     1       2.349  11.718  18.296  0.00  0.00    +0.000 A 
ATOM     13  C   UNL     1       2.513  13.062  17.931  0.00  0.00    +0.000 A 
ATOM     14  C   UNL     1       1.563  14.017  18.295  0.00  0.00    +0.000 A 
ATOM     15  C   UNL     1       0.447  13.639  19.036  0.00  0.00    +0.000 A 
ATOM     16  C   UNL     1       0.280  12.301  19.406  0.00  0.00    +0.000 A 
ENDBRANCH   8  11
ENDBRANCH   5   7
BRANCH   1  17
ATOM     17  C   UNL     1       2.815   4.331  17.684  0.00  0.00    +0.000 C 
ATOM     18  C   UNL     1       1.914   3.083  17.678  0.00  0.00    +0.000 C 
BRANCH  17  19
ATOM     19  N   UNL     1       4.284   4.006  17.746  0.00  0.00    +0.000 N 
ATOM     20  C   UNL     1       4.673   3.084  18.830  0.00  0.00    +0.000 C 
BRANCH  19  24
ATOM     21  C   UNL     1       6.396   3.813  13.202  0.00  0.00    +0.000 C 
ATOM     22  C   UNL     1       6.327   4.464  14.564  0.00  0.00    +0.000 A 
ATOM     23  C   UNL     1       5.280   3.973  15.508  0.00  0.00    +0.000 A 
ATOM     24  C   UNL     1       5.238   4.466  16.768  0.00  0.00    +0.000 A 
ATOM     25  N   UNL     1       6.205   5.492  17.054  0.00  0.00    +0.000 N 
ATOM     26  N   UNL     1       6.417   6.230  18.185  0.00  0.00    +0.000 NA
ATOM     27  C   UNL     1       7.398   7.050  17.825  0.00  0.00    +0.000 A 
ATOM     28  N   UNL     1       7.852   6.917  16.559  0.00  0.00    +0.000 NA
ATOM     29  C   UNL     1       7.121   5.938  16.072  0.00  0.00    +0.000 A 
ATOM     30  N   UNL     1       7.186   5.398  14.825  0.00  0.00    +0.000 NA
ENDBRANCH  19  24
ENDBRANCH  17  19
ENDBRANCH   1  17
TORSDOF 5
ENDMDL
MODEL 5
REMARK VINA RESULT:      -8.1      0.862      1.249
REMARK  Name = 
REMARK  8 active torsions:
REMARK  status: ('A' for Active; 'I' for Inactive)
REMARK    1  A    between atoms: C_1  and  C_2
REMARK    2  A    between atoms: C_4  and  N_5
REMARK    3  A    between atoms: N_5  and  C_6
REMARK    4  A    between atoms: N_5  and  C_7
REMARK    5  A    between atoms: C_7  and  C_8
REMARK    6  A    between atoms: C_7  and  C_9
REMARK    7  A    between atoms: C_13  and  N_14
REMARK    8  A    between atoms: C_15  and  C_17
REMARK                            x       y       z     vdW  Elec       q    Type
REMARK                         _______ _______ _______ _____ _____    ______ ____
ROOT
ATOM      1  C   UNL     1       2.277   5.453  18.713  0.00  0.00    +0.000 A 
ATOM      2  C   UNL     1       2.092   5.003  20.027  0.00  0.00    +0.000 A 
ATOM      3  C   UNL     1       1.791   5.902  21.050  0.00  0.00    +0.000 A 
ATOM      4  C   UNL     1       1.676   7.267  20.782  0.00  0.00    +0.000 A 
ATOM      5  C   UNL     1       1.866   7.760  19.490  0.00  0.00    +0.000 A 
ATOM      6  C   UNL     1       2.148   6.840  18.463  0.00  0.00    +0.000 A 
ENDROOT
BRANCH   5   7
ATOM      7  N   UNL     1       1.801   9.139  19.159  0.00  0.00    +0.000 N 
ATOM      8  C   UNL     1       0.764  10.014  19.462  0.00  0.00    +0.000 C 
ATOM      9  O   UNL     1      -0.269   9.726  20.058  0.00  0.00    +0.000 OA
ATOM     10  H   UNL     1       2.635   9.526  18.740  0.00  0.00    +0.000 HD
BRANCH   8  11
ATOM     11  C   UNL     1       0.931  11.439  19.044  0.00  0.00    +0.000 A 
ATOM     12  C   UNL     1       2.155  11.982  18.629  0.00  0.00    +0.000 A 
ATOM     13  C   UNL     1       2.214  13.312  18.185  0.00  0.00    +0.000 A 
ATOM     14  C   UNL     1       1.062  14.098  18.145  0.00  0.00    +0.000 A 
ATOM     15  C   UNL     1      -0.156  13.566  18.559  0.00  0.00    +0.000 A 
ATOM     16  C   UNL     1      -0.221  12.243  19.005  0.00  0.00    +0.000 A 
ENDBRANCH   8  11
ENDBRANCH   5   7
BRANCH   1  17
ATOM     17  C   UNL     1       2.557   4.493  17.556  0.00  0.00    +0.000 C 
ATOM     18  C   UNL     1       1.332   3.592  17.319  0.00  0.00    +0.000 C 
BRANCH  17  19
ATOM     19  N   UNL     1       3.841   3.724  17.724  0.00  0.00    +0.000 N 
ATOM     20  C   UNL     1       3.672   2.280  17.974  0.00  0.00    +0.000 C 
BRANCH  19  24
ATOM     21  C   UNL     1       7.983   5.887  19.544  0.00  0.00    +0.000 C 
ATOM     22  C   UNL     1       7.222   5.363  18.347  0.00  0.00    +0.000 A 
ATOM     23  C   UNL     1       5.900   4.717  18.603  0.00  0.00    +0.000 A 
ATOM     24  C   UNL     1       5.145   4.313  17.555  0.00  0.00    +0.000 A 
ATOM     25  N   UNL     1       5.746   4.501  16.262  0.00  0.00    +0.000 N 
ATOM     26  N   UNL     1       5.298   4.175  15.012  0.00  0.00    +0.000 NA
ATOM     27  C   UNL     1       6.309   4.539  14.230  0.00  0.00    +0.000 A 
ATOM     28  N   UNL     1       7.382   5.076  14.852  0.00  0.00    +0.000 NA
ATOM     29  C   UNL     1       7.035   5.068  16.121  0.00  0.00    +0.000 A 
ATOM     30  N   UNL     1       7.761   5.517  17.181  0.00  0.00    +0.000 NA
ENDBRANCH  19  24
ENDBRANCH  17  19
ENDBRANCH   1  17
TORSDOF 5
ENDMDL
MODEL 6
REMARK VINA RESULT:      -7.8      3.759      9.510
REMARK  Name = 
REMARK  8 active torsions:
REMARK  status: ('A' for Active; 'I' for Inactive)
REMARK    1  A    between atoms: C_1  and  C_2
REMARK    2  A    between atoms: C_4  and  N_5
REMARK    3  A    between atoms: N_5  and  C_6
REMARK    4  A    between atoms: N_5  and  C_7
REMARK    5  A    between atoms: C_7  and  C_8
REMARK    6  A    between atoms: C_7  and  C_9
REMARK    7  A    between atoms: C_13  and  N_14
REMARK    8  A    between atoms: C_15  and  C_17
REMARK                            x       y       z     vdW  Elec       q    Type
REMARK                         _______ _______ _______ _____ _____    ______ ____
ROOT
ATOM      1  C   UNL     1       0.552  10.154  19.497  0.00  0.00    +0.000 A 
ATOM      2  C   UNL     1       0.111   9.699  20.747  0.00  0.00    +0.000 A 
ATOM      3  C   UNL     1       0.602   8.509  21.284  0.00  0.00    +0.000 A 
ATOM      4  C   UNL     1       1.538   7.748  20.582  0.00  0.00    +0.000 A 
ATOM      5  C   UNL     1       1.994   8.157  19.328  0.00  0.00    +0.000 A 
ATOM      6  C   UNL     1       1.507   9.370  18.807  0.00  0.00    +0.000 A 
ENDROOT
BRANCH   5   7
ATOM      7  N   UNL     1       2.916   7.411  18.546  0.00  0.00    +0.000 N 
ATOM      8  C   UNL     1       2.822   6.063  18.222  0.00  0.00    +0.000 C 
ATOM      9  O   UNL     1       1.928   5.298  18.572  0.00  0.00    +0.000 OA
ATOM     10  H   UNL     1       3.657   7.947  18.119  0.00  0.00    +0.000 HD
BRANCH   8  11
ATOM     11  C   UNL     1       3.895   5.496  17.348  0.00  0.00    +0.000 A 
ATOM     12  C   UNL     1       4.096   4.121  17.168  0.00  0.00    +0.000 A 
ATOM     13  C   UNL     1       5.080   3.671  16.276  0.00  0.00    +0.000 A 
ATOM     14  C   UNL     1       5.857   4.581  15.558  0.00  0.00    +0.000 A 
ATOM     15  C   UNL     1       5.664   5.948  15.734  0.00  0.00    +0.000 A 
ATOM     16  C   UNL     1       4.687   6.403  16.623  0.00  0.00    +0.000 A 
ENDBRANCH   8  11
ENDBRANCH   5   7
BRANCH   1  17
ATOM     17  C   UNL     1       0.076  11.477  18.898  0.00  0.00    +0.000 C 
ATOM     18  C   UNL     1       1.003  12.619  19.356  0.00  0.00    +0.000 C 
BRANCH  17  19
ATOM     19  N   UNL     1      -1.382  11.753  19.157  0.00  0.00    +0.000 N 
ATOM     20  C   UNL     1      -1.670  12.429  20.435  0.00  0.00    +0.000 C 
BRANCH  19  24
ATOM     21  C   UNL     1      -2.943  10.129  14.676  0.00  0.00    +0.000 C 
ATOM     22  C   UNL     1      -3.291  10.689  16.037  0.00  0.00    +0.000 A 
ATOM     23  C   UNL     1      -2.169  10.898  17.000  0.00  0.00    +0.000 A 
ATOM     24  C   UNL     1      -2.421  11.478  18.197  0.00  0.00    +0.000 A 
ATOM     25  N   UNL     1      -3.804  11.787  18.445  0.00  0.00    +0.000 N 
ATOM     26  N   UNL     1      -4.417  12.325  19.543  0.00  0.00    +0.000 NA
ATOM     27  C   UNL     1      -5.701  12.311  19.203  0.00  0.00    +0.000 A 
ATOM     28  N   UNL     1      -5.989  11.813  17.980  0.00  0.00    +0.000 NA
ATOM     29  C   UNL     1      -4.809  11.494  17.494  0.00  0.00    +0.000 A 
ATOM     30  N   UNL     1      -4.535  10.958  16.274  0.00  0.00    +0.000 NA
ENDBRANCH  19  24
ENDBRANCH  17  19
ENDBRANCH   1  17
TORSDOF 5
ENDMDL
MODEL 7
REMARK VINA RESULT:      -7.7      1.833      2.648
REMARK  Name = 
REMARK  8 active torsions:
REMARK  status: ('A' for Active; 'I' for Inactive)
REMARK    1  A    between atoms: C_1  and  C_2
REMARK    2  A    between atoms: C_4  and  N_5
REMARK    3  A    between atoms: N_5  and  C_6
REMARK    4  A    between atoms: N_5  and  C_7
REMARK    5  A    between atoms: C_7  and  C_8
REMARK    6  A    between atoms: C_7  and  C_9
REMARK    7  A    between atoms: C_13  and  N_14
REMARK    8  A    between atoms: C_15  and  C_17
REMARK                            x       y       z     vdW  Elec       q    Type
REMARK                         _______ _______ _______ _____ _____    ______ ____
ROOT
ATOM      1  C   UNL     1       2.895   6.033  18.606  0.00  0.00    +0.000 A 
ATOM      2  C   UNL     1       3.419   6.577  17.426  0.00  0.00    +0.000 A 
ATOM      3  C   UNL     1       3.243   7.928  17.129  0.00  0.00    +0.000 A 
ATOM      4  C   UNL     1       2.535   8.759  17.998  0.00  0.00    +0.000 A 
ATOM      5  C   UNL     1       1.985   8.256  19.178  0.00  0.00    +0.000 A 
ATOM      6  C   UNL     1       2.188   6.896  19.478  0.00  0.00    +0.000 A 
ENDROOT
BRANCH   5   7
ATOM      7  N   UNL     1       1.224   9.038  20.086  0.00  0.00    +0.000 N 
ATOM      8  C   UNL     1       0.187   9.905  19.761  0.00  0.00    +0.000 C 
ATOM      9  O   UNL     1      -0.228  10.140  18.631  0.00  0.00    +0.000 OA
ATOM     10  H   UNL     1       1.407   8.870  21.064  0.00  0.00    +0.000 HD
BRANCH   8  11
ATOM     11  C   UNL     1      -0.501  10.598  20.894  0.00  0.00    +0.000 A 
ATOM     12  C   UNL     1      -1.282  11.750  20.732  0.00  0.00    +0.000 A 
ATOM     13  C   UNL     1      -1.953  12.299  21.835  0.00  0.00    +0.000 A 
ATOM     14  C   UNL     1      -1.856  11.704  23.092  0.00  0.00    +0.000 A 
ATOM     15  C   UNL     1      -1.079  10.561  23.261  0.00  0.00    +0.000 A 
ATOM     16  C   UNL     1      -0.406  10.010  22.167  0.00  0.00    +0.000 A 
ENDBRANCH   8  11
ENDBRANCH   5   7
BRANCH   1  17
ATOM     17  C   UNL     1       3.110   4.569  18.994  0.00  0.00    +0.000 C 
ATOM     18  C   UNL     1       2.432   4.284  20.347  0.00  0.00    +0.000 C 
BRANCH  17  19
ATOM     19  N   UNL     1       4.557   4.155  18.953  0.00  0.00    +0.000 N 
ATOM     20  C   UNL     1       4.863   2.893  19.654  0.00  0.00    +0.000 C 
BRANCH  19  24
ATOM     21  C   UNL     1       8.253   7.528  18.615  0.00  0.00    +0.000 C 
ATOM     22  C   UNL     1       7.396   6.482  17.938  0.00  0.00    +0.000 A 
ATOM     23  C   UNL     1       6.411   5.747  18.786  0.00  0.00    +0.000 A 
ATOM     24  C   UNL     1       5.564   4.866  18.205  0.00  0.00    +0.000 A 
ATOM     25  N   UNL     1       5.751   4.680  16.792  0.00  0.00    +0.000 N 
ATOM     26  N   UNL     1       5.118   3.851  15.907  0.00  0.00    +0.000 NA
ATOM     27  C   UNL     1       5.763   4.083  14.769  0.00  0.00    +0.000 A 
ATOM     28  N   UNL     1       6.763   4.990  14.824  0.00  0.00    +0.000 NA
ATOM     29  C   UNL     1       6.756   5.378  16.081  0.00  0.00    +0.000 A 
ATOM     30  N   UNL     1       7.567   6.299  16.668  0.00  0.00    +0.000 NA
ENDBRANCH  19  24
ENDBRANCH  17  19
ENDBRANCH   1  17
TORSDOF 5
ENDMDL
MODEL 8
REMARK VINA RESULT:      -7.7      4.308     10.338
REMARK  Name = 
REMARK  8 active torsions:
REMARK  status: ('A' for Active; 'I' for Inactive)
REMARK    1  A    between atoms: C_1  and  C_2
REMARK    2  A    between atoms: C_4  and  N_5
REMARK    3  A    between atoms: N_5  and  C_6
REMARK    4  A    between atoms: N_5  and  C_7
REMARK    5  A    between atoms: C_7  and  C_8
REMARK    6  A    between atoms: C_7  and  C_9
REMARK    7  A    between atoms: C_13  and  N_14
REMARK    8  A    between atoms: C_15  and  C_17
REMARK                            x       y       z     vdW  Elec       q    Type
REMARK                         _______ _______ _______ _____ _____    ______ ____
ROOT
ATOM      1  C   UNL     1      -0.457  10.415  20.417  0.00  0.00    +0.000 A 
ATOM      2  C   UNL     1      -0.447  10.198  21.801  0.00  0.00    +0.000 A 
ATOM      3  C   UNL     1       0.438   9.283  22.370  0.00  0.00    +0.000 A 
ATOM      4  C   UNL     1       1.324   8.562  21.570  0.00  0.00    +0.000 A 
ATOM      5  C   UNL     1       1.339   8.737  20.185  0.00  0.00    +0.000 A 
ATOM      6  C   UNL     1       0.457   9.678  19.625  0.00  0.00    +0.000 A 
ENDROOT
BRANCH   5   7
ATOM      7  N   UNL     1       2.189   8.008  19.311  0.00  0.00    +0.000 N 
ATOM      8  C   UNL     1       2.433   6.640  19.345  0.00  0.00    +0.000 C 
ATOM      9  O   UNL     1       1.958   5.845  20.149  0.00  0.00    +0.000 OA
ATOM     10  H   UNL     1       2.576   8.536  18.541  0.00  0.00    +0.000 HD
BRANCH   8  11
ATOM     11  C   UNL     1       3.339   6.083  18.294  0.00  0.00    +0.000 A 
ATOM     12  C   UNL     1       3.429   4.716  18.000  0.00  0.00    +0.000 A 
ATOM     13  C   UNL     1       4.251   4.281  16.951  0.00  0.00    +0.000 A 
ATOM     14  C   UNL     1       4.976   5.198  16.190  0.00  0.00    +0.000 A 
ATOM     15  C   UNL     1       4.894   6.558  16.478  0.00  0.00    +0.000 A 
ATOM     16  C   UNL     1       4.078   6.998  17.525  0.00  0.00    +0.000 A 
ENDBRANCH   8  11
ENDBRANCH   5   7
BRANCH   1  17
ATOM     17  C   UNL     1      -1.375  11.446  19.760  0.00  0.00    +0.000 C 
ATOM     18  C   UNL     1      -0.744  11.943  18.446  0.00  0.00    +0.000 C 
BRANCH  17  19
ATOM     19  N   UNL     1      -1.771  12.562  20.691  0.00  0.00    +0.000 N 
ATOM     20  C   UNL     1      -0.828  13.695  20.740  0.00  0.00    +0.000 C 
BRANCH  19  24
ATOM     21  C   UNL     1      -4.426  12.519  24.944  0.00  0.00    +0.000 C 
ATOM     22  C   UNL     1      -4.413  12.591  23.434  0.00  0.00    +0.000 A 
ATOM     23  C   UNL     1      -3.081  12.612  22.760  0.00  0.00    +0.000 A 
ATOM     24  C   UNL     1      -3.021  12.588  21.408  0.00  0.00    +0.000 A 
ATOM     25  N   UNL     1      -4.295  12.606  20.741  0.00  0.00    +0.000 N 
ATOM     26  N   UNL     1      -4.607  12.633  19.409  0.00  0.00    +0.000 NA
ATOM     27  C   UNL     1      -5.933  12.700  19.417  0.00  0.00    +0.000 A 
ATOM     28  N   UNL     1      -6.524  12.718  20.632  0.00  0.00    +0.000 NA
ATOM     29  C   UNL     1      -5.509  12.647  21.466  0.00  0.00    +0.000 A 
ATOM     30  N   UNL     1      -5.555  12.619  22.826  0.00  0.00    +0.000 NA
ENDBRANCH  19  24
ENDBRANCH  17  19
ENDBRANCH   1  17
TORSDOF 5
ENDMDL
MODEL 9
REMARK VINA RESULT:      -7.7      3.841      9.635
REMARK  Name = 
REMARK  8 active torsions:
REMARK  status: ('A' for Active; 'I' for Inactive)
REMARK    1  A    between atoms: C_1  and  C_2
REMARK    2  A    between atoms: C_4  and  N_5
REMARK    3  A    between atoms: N_5  and  C_6
REMARK    4  A    between atoms: N_5  and  C_7
REMARK    5  A    between atoms: C_7  and  C_8
REMARK    6  A    between atoms: C_7  and  C_9
REMARK    7  A    between atoms: C_13  and  N_14
REMARK    8  A    between atoms: C_15  and  C_17
REMARK                            x       y       z     vdW  Elec       q    Type
REMARK                         _______ _______ _______ _____ _____    ______ ____
ROOT
ATOM      1  C   UNL     1       0.381  10.711  20.363  0.00  0.00    +0.000 A 
ATOM      2  C   UNL     1      -0.243  10.976  21.590  0.00  0.00    +0.000 A 
ATOM      3  C   UNL     1      -0.230  10.029  22.613  0.00  0.00    +0.000 A 
ATOM      4  C   UNL     1       0.399   8.797  22.430  0.00  0.00    +0.000 A 
ATOM      5  C   UNL     1       1.021   8.485  21.220  0.00  0.00    +0.000 A 
ATOM      6  C   UNL     1       1.020   9.458  20.203  0.00  0.00    +0.000 A 
ENDROOT
BRANCH   5   7
ATOM      7  N   UNL     1       1.646   7.237  20.956  0.00  0.00    +0.000 N 
ATOM      8  C   UNL     1       2.245   6.849  19.764  0.00  0.00    +0.000 C 
ATOM      9  O   UNL     1       2.320   7.524  18.742  0.00  0.00    +0.000 OA
ATOM     10  H   UNL     1       1.732   6.618  21.749  0.00  0.00    +0.000 HD
BRANCH   8  11
ATOM     11  C   UNL     1       2.878   5.494  19.729  0.00  0.00    +0.000 A 
ATOM     12  C   UNL     1       4.196   5.270  19.311  0.00  0.00    +0.000 A 
ATOM     13  C   UNL     1       4.738   3.978  19.375  0.00  0.00    +0.000 A 
ATOM     14  C   UNL     1       3.978   2.913  19.859  0.00  0.00    +0.000 A 
ATOM     15  C   UNL     1       2.666   3.128  20.273  0.00  0.00    +0.000 A 
ATOM     16  C   UNL     1       2.120   4.413  20.210  0.00  0.00    +0.000 A 
ENDBRANCH   8  11
ENDBRANCH   5   7
BRANCH   1  17
ATOM     17  C   UNL     1       0.433  11.742  19.235  0.00  0.00    +0.000 C 
ATOM     18  C   UNL     1       1.673  12.639  19.408  0.00  0.00    +0.000 C 
BRANCH  17  19
ATOM     19  N   UNL     1      -0.849  12.518  19.085  0.00  0.00    +0.000 N 
ATOM     20  C   UNL     1      -0.788  13.916  19.551  0.00  0.00    +0.000 C 
BRANCH  19  24
ATOM     21  C   UNL     1      -3.136  10.207  15.268  0.00  0.00    +0.000 C 
ATOM     22  C   UNL     1      -3.237  10.848  16.633  0.00  0.00    +0.000 A 
ATOM     23  C   UNL     1      -1.971  11.329  17.262  0.00  0.00    +0.000 A 
ATOM     24  C   UNL     1      -2.025  11.987  18.443  0.00  0.00    +0.000 A 
ATOM     25  N   UNL     1      -3.338  12.104  19.017  0.00  0.00    +0.000 N 
ATOM     26  N   UNL     1      -3.752  12.655  20.199  0.00  0.00    +0.000 NA
ATOM     27  C   UNL     1      -5.057  12.407  20.200  0.00  0.00    +0.000 A 
ATOM     28  N   UNL     1      -5.541  11.744  19.126  0.00  0.00    +0.000 NA
ATOM     29  C   UNL     1      -4.476  11.560  18.375  0.00  0.00    +0.000 A 
ATOM     30  N   UNL     1      -4.415  10.946  17.163  0.00  0.00    +0.000 NA
ENDBRANCH  19  24
ENDBRANCH  17  19
ENDBRANCH   1  17
TORSDOF 5
ENDMDL
