MODEL 1
REMARK VINA RESULT:      -9.0      0.000      0.000
REMARK  Name = 
REMARK  4 active torsions:
REMARK  status: ('A' for Active; 'I' for Inactive)
REMARK    1  A    between atoms: C_2  and  C_13
REMARK    2  A    between atoms: C_16  and  S_17
REMARK    3  A    between atoms: S_17  and  N_20
REMARK    4  A    between atoms: N_20  and  C_21
REMARK                            x       y       z     vdW  Elec       q    Type
REMARK                         _______ _______ _______ _____ _____    ______ ____
ROOT
ATOM      1  C   UNL     1       2.094   7.203  19.872  0.00  0.00    +0.000 A 
ATOM      2  C   UNL     1       2.445   7.214  18.514  0.00  0.00    +0.000 A 
ATOM      3  C   UNL     1       2.933   6.049  17.906  0.00  0.00    +0.000 A 
ATOM      4  C   UNL     1       3.059   4.879  18.663  0.00  0.00    +0.000 A 
ATOM      5  C   UNL     1       2.723   4.872  20.022  0.00  0.00    +0.000 A 
ATOM      6  C   UNL     1       2.249   6.038  20.632  0.00  0.00    +0.000 A 
ENDROOT
BRANCH   1   8
ATOM      7  O   UNL     1       1.346   8.462  21.702  0.00  0.00    +0.000 OA
ATOM      8  C   UNL     1       1.443   8.391  20.481  0.00  0.00    +0.000 C 
ATOM      9  N   UNL     1       0.963   9.320  19.579  0.00  0.00    +0.000 N 
ATOM     10  C   UNL     1       0.264  10.408  20.032  0.00  0.00    +0.000 A 
ATOM     11  N   UNL     1      -0.834  10.861  19.478  0.00  0.00    +0.000 NA
ATOM     12  C   UNL     1      -1.247  11.887  20.295  0.00  0.00    +0.000 A 
ATOM     13  C   UNL     1      -2.438  12.625  20.274  0.00  0.00    +0.000 A 
ATOM     14  C   UNL     1      -2.603  13.662  21.201  0.00  0.00    +0.000 A 
ATOM     15  C   UNL     1      -1.589  13.978  22.107  0.00  0.00    +0.000 A 
ATOM     16  C   UNL     1      -0.402  13.235  22.161  0.00  0.00    +0.000 A 
ATOM     17  C   UNL     1      -0.290  12.170  21.265  0.00  0.00    +0.000 A 
ATOM     18  N   UNL     1       0.645  11.178  21.101  0.00  0.00    +0.000 N 
ATOM     19  H   UNL     1       0.699   9.000  18.657  0.00  0.00    +0.000 HD
ATOM     20  H   UNL     1       1.472  11.030  21.661  0.00  0.00    +0.000 HD
ENDBRANCH   1   8
BRANCH   4  21
ATOM     21  S   UNL     1       3.490   3.334  17.879  0.00  0.00    +0.000 S 
ATOM     22  O   UNL     1       3.776   2.370  18.918  0.00  0.00    +0.000 OA
ATOM     23  O   UNL     1       2.488   3.066  16.869  0.00  0.00    +0.000 OA
BRANCH  21  24
ATOM     24  N   UNL     1       4.897   3.689  17.055  0.00  0.00    +0.000 N 
ATOM     25  H   UNL     1       5.135   3.095  16.265  0.00  0.00    +0.000 HD
BRANCH  24  26
ATOM     26  C   UNL     1       5.802   4.660  17.528  0.00  0.00    +0.000 A 
ATOM     27  C   UNL     1       6.281   4.627  18.838  0.00  0.00    +0.000 A 
ATOM     28  C   UNL     1       7.211   5.581  19.254  0.00  0.00    +0.000 A 
ATOM     29  C   UNL     1       7.652   6.553  18.359  0.00  0.00    +0.000 A 
ATOM     30  F   UNL     1       8.543   7.465  18.761  0.00  0.00    +0.000 F 
ATOM     31  C   UNL     1       7.189   6.586  17.051  0.00  0.00    +0.000 A 
ATOM     32  C   UNL     1       6.265   5.628  16.630  0.00  0.00    +0.000 A 
ENDBRANCH  24  26
ENDBRANCH  21  24
ENDBRANCH   4  21
TORSDOF 4
ENDMDL
MODEL 2
REMARK VINA RESULT:      -9.0      2.754      3.861
REMARK  Name = 
REMARK  4 active torsions:
REMARK  status: ('A' for Active; 'I' for Inactive)
REMARK    1  A    between atoms: C_2  and  C_13
REMARK    2  A    between atoms: C_16  and  S_17
REMARK    3  A    between atoms: S_17  and  N_20
REMARK    4  A    between atoms: N_20  and  C_21
REMARK                            x       y       z     vdW  Elec       q    Type
REMARK                         _______ _______ _______ _____ _____    ______ ____
ROOT
ATOM      1  C   UNL     1       2.562   7.637  18.679  0.00  0.00    +0.000 A 
ATOM      2  C   UNL     1       2.776   6.748  19.743  0.00  0.00    +0.000 A 
ATOM      3  C   UNL     1       3.782   5.776  19.654  0.00  0.00    +0.000 A 
ATOM      4  C   UNL     1       4.571   5.708  18.500  0.00  0.00    +0.000 A 
ATOM      5  C   UNL     1       4.348   6.585  17.432  0.00  0.00    +0.000 A 
ATOM      6  C   UNL     1       3.335   7.545  17.516  0.00  0.00    +0.000 A 
ENDROOT
BRANCH   1   8
ATOM      7  O   UNL     1       1.236   9.374  17.832  0.00  0.00    +0.000 OA
ATOM      8  C   UNL     1       1.597   8.757  18.829  0.00  0.00    +0.000 C 
ATOM      9  N   UNL     1       1.211   9.025  20.127  0.00  0.00    +0.000 N 
ATOM     10  C   UNL     1       0.396  10.096  20.386  0.00  0.00    +0.000 A 
ATOM     11  N   UNL     1       0.571  10.932  21.379  0.00  0.00    +0.000 NA
ATOM     12  C   UNL     1      -0.400  11.891  21.211  0.00  0.00    +0.000 A 
ATOM     13  C   UNL     1      -0.587  13.104  21.889  0.00  0.00    +0.000 A 
ATOM     14  C   UNL     1      -1.693  13.896  21.555  0.00  0.00    +0.000 A 
ATOM     15  C   UNL     1      -2.610  13.473  20.591  0.00  0.00    +0.000 A 
ATOM     16  C   UNL     1      -2.426  12.277  19.885  0.00  0.00    +0.000 A 
ATOM     17  C   UNL     1      -1.283  11.537  20.197  0.00  0.00    +0.000 A 
ATOM     18  N   UNL     1      -0.724  10.406  19.656  0.00  0.00    +0.000 N 
ATOM     19  H   UNL     1       1.848   8.787  20.875  0.00  0.00    +0.000 HD
ATOM     20  H   UNL     1      -1.064   9.885  18.861  0.00  0.00    +0.000 HD
ENDBRANCH   1   8
BRANCH   4  21
ATOM     21  S   UNL     1       5.982   4.616  18.432  0.00  0.00    +0.000 S 
ATOM     22  O   UNL     1       6.323   4.412  17.041  0.00  0.00    +0.000 OA
ATOM     23  O   UNL     1       6.962   5.114  19.374  0.00  0.00    +0.000 OA
BRANCH  21  24
ATOM     24  N   UNL     1       5.406   3.186  19.072  0.00  0.00    +0.000 N 
ATOM     25  H   UNL     1       6.094   2.522  19.418  0.00  0.00    +0.000 HD
BRANCH  24  26
ATOM     26  C   UNL     1       4.043   2.839  18.990  0.00  0.00    +0.000 A 
ATOM     27  C   UNL     1       3.264   2.688  20.137  0.00  0.00    +0.000 A 
ATOM     28  C   UNL     1       1.906   2.388  20.012  0.00  0.00    +0.000 A 
ATOM     29  C   UNL     1       1.345   2.243  18.745  0.00  0.00    +0.000 A 
ATOM     30  F   UNL     1       0.044   1.956  18.629  0.00  0.00    +0.000 F 
ATOM     31  C   UNL     1       2.110   2.402  17.599  0.00  0.00    +0.000 A 
ATOM     32  C   UNL     1       3.466   2.711  17.722  0.00  0.00    +0.000 A 
ENDBRANCH  24  26
ENDBRANCH  21  24
ENDBRANCH   4  21
TORSDOF 4
ENDMDL
MODEL 3
REMARK VINA RESULT:      -9.0      5.919      8.233
REMARK  Name = 
REMARK  4 active torsions:
REMARK  status: ('A' for Active; 'I' for Inactive)
REMARK    1  A    between atoms: C_2  and  C_13
REMARK    2  A    between atoms: C_16  and  S_17
REMARK    3  A    between atoms: S_17  and  N_20
REMARK    4  A    between atoms: N_20  and  C_21
REMARK                            x       y       z     vdW  Elec       q    Type
REMARK                         _______ _______ _______ _____ _____    ______ ____
ROOT
ATOM      1  C   UNL     1       8.356   8.538  18.408  0.00  0.00    +0.000 A 
ATOM      2  C   UNL     1       7.454   8.513  17.333  0.00  0.00    +0.000 A 
ATOM      3  C   UNL     1       6.757   7.335  17.028  0.00  0.00    +0.000 A 
ATOM      4  C   UNL     1       6.966   6.192  17.808  0.00  0.00    +0.000 A 
ATOM      5  C   UNL     1       7.877   6.212  18.871  0.00  0.00    +0.000 A 
ATOM      6  C   UNL     1       8.581   7.383  19.166  0.00  0.00    +0.000 A 
ENDROOT
BRANCH   1   8
ATOM      7  O   UNL     1       9.205  10.021  20.011  0.00  0.00    +0.000 OA
ATOM      8  C   UNL     1       8.984   9.818  18.821  0.00  0.00    +0.000 C 
ATOM      9  N   UNL     1       9.238  10.703  17.792  0.00  0.00    +0.000 N 
ATOM     10  C   UNL     1       9.731  11.950  18.075  0.00  0.00    +0.000 A 
ATOM     11  N   UNL     1       9.306  13.055  17.514  0.00  0.00    +0.000 NA
ATOM     12  C   UNL     1       9.994  14.063  18.148  0.00  0.00    +0.000 A 
ATOM     13  C   UNL     1       9.829  15.452  18.060  0.00  0.00    +0.000 A 
ATOM     14  C   UNL     1      10.697  16.278  18.785  0.00  0.00    +0.000 A 
ATOM     15  C   UNL     1      11.728  15.733  19.553  0.00  0.00    +0.000 A 
ATOM     16  C   UNL     1      11.893  14.347  19.674  0.00  0.00    +0.000 A 
ATOM     17  C   UNL     1      10.976  13.547  18.987  0.00  0.00    +0.000 A 
ATOM     18  N   UNL     1      10.755  12.192  18.956  0.00  0.00    +0.000 N 
ATOM     19  H   UNL     1       8.660  10.653  16.964  0.00  0.00    +0.000 HD
ATOM     20  H   UNL     1      11.249  11.488  19.483  0.00  0.00    +0.000 HD
ENDBRANCH   1   8
BRANCH   4  21
ATOM     21  S   UNL     1       5.956   4.738  17.572  0.00  0.00    +0.000 S 
ATOM     22  O   UNL     1       6.390   4.086  16.356  0.00  0.00    +0.000 OA
ATOM     23  O   UNL     1       5.923   4.024  18.831  0.00  0.00    +0.000 OA
BRANCH  21  24
ATOM     24  N   UNL     1       4.422   5.355  17.348  0.00  0.00    +0.000 N 
ATOM     25  H   UNL     1       4.335   6.179  16.759  0.00  0.00    +0.000 HD
BRANCH  24  26
ATOM     26  C   UNL     1       3.317   4.862  18.071  0.00  0.00    +0.000 A 
ATOM     27  C   UNL     1       2.596   3.754  17.625  0.00  0.00    +0.000 A 
ATOM     28  C   UNL     1       1.537   3.268  18.393  0.00  0.00    +0.000 A 
ATOM     29  C   UNL     1       1.210   3.894  19.594  0.00  0.00    +0.000 A 
ATOM     30  F   UNL     1       0.194   3.426  20.327  0.00  0.00    +0.000 F 
ATOM     31  C   UNL     1       1.929   4.990  20.050  0.00  0.00    +0.000 A 
ATOM     32  C   UNL     1       2.995   5.472  19.288  0.00  0.00    +0.000 A 
ENDBRANCH  24  26
ENDBRANCH  21  24
ENDBRANCH   4  21
TORSDOF 4
ENDMDL
MODEL 4
REMARK VINA RESULT:      -8.9      0.676      1.128
REMARK  Name = 
REMARK  4 active torsions:
REMARK  status: ('A' for Active; 'I' for Inactive)
REMARK    1  A    between atoms: C_2  and  C_13
REMARK    2  A    between atoms: C_16  and  S_17
REMARK    3  A    between atoms: S_17  and  N_20
REMARK    4  A    between atoms: N_20  and  C_21
REMARK                            x       y       z     vdW  Elec       q    Type
REMARK                         _______ _______ _______ _____ _____    ______ ____
ROOT
ATOM      1  C   UNL     1       1.885   7.264  20.025  0.00  0.00    +0.000 A 
ATOM      2  C   UNL     1       2.283   7.206  18.680  0.00  0.00    +0.000 A 
ATOM      3  C   UNL     1       2.644   5.979  18.108  0.00  0.00    +0.000 A 
ATOM      4  C   UNL     1       2.598   4.817  18.886  0.00  0.00    +0.000 A 
ATOM      5  C   UNL     1       2.216   4.877  20.231  0.00  0.00    +0.000 A 
ATOM      6  C   UNL     1       1.868   6.103  20.806  0.00  0.00    +0.000 A 
ENDROOT
BRANCH   1   8
ATOM      7  O   UNL     1       1.432   8.722  21.802  0.00  0.00    +0.000 OA
ATOM      8  C   UNL     1       1.364   8.534  20.592  0.00  0.00    +0.000 C 
ATOM      9  N   UNL     1       0.805   9.398  19.672  0.00  0.00    +0.000 N 
ATOM     10  C   UNL     1       0.213  10.557  20.101  0.00  0.00    +0.000 A 
ATOM     11  N   UNL     1      -0.931  11.011  19.650  0.00  0.00    +0.000 NA
ATOM     12  C   UNL     1      -1.194  12.127  20.408  0.00  0.00    +0.000 A 
ATOM     13  C   UNL     1      -2.349  12.919  20.466  0.00  0.00    +0.000 A 
ATOM     14  C   UNL     1      -2.352  14.044  21.300  0.00  0.00    +0.000 A 
ATOM     15  C   UNL     1      -1.216  14.392  22.034  0.00  0.00    +0.000 A 
ATOM     16  C   UNL     1      -0.061  13.599  22.010  0.00  0.00    +0.000 A 
ATOM     17  C   UNL     1      -0.108  12.451  21.216  0.00  0.00    +0.000 A 
ATOM     18  N   UNL     1       0.760  11.403  21.032  0.00  0.00    +0.000 N 
ATOM     19  H   UNL     1       0.410   9.008  18.826  0.00  0.00    +0.000 HD
ATOM     20  H   UNL     1       1.647  11.266  21.494  0.00  0.00    +0.000 HD
ENDBRANCH   1   8
BRANCH   4  21
ATOM     21  S   UNL     1       2.862   3.216  18.140  0.00  0.00    +0.000 S 
ATOM     22  O   UNL     1       2.257   2.219  18.995  0.00  0.00    +0.000 OA
ATOM     23  O   UNL     1       2.496   3.323  16.744  0.00  0.00    +0.000 OA
BRANCH  21  24
ATOM     24  N   UNL     1       4.521   3.035  18.173  0.00  0.00    +0.000 N 
ATOM     25  H   UNL     1       4.885   2.157  18.534  0.00  0.00    +0.000 HD
BRANCH  24  26
ATOM     26  C   UNL     1       5.385   4.106  17.870  0.00  0.00    +0.000 A 
ATOM     27  C   UNL     1       5.575   4.533  16.555  0.00  0.00    +0.000 A 
ATOM     28  C   UNL     1       6.404   5.628  16.301  0.00  0.00    +0.000 A 
ATOM     29  C   UNL     1       7.030   6.281  17.360  0.00  0.00    +0.000 A 
ATOM     30  F   UNL     1       7.824   7.329  17.113  0.00  0.00    +0.000 F 
ATOM     31  C   UNL     1       6.838   5.869  18.671  0.00  0.00    +0.000 A 
ATOM     32  C   UNL     1       6.002   4.781  18.929  0.00  0.00    +0.000 A 
ENDBRANCH  24  26
ENDBRANCH  21  24
ENDBRANCH   4  21
TORSDOF 4
ENDMDL
MODEL 5
REMARK VINA RESULT:      -8.9      6.158      8.460
REMARK  Name = 
REMARK  4 active torsions:
REMARK  status: ('A' for Active; 'I' for Inactive)
REMARK    1  A    between atoms: C_2  and  C_13
REMARK    2  A    between atoms: C_16  and  S_17
REMARK    3  A    between atoms: S_17  and  N_20
REMARK    4  A    between atoms: N_20  and  C_21
REMARK                            x       y       z     vdW  Elec       q    Type
REMARK                         _______ _______ _______ _____ _____    ______ ____
ROOT
ATOM      1  C   UNL     1       8.426   8.820  18.553  0.00  0.00    +0.000 A 
ATOM      2  C   UNL     1       8.646   7.648  19.292  0.00  0.00    +0.000 A 
ATOM      3  C   UNL     1       8.101   6.432  18.858  0.00  0.00    +0.000 A 
ATOM      4  C   UNL     1       7.343   6.398  17.682  0.00  0.00    +0.000 A 
ATOM      5  C   UNL     1       7.110   7.570  16.953  0.00  0.00    +0.000 A 
ATOM      6  C   UNL     1       7.643   8.785  17.393  0.00  0.00    +0.000 A 
ENDROOT
BRANCH   1   8
ATOM      7  O   UNL     1       9.329  10.316  20.114  0.00  0.00    +0.000 OA
ATOM      8  C   UNL     1       9.120  10.078  18.929  0.00  0.00    +0.000 C 
ATOM      9  N   UNL     1       9.447  10.902  17.871  0.00  0.00    +0.000 N 
ATOM     10  C   UNL     1      10.007  12.130  18.114  0.00  0.00    +0.000 A 
ATOM     11  N   UNL     1       9.659  13.233  17.500  0.00  0.00    +0.000 NA
ATOM     12  C   UNL     1      10.392  14.224  18.109  0.00  0.00    +0.000 A 
ATOM     13  C   UNL     1      10.312  15.616  17.962  0.00  0.00    +0.000 A 
ATOM     14  C   UNL     1      11.213  16.420  18.672  0.00  0.00    +0.000 A 
ATOM     15  C   UNL     1      12.194  15.848  19.484  0.00  0.00    +0.000 A 
ATOM     16  C   UNL     1      12.274  14.460  19.664  0.00  0.00    +0.000 A 
ATOM     17  C   UNL     1      11.325  13.688  18.990  0.00  0.00    +0.000 A 
ATOM     18  N   UNL     1      11.025  12.348  19.008  0.00  0.00    +0.000 N 
ATOM     19  H   UNL     1       8.884  10.853  17.033  0.00  0.00    +0.000 HD
ATOM     20  H   UNL     1      11.467  11.638  19.573  0.00  0.00    +0.000 HD
ENDBRANCH   1   8
BRANCH   4  21
ATOM     21  S   UNL     1       6.799   4.841  16.999  0.00  0.00    +0.000 S 
ATOM     22  O   UNL     1       5.828   5.121  15.965  0.00  0.00    +0.000 OA
ATOM     23  O   UNL     1       7.982   4.054  16.718  0.00  0.00    +0.000 OA
BRANCH  21  24
ATOM     24  N   UNL     1       6.037   4.092  18.281  0.00  0.00    +0.000 N 
ATOM     25  H   UNL     1       6.630   3.655  18.982  0.00  0.00    +0.000 HD
BRANCH  24  26
ATOM     26  C   UNL     1       4.638   3.926  18.311  0.00  0.00    +0.000 A 
ATOM     27  C   UNL     1       3.802   4.913  18.834  0.00  0.00    +0.000 A 
ATOM     28  C   UNL     1       2.419   4.730  18.803  0.00  0.00    +0.000 A 
ATOM     29  C   UNL     1       1.888   3.566  18.251  0.00  0.00    +0.000 A 
ATOM     30  F   UNL     1       0.562   3.394  18.224  0.00  0.00    +0.000 F 
ATOM     31  C   UNL     1       2.711   2.584  17.720  0.00  0.00    +0.000 A 
ATOM     32  C   UNL     1       4.095   2.769  17.741  0.00  0.00    +0.000 A 
ENDBRANCH  24  26
ENDBRANCH  21  24
ENDBRANCH   4  21
TORSDOF 4
ENDMDL
MODEL 6
REMARK VINA RESULT:      -8.8      5.910      8.006
REMARK  Name = 
REMARK  4 active torsions:
REMARK  status: ('A' for Active; 'I' for Inactive)
REMARK    1  A    between atoms: C_2  and  C_13
REMARK    2  A    between atoms: C_16  and  S_17
REMARK    3  A    between atoms: S_17  and  N_20
REMARK    4  A    between atoms: N_20  and  C_21
REMARK                            x       y       z     vdW  Elec       q    Type
REMARK                         _______ _______ _______ _____ _____    ______ ____
ROOT
ATOM      1  C   UNL     1       8.261   8.585  18.329  0.00  0.00    +0.000 A 
ATOM      2  C   UNL     1       7.293   8.526  17.316  0.00  0.00    +0.000 A 
ATOM      3  C   UNL     1       6.612   7.327  17.064  0.00  0.00    +0.000 A 
ATOM      4  C   UNL     1       6.904   6.196  17.835  0.00  0.00    +0.000 A 
ATOM      5  C   UNL     1       7.881   6.250  18.836  0.00  0.00    +0.000 A 
ATOM      6  C   UNL     1       8.569   7.443  19.078  0.00  0.00    +0.000 A 
ENDROOT
BRANCH   1   8
ATOM      7  O   UNL     1       9.434  10.002  19.782  0.00  0.00    +0.000 OA
ATOM      8  C   UNL     1       8.878   9.886  18.694  0.00  0.00    +0.000 C 
ATOM      9  N   UNL     1       8.732  10.885  17.753  0.00  0.00    +0.000 N 
ATOM     10  C   UNL     1       9.183  12.150  18.028  0.00  0.00    +0.000 A 
ATOM     11  N   UNL     1       8.516  13.245  17.758  0.00  0.00    +0.000 NA
ATOM     12  C   UNL     1       9.279  14.262  18.280  0.00  0.00    +0.000 A 
ATOM     13  C   UNL     1       8.982  15.625  18.416  0.00  0.00    +0.000 A 
ATOM     14  C   UNL     1       9.958  16.476  18.949  0.00  0.00    +0.000 A 
ATOM     15  C   UNL     1      11.216  15.986  19.306  0.00  0.00    +0.000 A 
ATOM     16  C   UNL     1      11.523  14.623  19.202  0.00  0.00    +0.000 A 
ATOM     17  C   UNL     1      10.510  13.789  18.724  0.00  0.00    +0.000 A 
ATOM     18  N   UNL     1      10.403  12.426  18.592  0.00  0.00    +0.000 N 
ATOM     19  H   UNL     1       7.934  10.846  17.132  0.00  0.00    +0.000 HD
ATOM     20  H   UNL     1      11.091  11.738  18.859  0.00  0.00    +0.000 HD
ENDBRANCH   1   8
BRANCH   4  21
ATOM     21  S   UNL     1       5.923   4.712  17.674  0.00  0.00    +0.000 S 
ATOM     22  O   UNL     1       6.300   4.060  16.439  0.00  0.00    +0.000 OA
ATOM     23  O   UNL     1       5.988   4.010  18.938  0.00  0.00    +0.000 OA
BRANCH  21  24
ATOM     24  N   UNL     1       4.361   5.284  17.539  0.00  0.00    +0.000 N 
ATOM     25  H   UNL     1       4.233   6.180  17.075  0.00  0.00    +0.000 HD
BRANCH  24  26
ATOM     26  C   UNL     1       3.284   4.642  18.181  0.00  0.00    +0.000 A 
ATOM     27  C   UNL     1       2.713   5.169  19.340  0.00  0.00    +0.000 A 
ATOM     28  C   UNL     1       1.618   4.528  19.920  0.00  0.00    +0.000 A 
ATOM     29  C   UNL     1       1.106   3.370  19.338  0.00  0.00    +0.000 A 
ATOM     30  F   UNL     1       0.057   2.758  19.897  0.00  0.00    +0.000 F 
ATOM     31  C   UNL     1       1.662   2.845  18.180  0.00  0.00    +0.000 A 
ATOM     32  C   UNL     1       2.752   3.490  17.593  0.00  0.00    +0.000 A 
ENDBRANCH  24  26
ENDBRANCH  21  24
ENDBRANCH   4  21
TORSDOF 4
ENDMDL
MODEL 7
REMARK VINA RESULT:      -8.8      2.817      3.872
REMARK  Name = 
REMARK  4 active torsions:
REMARK  status: ('A' for Active; 'I' for Inactive)
REMARK    1  A    between atoms: C_2  and  C_13
REMARK    2  A    between atoms: C_16  and  S_17
REMARK    3  A    between atoms: S_17  and  N_20
REMARK    4  A    between atoms: N_20  and  C_21
REMARK                            x       y       z     vdW  Elec       q    Type
REMARK                         _______ _______ _______ _____ _____    ______ ____
ROOT
ATOM      1  C   UNL     1       2.836   7.642  18.667  0.00  0.00    +0.000 A 
ATOM      2  C   UNL     1       3.393   7.757  17.384  0.00  0.00    +0.000 A 
ATOM      3  C   UNL     1       4.399   6.872  16.974  0.00  0.00    +0.000 A 
ATOM      4  C   UNL     1       4.836   5.873  17.851  0.00  0.00    +0.000 A 
ATOM      5  C   UNL     1       4.292   5.768  19.137  0.00  0.00    +0.000 A 
ATOM      6  C   UNL     1       3.298   6.660  19.550  0.00  0.00    +0.000 A 
ENDROOT
BRANCH   1   8
ATOM      7  O   UNL     1       1.306   8.498  20.222  0.00  0.00    +0.000 OA
ATOM      8  C   UNL     1       1.673   8.482  19.051  0.00  0.00    +0.000 C 
ATOM      9  N   UNL     1       1.077   9.164  18.010  0.00  0.00    +0.000 N 
ATOM     10  C   UNL     1      -0.060   9.896  18.238  0.00  0.00    +0.000 A 
ATOM     11  N   UNL     1      -1.106   9.897  17.450  0.00  0.00    +0.000 NA
ATOM     12  C   UNL     1      -2.036  10.677  18.096  0.00  0.00    +0.000 A 
ATOM     13  C   UNL     1      -3.385  10.901  17.790  0.00  0.00    +0.000 A 
ATOM     14  C   UNL     1      -4.119  11.786  18.591  0.00  0.00    +0.000 A 
ATOM     15  C   UNL     1      -3.512  12.458  19.653  0.00  0.00    +0.000 A 
ATOM     16  C   UNL     1      -2.171  12.228  19.991  0.00  0.00    +0.000 A 
ATOM     17  C   UNL     1      -1.482  11.296  19.212  0.00  0.00    +0.000 A 
ATOM     18  N   UNL     1      -0.229  10.742  19.305  0.00  0.00    +0.000 N 
ATOM     19  H   UNL     1       1.151   8.777  17.078  0.00  0.00    +0.000 HD
ATOM     20  H   UNL     1       0.457  10.917  20.025  0.00  0.00    +0.000 HD
ENDBRANCH   1   8
BRANCH   4  21
ATOM     21  S   UNL     1       5.972   4.613  17.295  0.00  0.00    +0.000 S 
ATOM     22  O   UNL     1       6.561   5.059  16.051  0.00  0.00    +0.000 OA
ATOM     23  O   UNL     1       6.802   4.248  18.424  0.00  0.00    +0.000 OA
BRANCH  21  24
ATOM     24  N   UNL     1       4.988   3.298  16.998  0.00  0.00    +0.000 N 
ATOM     25  H   UNL     1       5.256   2.681  16.235  0.00  0.00    +0.000 HD
BRANCH  24  26
ATOM     26  C   UNL     1       3.755   3.137  17.660  0.00  0.00    +0.000 A 
ATOM     27  C   UNL     1       2.575   3.659  17.130  0.00  0.00    +0.000 A 
ATOM     28  C   UNL     1       1.366   3.438  17.792  0.00  0.00    +0.000 A 
ATOM     29  C   UNL     1       1.351   2.700  18.974  0.00  0.00    +0.000 A 
ATOM     30  F   UNL     1       0.191   2.491  19.606  0.00  0.00    +0.000 F 
ATOM     31  C   UNL     1       2.518   2.168  19.502  0.00  0.00    +0.000 A 
ATOM     32  C   UNL     1       3.727   2.380  18.836  0.00  0.00    +0.000 A 
ENDBRANCH  24  26
ENDBRANCH  21  24
ENDBRANCH   4  21
TORSDOF 4
ENDMDL
MODEL 8
REMARK VINA RESULT:      -8.8      1.098      1.708
REMARK  Name = 
REMARK  4 active torsions:
REMARK  status: ('A' for Active; 'I' for Inactive)
REMARK    1  A    between atoms: C_2  and  C_13
REMARK    2  A    between atoms: C_16  and  S_17
REMARK    3  A    between atoms: S_17  and  N_20
REMARK    4  A    between atoms: N_20  and  C_21
REMARK                            x       y       z     vdW  Elec       q    Type
REMARK                         _______ _______ _______ _____ _____    ______ ____
ROOT
ATOM      1  C   UNL     1       1.984   7.576  19.471  0.00  0.00    +0.000 A 
ATOM      2  C   UNL     1       2.553   7.259  18.228  0.00  0.00    +0.000 A 
ATOM      3  C   UNL     1       3.109   5.990  18.014  0.00  0.00    +0.000 A 
ATOM      4  C   UNL     1       3.084   5.046  19.047  0.00  0.00    +0.000 A 
ATOM      5  C   UNL     1       2.530   5.367  20.291  0.00  0.00    +0.000 A 
ATOM      6  C   UNL     1       1.987   6.637  20.509  0.00  0.00    +0.000 A 
ENDROOT
BRANCH   1   8
ATOM      7  O   UNL     1       1.475   9.783  18.866  0.00  0.00    +0.000 OA
ATOM      8  C   UNL     1       1.267   8.864  19.653  0.00  0.00    +0.000 C 
ATOM      9  N   UNL     1       0.430   8.916  20.749  0.00  0.00    +0.000 N 
ATOM     10  C   UNL     1      -0.209  10.088  21.062  0.00  0.00    +0.000 A 
ATOM     11  N   UNL     1      -0.316  10.568  22.276  0.00  0.00    +0.000 NA
ATOM     12  C   UNL     1      -0.934  11.786  22.124  0.00  0.00    +0.000 A 
ATOM     13  C   UNL     1      -1.163  12.799  23.066  0.00  0.00    +0.000 A 
ATOM     14  C   UNL     1      -1.863  13.944  22.665  0.00  0.00    +0.000 A 
ATOM     15  C   UNL     1      -2.353  14.062  21.363  0.00  0.00    +0.000 A 
ATOM     16  C   UNL     1      -2.112  13.073  20.400  0.00  0.00    +0.000 A 
ATOM     17  C   UNL     1      -1.361  11.970  20.812  0.00  0.00    +0.000 A 
ATOM     18  N   UNL     1      -0.843  10.888  20.145  0.00  0.00    +0.000 N 
ATOM     19  H   UNL     1       0.640   8.324  21.541  0.00  0.00    +0.000 HD
ATOM     20  H   UNL     1      -0.909  10.701  19.155  0.00  0.00    +0.000 HD
ENDBRANCH   1   8
BRANCH   4  21
ATOM     21  S   UNL     1       3.604   3.364  18.749  0.00  0.00    +0.000 S 
ATOM     22  O   UNL     1       3.049   2.532  19.793  0.00  0.00    +0.000 OA
ATOM     23  O   UNL     1       3.354   3.074  17.352  0.00  0.00    +0.000 OA
BRANCH  21  24
ATOM     24  N   UNL     1       5.263   3.428  18.920  0.00  0.00    +0.000 N 
ATOM     25  H   UNL     1       5.692   2.744  19.538  0.00  0.00    +0.000 HD
BRANCH  24  26
ATOM     26  C   UNL     1       6.020   4.480  18.368  0.00  0.00    +0.000 A 
ATOM     27  C   UNL     1       6.108   4.662  16.987  0.00  0.00    +0.000 A 
ATOM     28  C   UNL     1       6.831   5.743  16.481  0.00  0.00    +0.000 A 
ATOM     29  C   UNL     1       7.455   6.629  17.357  0.00  0.00    +0.000 A 
ATOM     30  F   UNL     1       8.147   7.663  16.868  0.00  0.00    +0.000 F 
ATOM     31  C   UNL     1       7.364   6.461  18.732  0.00  0.00    +0.000 A 
ATOM     32  C   UNL     1       6.634   5.385  19.241  0.00  0.00    +0.000 A 
ENDBRANCH  24  26
ENDBRANCH  21  24
ENDBRANCH   4  21
TORSDOF 4
ENDMDL
MODEL 9
REMARK VINA RESULT:      -8.8      1.024      1.389
REMARK  Name = 
REMARK  4 active torsions:
REMARK  status: ('A' for Active; 'I' for Inactive)
REMARK    1  A    between atoms: C_2  and  C_13
REMARK    2  A    between atoms: C_16  and  S_17
REMARK    3  A    between atoms: S_17  and  N_20
REMARK    4  A    between atoms: N_20  and  C_21
REMARK                            x       y       z     vdW  Elec       q    Type
REMARK                         _______ _______ _______ _____ _____    ______ ____
ROOT
ATOM      1  C   UNL     1       2.423   7.106  19.503  0.00  0.00    +0.000 A 
ATOM      2  C   UNL     1       2.795   7.374  18.177  0.00  0.00    +0.000 A 
ATOM      3  C   UNL     1       3.508   6.418  17.441  0.00  0.00    +0.000 A 
ATOM      4  C   UNL     1       3.837   5.196  18.039  0.00  0.00    +0.000 A 
ATOM      5  C   UNL     1       3.480   4.935  19.367  0.00  0.00    +0.000 A 
ATOM      6  C   UNL     1       2.781   5.894  20.105  0.00  0.00    +0.000 A 
ENDROOT
BRANCH   1   8
ATOM      7  O   UNL     1       1.071   7.720  21.316  0.00  0.00    +0.000 OA
ATOM      8  C   UNL     1       1.546   8.055  20.236  0.00  0.00    +0.000 C 
ATOM      9  N   UNL     1       1.315   9.253  19.591  0.00  0.00    +0.000 N 
ATOM     10  C   UNL     1       0.446  10.162  20.136  0.00  0.00    +0.000 A 
ATOM     11  N   UNL     1      -0.450  10.827  19.450  0.00  0.00    +0.000 NA
ATOM     12  C   UNL     1      -1.157  11.542  20.389  0.00  0.00    +0.000 A 
ATOM     13  C   UNL     1      -2.324  12.304  20.242  0.00  0.00    +0.000 A 
ATOM     14  C   UNL     1      -2.830  12.980  21.359  0.00  0.00    +0.000 A 
ATOM     15  C   UNL     1      -2.168  12.926  22.587  0.00  0.00    +0.000 A 
ATOM     16  C   UNL     1      -1.015  12.149  22.761  0.00  0.00    +0.000 A 
ATOM     17  C   UNL     1      -0.567  11.438  21.644  0.00  0.00    +0.000 A 
ATOM     18  N   UNL     1       0.430  10.513  21.462  0.00  0.00    +0.000 N 
ATOM     19  H   UNL     1       1.370   9.272  18.581  0.00  0.00    +0.000 HD
ATOM     20  H   UNL     1       1.049  10.145  22.169  0.00  0.00    +0.000 HD
ENDBRANCH   1   8
BRANCH   4  21
ATOM     21  S   UNL     1       4.570   3.884  17.074  0.00  0.00    +0.000 S 
ATOM     22  O   UNL     1       3.953   2.638  17.471  0.00  0.00    +0.000 OA
ATOM     23  O   UNL     1       4.567   4.310  15.690  0.00  0.00    +0.000 OA
BRANCH  21  24
ATOM     24  N   UNL     1       6.168   3.885  17.557  0.00  0.00    +0.000 N 
ATOM     25  H   UNL     1       6.586   2.985  17.777  0.00  0.00    +0.000 HD
BRANCH  24  26
ATOM     26  C   UNL     1       6.861   5.086  17.809  0.00  0.00    +0.000 A 
ATOM     27  C   UNL     1       6.893   6.114  16.866  0.00  0.00    +0.000 A 
ATOM     28  C   UNL     1       7.552   7.306  17.172  0.00  0.00    +0.000 A 
ATOM     29  C   UNL     1       8.168   7.457  18.412  0.00  0.00    +0.000 A 
ATOM     30  F   UNL     1       8.799   8.600  18.701  0.00  0.00    +0.000 F 
ATOM     31  C   UNL     1       8.132   6.443  19.359  0.00  0.00    +0.000 A 
ATOM     32  C   UNL     1       7.466   5.253  19.059  0.00  0.00    +0.000 A 
ENDBRANCH  24  26
ENDBRANCH  21  24
ENDBRANCH   4  21
TORSDOF 4
ENDMDL
