MODEL 1
REMARK VINA RESULT:      -8.0      0.000      0.000
REMARK  Name = 
REMARK  5 active torsions:
REMARK  status: ('A' for Active; 'I' for Inactive)
REMARK    1  A    between atoms: C_2  and  C_7
REMARK    2  A    between atoms: N_3  and  C_4
REMARK    3  A    between atoms: C_11  and  N_12
REMARK    4  A    between atoms: C_18  and  O_19
REMARK    5  A    between atoms: O_19  and  C_20
REMARK                            x       y       z     vdW  Elec       q    Type
REMARK                         _______ _______ _______ _____ _____    ______ ____
ROOT
ATOM      1  N   UNL     1       2.141   7.131  18.759  0.00  0.00    +0.000 N 
ATOM      2  C   UNL     1       1.778   7.294  20.081  0.00  0.00    +0.000 C 
ATOM      3  O   UNL     1       1.759   6.380  20.904  0.00  0.00    +0.000 OA
ATOM      4  N   UNL     1       1.491   8.595  20.477  0.00  0.00    +0.000 N 
ATOM      5  C   UNL     1       1.345   8.831  21.910  0.00  0.00    +0.000 C 
ATOM      6  C   UNL     1      -0.115   9.088  22.240  0.00  0.00    +0.000 C 
ATOM      7  C   UNL     1      -0.608  10.340  21.505  0.00  0.00    +0.000 C 
ATOM      8  C   UNL     1      -0.380  10.149  19.990  0.00  0.00    +0.000 C 
ATOM      9  C   UNL     1       1.055   9.714  19.641  0.00  0.00    +0.000 C 
ATOM     10  H   UNL     1       2.444   7.967  18.285  0.00  0.00    +0.000 HD
ENDROOT
BRANCH   1  15
ATOM     11  C   UNL     1       4.208   4.560  17.026  0.00  0.00    +0.000 A 
ATOM     12  C   UNL     1       3.387   3.430  17.124  0.00  0.00    +0.000 A 
ATOM     13  C   UNL     1       2.137   3.529  17.715  0.00  0.00    +0.000 A 
ATOM     14  C   UNL     1       1.708   4.753  18.225  0.00  0.00    +0.000 A 
ATOM     15  C   UNL     1       2.525   5.890  18.179  0.00  0.00    +0.000 A 
ATOM     16  C   UNL     1       3.775   5.795  17.543  0.00  0.00    +0.000 A 
BRANCH  11  18
ATOM     17  O   UNL     1       6.551   4.640  16.935  0.00  0.00    +0.000 OA
ATOM     18  C   UNL     1       5.512   4.378  16.336  0.00  0.00    +0.000 C 
ATOM     19  N   UNL     1       5.475   3.973  15.014  0.00  0.00    +0.000 N 
ATOM     20  H   UNL     1       4.589   3.953  14.529  0.00  0.00    +0.000 HD
BRANCH  19  21
ATOM     21  C   UNL     1       6.678   3.917  14.236  0.00  0.00    +0.000 C 
ATOM     22  C   UNL     1       7.128   5.082  13.402  0.00  0.00    +0.000 C 
ATOM     23  C   UNL     1       6.605   3.843  12.736  0.00  0.00    +0.000 C 
ENDBRANCH  19  21
ENDBRANCH  11  18
ENDBRANCH   1  15
BRANCH   7  24
ATOM     24  O   UNL     1       0.108  11.520  21.903  0.00  0.00    +0.000 OA
BRANCH  24  25
ATOM     25  C   UNL     1      -0.590  12.591  22.391  0.00  0.00    +0.000 A 
ATOM     26  C   UNL     1      -0.217  13.933  22.304  0.00  0.00    +0.000 A 
ATOM     27  C   UNL     1      -1.064  14.938  22.781  0.00  0.00    +0.000 A 
ATOM     28  C   UNL     1      -2.271  14.597  23.376  0.00  0.00    +0.000 A 
ATOM     29  F   UNL     1      -3.074  15.562  23.840  0.00  0.00    +0.000 F 
ATOM     30  C   UNL     1      -2.652  13.268  23.493  0.00  0.00    +0.000 A 
ATOM     31  C   UNL     1      -1.815  12.267  22.989  0.00  0.00    +0.000 A 
ENDBRANCH  24  25
ENDBRANCH   7  24
TORSDOF 5
ENDMDL
MODEL 2
REMARK VINA RESULT:      -7.9      1.761      2.325
REMARK  Name = 
REMARK  5 active torsions:
REMARK  status: ('A' for Active; 'I' for Inactive)
REMARK    1  A    between atoms: C_2  and  C_7
REMARK    2  A    between atoms: N_3  and  C_4
REMARK    3  A    between atoms: C_11  and  N_12
REMARK    4  A    between atoms: C_18  and  O_19
REMARK    5  A    between atoms: O_19  and  C_20
REMARK                            x       y       z     vdW  Elec       q    Type
REMARK                         _______ _______ _______ _____ _____    ______ ____
ROOT
ATOM      1  N   UNL     1       1.332   6.243  20.972  0.00  0.00    +0.000 N 
ATOM      2  C   UNL     1       1.446   7.489  20.386  0.00  0.00    +0.000 C 
ATOM      3  O   UNL     1       2.266   7.760  19.511  0.00  0.00    +0.000 OA
ATOM      4  N   UNL     1       0.517   8.439  20.790  0.00  0.00    +0.000 N 
ATOM      5  C   UNL     1       0.459   9.676  20.018  0.00  0.00    +0.000 C 
ATOM      6  C   UNL     1       1.034  10.819  20.836  0.00  0.00    +0.000 C 
ATOM      7  C   UNL     1       0.204  11.022  22.110  0.00  0.00    +0.000 C 
ATOM      8  C   UNL     1       0.177   9.696  22.902  0.00  0.00    +0.000 C 
ATOM      9  C   UNL     1      -0.235   8.484  22.045  0.00  0.00    +0.000 C 
ATOM     10  H   UNL     1       0.442   6.045  21.402  0.00  0.00    +0.000 HD
ENDROOT
BRANCH   1  15
ATOM     11  C   UNL     1       4.137   4.247  19.547  0.00  0.00    +0.000 A 
ATOM     12  C   UNL     1       3.875   2.978  20.080  0.00  0.00    +0.000 A 
ATOM     13  C   UNL     1       2.751   2.773  20.865  0.00  0.00    +0.000 A 
ATOM     14  C   UNL     1       1.892   3.837  21.134  0.00  0.00    +0.000 A 
ATOM     15  C   UNL     1       2.151   5.126  20.650  0.00  0.00    +0.000 A 
ATOM     16  C   UNL     1       3.270   5.321  19.821  0.00  0.00    +0.000 A 
BRANCH  11  18
ATOM     17  O   UNL     1       6.382   4.803  19.154  0.00  0.00    +0.000 OA
ATOM     18  C   UNL     1       5.337   4.369  18.678  0.00  0.00    +0.000 C 
ATOM     19  N   UNL     1       5.185   4.039  17.344  0.00  0.00    +0.000 N 
ATOM     20  H   UNL     1       4.258   3.867  16.981  0.00  0.00    +0.000 HD
BRANCH  19  21
ATOM     21  C   UNL     1       6.250   4.268  16.412  0.00  0.00    +0.000 C 
ATOM     22  C   UNL     1       6.118   5.273  15.303  0.00  0.00    +0.000 C 
ATOM     23  C   UNL     1       6.120   3.806  14.987  0.00  0.00    +0.000 C 
ENDBRANCH  19  21
ENDBRANCH  11  18
ENDBRANCH   1  15
BRANCH   7  24
ATOM     24  O   UNL     1      -1.157  11.379  21.820  0.00  0.00    +0.000 OA
BRANCH  24  25
ATOM     25  C   UNL     1      -1.800  12.271  22.633  0.00  0.00    +0.000 A 
ATOM     26  C   UNL     1      -3.098  12.151  23.133  0.00  0.00    +0.000 A 
ATOM     27  C   UNL     1      -3.608  13.103  24.020  0.00  0.00    +0.000 A 
ATOM     28  C   UNL     1      -2.830  14.195  24.383  0.00  0.00    +0.000 A 
ATOM     29  F   UNL     1      -3.326  15.109  25.225  0.00  0.00    +0.000 F 
ATOM     30  C   UNL     1      -1.545  14.345  23.881  0.00  0.00    +0.000 A 
ATOM     31  C   UNL     1      -1.028  13.376  23.016  0.00  0.00    +0.000 A 
ENDBRANCH  24  25
ENDBRANCH   7  24
TORSDOF 5
ENDMDL
MODEL 3
REMARK VINA RESULT:      -7.8      3.082      4.097
REMARK  Name = 
REMARK  5 active torsions:
REMARK  status: ('A' for Active; 'I' for Inactive)
REMARK    1  A    between atoms: C_2  and  C_7
REMARK    2  A    between atoms: N_3  and  C_4
REMARK    3  A    between atoms: C_11  and  N_12
REMARK    4  A    between atoms: C_18  and  O_19
REMARK    5  A    between atoms: O_19  and  C_20
REMARK                            x       y       z     vdW  Elec       q    Type
REMARK                         _______ _______ _______ _____ _____    ______ ____
ROOT
ATOM      1  N   UNL     1       4.100   6.245  18.447  0.00  0.00    +0.000 N 
ATOM      2  C   UNL     1       3.418   7.272  17.824  0.00  0.00    +0.000 C 
ATOM      3  O   UNL     1       3.763   7.774  16.756  0.00  0.00    +0.000 OA
ATOM      4  N   UNL     1       2.243   7.683  18.441  0.00  0.00    +0.000 N 
ATOM      5  C   UNL     1       1.382   8.587  17.684  0.00  0.00    +0.000 C 
ATOM      6  C   UNL     1       1.437   9.977  18.294  0.00  0.00    +0.000 C 
ATOM      7  C   UNL     1       0.922   9.938  19.738  0.00  0.00    +0.000 C 
ATOM      8  C   UNL     1       1.763   8.918  20.538  0.00  0.00    +0.000 C 
ATOM      9  C   UNL     1       1.870   7.545  19.849  0.00  0.00    +0.000 C 
ATOM     10  H   UNL     1       3.563   5.702  19.103  0.00  0.00    +0.000 HD
ENDROOT
BRANCH   1  15
ATOM     11  C   UNL     1       6.623   4.958  16.026  0.00  0.00    +0.000 A 
ATOM     12  C   UNL     1       7.670   4.592  16.881  0.00  0.00    +0.000 A 
ATOM     13  C   UNL     1       7.523   4.724  18.254  0.00  0.00    +0.000 A 
ATOM     14  C   UNL     1       6.337   5.236  18.776  0.00  0.00    +0.000 A 
ATOM     15  C   UNL     1       5.290   5.650  17.943  0.00  0.00    +0.000 A 
ATOM     16  C   UNL     1       5.427   5.478  16.554  0.00  0.00    +0.000 A 
BRANCH  11  18
ATOM     17  O   UNL     1       7.657   5.444  13.976  0.00  0.00    +0.000 OA
ATOM     18  C   UNL     1       6.845   4.742  14.571  0.00  0.00    +0.000 C 
ATOM     19  N   UNL     1       6.064   3.783  13.951  0.00  0.00    +0.000 N 
ATOM     20  H   UNL     1       5.292   3.373  14.457  0.00  0.00    +0.000 HD
BRANCH  19  21
ATOM     21  C   UNL     1       6.112   3.616  12.528  0.00  0.00    +0.000 C 
ATOM     22  C   UNL     1       4.881   3.280  11.736  0.00  0.00    +0.000 C 
ATOM     23  C   UNL     1       5.955   2.248  11.922  0.00  0.00    +0.000 C 
ENDBRANCH  19  21
ENDBRANCH  11  18
ENDBRANCH   1  15
BRANCH   7  24
ATOM     24  O   UNL     1      -0.450   9.518  19.814  0.00  0.00    +0.000 OA
BRANCH  24  25
ATOM     25  C   UNL     1      -1.378  10.128  19.015  0.00  0.00    +0.000 A 
ATOM     26  C   UNL     1      -1.951   9.598  17.858  0.00  0.00    +0.000 A 
ATOM     27  C   UNL     1      -2.948  10.299  17.174  0.00  0.00    +0.000 A 
ATOM     28  C   UNL     1      -3.350  11.547  17.630  0.00  0.00    +0.000 A 
ATOM     29  F   UNL     1      -4.298  12.220  16.967  0.00  0.00    +0.000 F 
ATOM     30  C   UNL     1      -2.779  12.103  18.766  0.00  0.00    +0.000 A 
ATOM     31  C   UNL     1      -1.801  11.386  19.463  0.00  0.00    +0.000 A 
ENDBRANCH  24  25
ENDBRANCH   7  24
TORSDOF 5
ENDMDL
MODEL 4
REMARK VINA RESULT:      -7.7      3.959     10.091
REMARK  Name = 
REMARK  5 active torsions:
REMARK  status: ('A' for Active; 'I' for Inactive)
REMARK    1  A    between atoms: C_2  and  C_7
REMARK    2  A    between atoms: N_3  and  C_4
REMARK    3  A    between atoms: C_11  and  N_12
REMARK    4  A    between atoms: C_18  and  O_19
REMARK    5  A    between atoms: O_19  and  C_20
REMARK                            x       y       z     vdW  Elec       q    Type
REMARK                         _______ _______ _______ _____ _____    ______ ____
ROOT
ATOM      1  N   UNL     1       1.219   8.232  21.471  0.00  0.00    +0.000 N 
ATOM      2  C   UNL     1       1.677   7.986  20.191  0.00  0.00    +0.000 C 
ATOM      3  O   UNL     1       1.555   8.776  19.257  0.00  0.00    +0.000 OA
ATOM      4  N   UNL     1       2.370   6.795  20.012  0.00  0.00    +0.000 N 
ATOM      5  C   UNL     1       3.070   6.624  18.743  0.00  0.00    +0.000 C 
ATOM      6  C   UNL     1       2.349   5.590  17.895  0.00  0.00    +0.000 C 
ATOM      7  C   UNL     1       2.340   4.235  18.612  0.00  0.00    +0.000 C 
ATOM      8  C   UNL     1       1.681   4.412  19.998  0.00  0.00    +0.000 C 
ATOM      9  C   UNL     1       2.280   5.573  20.813  0.00  0.00    +0.000 C 
ATOM     10  H   UNL     1       1.661   7.697  22.201  0.00  0.00    +0.000 HD
ENDROOT
BRANCH   1  15
ATOM     11  C   UNL     1       0.165  11.805  21.562  0.00  0.00    +0.000 A 
ATOM     12  C   UNL     1      -0.855  11.771  22.519  0.00  0.00    +0.000 A 
ATOM     13  C   UNL     1      -1.160  10.583  23.167  0.00  0.00    +0.000 A 
ATOM     14  C   UNL     1      -0.457   9.422  22.850  0.00  0.00    +0.000 A 
ATOM     15  C   UNL     1       0.540   9.418  21.866  0.00  0.00    +0.000 A 
ATOM     16  C   UNL     1       0.873  10.632  21.240  0.00  0.00    +0.000 A 
BRANCH  11  18
ATOM     17  O   UNL     1      -0.404  14.001  20.961  0.00  0.00    +0.000 OA
ATOM     18  C   UNL     1       0.459  13.127  20.949  0.00  0.00    +0.000 C 
ATOM     19  N   UNL     1       1.690  13.278  20.336  0.00  0.00    +0.000 N 
ATOM     20  H   UNL     1       2.276  12.467  20.201  0.00  0.00    +0.000 HD
BRANCH  19  21
ATOM     21  C   UNL     1       1.992  14.468  19.596  0.00  0.00    +0.000 C 
ATOM     22  C   UNL     1       2.636  14.406  18.240  0.00  0.00    +0.000 C 
ATOM     23  C   UNL     1       3.420  14.905  19.419  0.00  0.00    +0.000 C 
ENDBRANCH  19  21
ENDBRANCH  11  18
ENDBRANCH   1  15
BRANCH   7  24
ATOM     24  O   UNL     1       3.665   3.726  18.827  0.00  0.00    +0.000 OA
BRANCH  24  25
ATOM     25  C   UNL     1       4.612   3.902  17.855  0.00  0.00    +0.000 A 
ATOM     26  C   UNL     1       4.448   3.671  16.488  0.00  0.00    +0.000 A 
ATOM     27  C   UNL     1       5.479   3.965  15.590  0.00  0.00    +0.000 A 
ATOM     28  C   UNL     1       6.686   4.460  16.064  0.00  0.00    +0.000 A 
ATOM     29  F   UNL     1       7.674   4.731  15.202  0.00  0.00    +0.000 F 
ATOM     30  C   UNL     1       6.878   4.677  17.421  0.00  0.00    +0.000 A 
ATOM     31  C   UNL     1       5.836   4.408  18.313  0.00  0.00    +0.000 A 
ENDBRANCH  24  25
ENDBRANCH   7  24
TORSDOF 5
ENDMDL
MODEL 5
REMARK VINA RESULT:      -7.7      4.679     10.847
REMARK  Name = 
REMARK  5 active torsions:
REMARK  status: ('A' for Active; 'I' for Inactive)
REMARK    1  A    between atoms: C_2  and  C_7
REMARK    2  A    between atoms: N_3  and  C_4
REMARK    3  A    between atoms: C_11  and  N_12
REMARK    4  A    between atoms: C_18  and  O_19
REMARK    5  A    between atoms: O_19  and  C_20
REMARK                            x       y       z     vdW  Elec       q    Type
REMARK                         _______ _______ _______ _____ _____    ______ ____
ROOT
ATOM      1  N   UNL     1       1.946   8.749  17.733  0.00  0.00    +0.000 N 
ATOM      2  C   UNL     1       2.363   7.746  18.586  0.00  0.00    +0.000 C 
ATOM      3  O   UNL     1       1.984   7.636  19.751  0.00  0.00    +0.000 OA
ATOM      4  N   UNL     1       3.206   6.790  18.033  0.00  0.00    +0.000 N 
ATOM      5  C   UNL     1       3.463   5.596  18.833  0.00  0.00    +0.000 C 
ATOM      6  C   UNL     1       4.889   5.627  19.356  0.00  0.00    +0.000 C 
ATOM      7  C   UNL     1       5.879   5.629  18.185  0.00  0.00    +0.000 C 
ATOM      8  C   UNL     1       5.567   6.837  17.274  0.00  0.00    +0.000 C 
ATOM      9  C   UNL     1       4.084   6.928  16.870  0.00  0.00    +0.000 C 
ATOM     10  H   UNL     1       2.041   8.552  16.750  0.00  0.00    +0.000 HD
ENDROOT
BRANCH   1  15
ATOM     11  C   UNL     1      -1.256  10.568  18.299  0.00  0.00    +0.000 A 
ATOM     12  C   UNL     1      -0.805  11.747  18.903  0.00  0.00    +0.000 A 
ATOM     13  C   UNL     1       0.554  11.962  19.077  0.00  0.00    +0.000 A 
ATOM     14  C   UNL     1       1.466  10.993  18.663  0.00  0.00    +0.000 A 
ATOM     15  C   UNL     1       1.041   9.785  18.095  0.00  0.00    +0.000 A 
ATOM     16  C   UNL     1      -0.335   9.588  17.883  0.00  0.00    +0.000 A 
BRANCH  11  18
ATOM     17  O   UNL     1      -3.171   9.452  17.527  0.00  0.00    +0.000 OA
ATOM     18  C   UNL     1      -2.725  10.438  18.108  0.00  0.00    +0.000 C 
ATOM     19  N   UNL     1      -3.514  11.484  18.551  0.00  0.00    +0.000 N 
ATOM     20  H   UNL     1      -3.072  12.342  18.851  0.00  0.00    +0.000 HD
BRANCH  19  21
ATOM     21  C   UNL     1      -4.919  11.503  18.273  0.00  0.00    +0.000 C 
ATOM     22  C   UNL     1      -5.481  12.285  17.119  0.00  0.00    +0.000 C 
ATOM     23  C   UNL     1      -5.723  12.749  18.526  0.00  0.00    +0.000 C 
ENDBRANCH  19  21
ENDBRANCH  11  18
ENDBRANCH   1  15
BRANCH   7  24
ATOM     24  O   UNL     1       5.770   4.444  17.380  0.00  0.00    +0.000 OA
BRANCH  24  25
ATOM     25  C   UNL     1       6.159   4.490  16.069  0.00  0.00    +0.000 A 
ATOM     26  C   UNL     1       7.362   5.002  15.580  0.00  0.00    +0.000 A 
ATOM     27  C   UNL     1       7.666   4.919  14.218  0.00  0.00    +0.000 A 
ATOM     28  C   UNL     1       6.753   4.352  13.340  0.00  0.00    +0.000 A 
ATOM     29  F   UNL     1       7.045   4.283  12.035  0.00  0.00    +0.000 F 
ATOM     30  C   UNL     1       5.542   3.856  13.802  0.00  0.00    +0.000 A 
ATOM     31  C   UNL     1       5.252   3.916  15.168  0.00  0.00    +0.000 A 
ENDBRANCH  24  25
ENDBRANCH   7  24
TORSDOF 5
ENDMDL
MODEL 6
REMARK VINA RESULT:      -7.6      2.276      3.328
REMARK  Name = 
REMARK  5 active torsions:
REMARK  status: ('A' for Active; 'I' for Inactive)
REMARK    1  A    between atoms: C_2  and  C_7
REMARK    2  A    between atoms: N_3  and  C_4
REMARK    3  A    between atoms: C_11  and  N_12
REMARK    4  A    between atoms: C_18  and  O_19
REMARK    5  A    between atoms: O_19  and  C_20
REMARK                            x       y       z     vdW  Elec       q    Type
REMARK                         _______ _______ _______ _____ _____    ______ ____
ROOT
ATOM      1  N   UNL     1       3.943   6.285  18.325  0.00  0.00    +0.000 N 
ATOM      2  C   UNL     1       3.427   7.468  17.833  0.00  0.00    +0.000 C 
ATOM      3  O   UNL     1       3.934   8.106  16.911  0.00  0.00    +0.000 OA
ATOM      4  N   UNL     1       2.228   7.888  18.395  0.00  0.00    +0.000 N 
ATOM      5  C   UNL     1       1.540   8.993  17.733  0.00  0.00    +0.000 C 
ATOM      6  C   UNL     1       1.643  10.245  18.585  0.00  0.00    +0.000 C 
ATOM      7  C   UNL     1       0.964  10.016  19.941  0.00  0.00    +0.000 C 
ATOM      8  C   UNL     1       1.617   8.793  20.623  0.00  0.00    +0.000 C 
ATOM      9  C   UNL     1       1.686   7.553  19.712  0.00  0.00    +0.000 C 
ATOM     10  H   UNL     1       3.290   5.697  18.817  0.00  0.00    +0.000 HD
ENDROOT
BRANCH   1  15
ATOM     11  C   UNL     1       6.468   4.923  15.947  0.00  0.00    +0.000 A 
ATOM     12  C   UNL     1       7.500   4.552  16.818  0.00  0.00    +0.000 A 
ATOM     13  C   UNL     1       7.341   4.705  18.187  0.00  0.00    +0.000 A 
ATOM     14  C   UNL     1       6.159   5.244  18.691  0.00  0.00    +0.000 A 
ATOM     15  C   UNL     1       5.128   5.663  17.841  0.00  0.00    +0.000 A 
ATOM     16  C   UNL     1       5.275   5.470  16.456  0.00  0.00    +0.000 A 
BRANCH  11  18
ATOM     17  O   UNL     1       7.647   5.233  13.942  0.00  0.00    +0.000 OA
ATOM     18  C   UNL     1       6.701   4.683  14.498  0.00  0.00    +0.000 C 
ATOM     19  N   UNL     1       5.784   3.885  13.837  0.00  0.00    +0.000 N 
ATOM     20  H   UNL     1       4.933   3.617  14.310  0.00  0.00    +0.000 HD
BRANCH  19  21
ATOM     21  C   UNL     1       5.854   3.724  12.415  0.00  0.00    +0.000 C 
ATOM     22  C   UNL     1       4.685   3.205  11.626  0.00  0.00    +0.000 C 
ATOM     23  C   UNL     1       5.903   2.348  11.811  0.00  0.00    +0.000 C 
ENDBRANCH  19  21
ENDBRANCH  11  18
ENDBRANCH   1  15
BRANCH   7  24
ATOM     24  O   UNL     1      -0.438   9.734  19.805  0.00  0.00    +0.000 OA
BRANCH  24  25
ATOM     25  C   UNL     1      -1.333  10.768  19.854  0.00  0.00    +0.000 A 
ATOM     26  C   UNL     1      -2.289  11.083  18.886  0.00  0.00    +0.000 A 
ATOM     27  C   UNL     1      -3.196  12.126  19.098  0.00  0.00    +0.000 A 
ATOM     28  C   UNL     1      -3.125  12.876  20.263  0.00  0.00    +0.000 A 
ATOM     29  F   UNL     1      -3.989  13.880  20.457  0.00  0.00    +0.000 F 
ATOM     30  C   UNL     1      -2.168  12.594  21.229  0.00  0.00    +0.000 A 
ATOM     31  C   UNL     1      -1.281  11.533  21.027  0.00  0.00    +0.000 A 
ENDBRANCH  24  25
ENDBRANCH   7  24
TORSDOF 5
ENDMDL
MODEL 7
REMARK VINA RESULT:      -7.6      1.399      1.815
REMARK  Name = 
REMARK  5 active torsions:
REMARK  status: ('A' for Active; 'I' for Inactive)
REMARK    1  A    between atoms: C_2  and  C_7
REMARK    2  A    between atoms: N_3  and  C_4
REMARK    3  A    between atoms: C_11  and  N_12
REMARK    4  A    between atoms: C_18  and  O_19
REMARK    5  A    between atoms: O_19  and  C_20
REMARK                            x       y       z     vdW  Elec       q    Type
REMARK                         _______ _______ _______ _____ _____    ______ ____
ROOT
ATOM      1  N   UNL     1       2.193   7.067  18.740  0.00  0.00    +0.000 N 
ATOM      2  C   UNL     1       1.830   7.256  20.059  0.00  0.00    +0.000 C 
ATOM      3  O   UNL     1       1.796   6.355  20.896  0.00  0.00    +0.000 OA
ATOM      4  N   UNL     1       1.562   8.567  20.433  0.00  0.00    +0.000 N 
ATOM      5  C   UNL     1       1.417   8.828  21.862  0.00  0.00    +0.000 C 
ATOM      6  C   UNL     1      -0.040   9.112  22.186  0.00  0.00    +0.000 C 
ATOM      7  C   UNL     1      -0.513  10.360  21.430  0.00  0.00    +0.000 C 
ATOM      8  C   UNL     1      -0.285  10.141  19.918  0.00  0.00    +0.000 C 
ATOM      9  C   UNL     1       1.144   9.679  19.579  0.00  0.00    +0.000 C 
ATOM     10  H   UNL     1       2.509   7.890  18.253  0.00  0.00    +0.000 HD
ENDROOT
BRANCH   1  15
ATOM     11  C   UNL     1       4.217   4.443  17.035  0.00  0.00    +0.000 A 
ATOM     12  C   UNL     1       3.387   3.323  17.164  0.00  0.00    +0.000 A 
ATOM     13  C   UNL     1       2.145   3.445  17.768  0.00  0.00    +0.000 A 
ATOM     14  C   UNL     1       1.733   4.683  18.258  0.00  0.00    +0.000 A 
ATOM     15  C   UNL     1       2.559   5.811  18.180  0.00  0.00    +0.000 A 
ATOM     16  C   UNL     1       3.801   5.692  17.532  0.00  0.00    +0.000 A 
BRANCH  11  18
ATOM     17  O   UNL     1       6.559   4.314  16.970  0.00  0.00    +0.000 OA
ATOM     18  C   UNL     1       5.512   4.236  16.334  0.00  0.00    +0.000 C 
ATOM     19  N   UNL     1       5.462   4.024  14.968  0.00  0.00    +0.000 N 
ATOM     20  H   UNL     1       4.587   4.154  14.480  0.00  0.00    +0.000 HD
BRANCH  19  21
ATOM     21  C   UNL     1       6.669   3.961  14.197  0.00  0.00    +0.000 C 
ATOM     22  C   UNL     1       7.086   5.093  13.301  0.00  0.00    +0.000 C 
ATOM     23  C   UNL     1       6.604   3.803  12.703  0.00  0.00    +0.000 C 
ENDBRANCH  19  21
ENDBRANCH  11  18
ENDBRANCH   1  15
BRANCH   7  24
ATOM     24  O   UNL     1       0.221  11.535  21.811  0.00  0.00    +0.000 OA
BRANCH  24  25
ATOM     25  C   UNL     1      -0.059  12.723  21.194  0.00  0.00    +0.000 A 
ATOM     26  C   UNL     1      -1.294  13.375  21.172  0.00  0.00    +0.000 A 
ATOM     27  C   UNL     1      -1.424  14.628  20.566  0.00  0.00    +0.000 A 
ATOM     28  C   UNL     1      -0.326  15.215  19.953  0.00  0.00    +0.000 A 
ATOM     29  F   UNL     1      -0.458  16.411  19.365  0.00  0.00    +0.000 F 
ATOM     30  C   UNL     1       0.905  14.575  19.944  0.00  0.00    +0.000 A 
ATOM     31  C   UNL     1       1.039  13.335  20.575  0.00  0.00    +0.000 A 
ENDBRANCH  24  25
ENDBRANCH   7  24
TORSDOF 5
ENDMDL
MODEL 8
REMARK VINA RESULT:      -7.6      2.313      2.687
REMARK  Name = 
REMARK  5 active torsions:
REMARK  status: ('A' for Active; 'I' for Inactive)
REMARK    1  A    between atoms: C_2  and  C_7
REMARK    2  A    between atoms: N_3  and  C_4
REMARK    3  A    between atoms: C_11  and  N_12
REMARK    4  A    between atoms: C_18  and  O_19
REMARK    5  A    between atoms: O_19  and  C_20
REMARK                            x       y       z     vdW  Elec       q    Type
REMARK                         _______ _______ _______ _____ _____    ______ ____
ROOT
ATOM      1  N   UNL     1       1.328   6.440  20.854  0.00  0.00    +0.000 N 
ATOM      2  C   UNL     1       1.362   7.716  20.326  0.00  0.00    +0.000 C 
ATOM      3  O   UNL     1       2.127   8.066  19.429  0.00  0.00    +0.000 OA
ATOM      4  N   UNL     1       0.412   8.603  20.819  0.00  0.00    +0.000 N 
ATOM      5  C   UNL     1       0.265   9.872  20.112  0.00  0.00    +0.000 C 
ATOM      6  C   UNL     1       0.829  10.999  20.960  0.00  0.00    +0.000 C 
ATOM      7  C   UNL     1       0.053  11.104  22.279  0.00  0.00    +0.000 C 
ATOM      8  C   UNL     1       0.120   9.742  23.004  0.00  0.00    +0.000 C 
ATOM      9  C   UNL     1      -0.280   8.555  22.108  0.00  0.00    +0.000 C 
ATOM     10  H   UNL     1       0.470   6.182  21.314  0.00  0.00    +0.000 HD
ENDROOT
BRANCH   1  15
ATOM     11  C   UNL     1       4.273   4.659  19.425  0.00  0.00    +0.000 A 
ATOM     12  C   UNL     1       3.956   3.325  19.707  0.00  0.00    +0.000 A 
ATOM     13  C   UNL     1       2.753   3.012  20.322  0.00  0.00    +0.000 A 
ATOM     14  C   UNL     1       1.869   4.031  20.672  0.00  0.00    +0.000 A 
ATOM     15  C   UNL     1       2.179   5.378  20.439  0.00  0.00    +0.000 A 
ATOM     16  C   UNL     1       3.381   5.688  19.780  0.00  0.00    +0.000 A 
BRANCH  11  18
ATOM     17  O   UNL     1       6.427   4.034  18.735  0.00  0.00    +0.000 OA
ATOM     18  C   UNL     1       5.560   4.903  18.722  0.00  0.00    +0.000 C 
ATOM     19  N   UNL     1       5.732   6.143  18.134  0.00  0.00    +0.000 N 
ATOM     20  H   UNL     1       5.058   6.873  18.317  0.00  0.00    +0.000 HD
BRANCH  19  21
ATOM     21  C   UNL     1       6.995   6.510  17.566  0.00  0.00    +0.000 C 
ATOM     22  C   UNL     1       8.098   7.083  18.410  0.00  0.00    +0.000 C 
ATOM     23  C   UNL     1       7.372   7.960  17.432  0.00  0.00    +0.000 C 
ENDBRANCH  19  21
ENDBRANCH  11  18
ENDBRANCH   1  15
BRANCH   7  24
ATOM     24  O   UNL     1      -1.334  11.412  22.069  0.00  0.00    +0.000 OA
BRANCH  24  25
ATOM     25  C   UNL     1      -1.909  12.420  22.792  0.00  0.00    +0.000 A 
ATOM     26  C   UNL     1      -1.463  13.741  22.874  0.00  0.00    +0.000 A 
ATOM     27  C   UNL     1      -2.191  14.693  23.593  0.00  0.00    +0.000 A 
ATOM     28  C   UNL     1      -3.350  14.318  24.257  0.00  0.00    +0.000 A 
ATOM     29  F   UNL     1      -4.039  15.232  24.952  0.00  0.00    +0.000 F 
ATOM     30  C   UNL     1      -3.801  13.006  24.207  0.00  0.00    +0.000 A 
ATOM     31  C   UNL     1      -3.086  12.063  23.465  0.00  0.00    +0.000 A 
ENDBRANCH  24  25
ENDBRANCH   7  24
TORSDOF 5
ENDMDL
MODEL 9
REMARK VINA RESULT:      -7.5      4.045     10.450
REMARK  Name = 
REMARK  5 active torsions:
REMARK  status: ('A' for Active; 'I' for Inactive)
REMARK    1  A    between atoms: C_2  and  C_7
REMARK    2  A    between atoms: N_3  and  C_4
REMARK    3  A    between atoms: C_11  and  N_12
REMARK    4  A    between atoms: C_18  and  O_19
REMARK    5  A    between atoms: O_19  and  C_20
REMARK                            x       y       z     vdW  Elec       q    Type
REMARK                         _______ _______ _______ _____ _____    ______ ____
ROOT
ATOM      1  N   UNL     1       1.909   7.894  19.852  0.00  0.00    +0.000 N 
ATOM      2  C   UNL     1       1.935   6.529  20.059  0.00  0.00    +0.000 C 
ATOM      3  O   UNL     1       1.293   5.958  20.939  0.00  0.00    +0.000 OA
ATOM      4  N   UNL     1       2.689   5.791  19.155  0.00  0.00    +0.000 N 
ATOM      5  C   UNL     1       2.539   4.340  19.201  0.00  0.00    +0.000 C 
ATOM      6  C   UNL     1       3.794   3.713  19.783  0.00  0.00    +0.000 C 
ATOM      7  C   UNL     1       5.002   4.032  18.894  0.00  0.00    +0.000 C 
ATOM      8  C   UNL     1       5.128   5.565  18.758  0.00  0.00    +0.000 C 
ATOM      9  C   UNL     1       3.814   6.248  18.337  0.00  0.00    +0.000 C 
ATOM     10  H   UNL     1       2.182   8.200  18.931  0.00  0.00    +0.000 HD
ENDROOT
BRANCH   1  15
ATOM     11  C   UNL     1      -0.551  10.549  20.739  0.00  0.00    +0.000 A 
ATOM     12  C   UNL     1      -0.461  10.557  22.136  0.00  0.00    +0.000 A 
ATOM     13  C   UNL     1       0.444   9.725  22.778  0.00  0.00    +0.000 A 
ATOM     14  C   UNL     1       1.250   8.870  22.029  0.00  0.00    +0.000 A 
ATOM     15  C   UNL     1       1.152   8.810  20.633  0.00  0.00    +0.000 A 
ATOM     16  C   UNL     1       0.262   9.684  19.983  0.00  0.00    +0.000 A 
BRANCH  11  18
ATOM     17  O   UNL     1      -1.794  12.539  20.726  0.00  0.00    +0.000 OA
ATOM     18  C   UNL     1      -1.512  11.505  20.128  0.00  0.00    +0.000 C 
ATOM     19  N   UNL     1      -2.088  11.137  18.925  0.00  0.00    +0.000 N 
ATOM     20  H   UNL     1      -1.953  10.197  18.581  0.00  0.00    +0.000 HD
BRANCH  19  21
ATOM     21  C   UNL     1      -3.131  11.931  18.346  0.00  0.00    +0.000 C 
ATOM     22  C   UNL     1      -4.576  11.544  18.475  0.00  0.00    +0.000 C 
ATOM     23  C   UNL     1      -3.886  11.429  17.147  0.00  0.00    +0.000 C 
ENDBRANCH  19  21
ENDBRANCH  11  18
ENDBRANCH   1  15
BRANCH   7  24
ATOM     24  O   UNL     1       4.859   3.493  17.570  0.00  0.00    +0.000 OA
BRANCH  24  25
ATOM     25  C   UNL     1       5.621   4.006  16.556  0.00  0.00    +0.000 A 
ATOM     26  C   UNL     1       6.939   4.456  16.656  0.00  0.00    +0.000 A 
ATOM     27  C   UNL     1       7.629   4.888  15.519  0.00  0.00    +0.000 A 
ATOM     28  C   UNL     1       6.990   4.901  14.287  0.00  0.00    +0.000 A 
ATOM     29  F   UNL     1       7.651   5.325  13.204  0.00  0.00    +0.000 F 
ATOM     30  C   UNL     1       5.673   4.479  14.169  0.00  0.00    +0.000 A 
ATOM     31  C   UNL     1       4.995   4.021  15.303  0.00  0.00    +0.000 A 
ENDBRANCH  24  25
ENDBRANCH   7  24
TORSDOF 5
ENDMDL
