MODEL 1
REMARK VINA RESULT:      -9.1      0.000      0.000
REMARK  Name = 
REMARK  2 active torsions:
REMARK  status: ('A' for Active; 'I' for Inactive)
REMARK    1  A    between atoms: C_9  and  C_10
REMARK    2  A    between atoms: N_21  and  C_22
REMARK                            x       y       z     vdW  Elec       q    Type
REMARK                         _______ _______ _______ _____ _____    ______ ____
ROOT
ATOM      1  O   UNL     1       0.844   6.239  21.194  0.00  0.00    +0.000 OA
ATOM      2  C   UNL     1       1.805   6.110  20.434  0.00  0.00    +0.000 A 
ATOM      3  C   UNL     1       2.477   4.795  20.415  0.00  0.00    +0.000 A 
ATOM      4  C   UNL     1       1.948   3.738  21.173  0.00  0.00    +0.000 A 
ATOM      5  C   UNL     1       2.585   2.502  21.194  0.00  0.00    +0.000 A 
ATOM      6  C   UNL     1       3.796   2.341  20.527  0.00  0.00    +0.000 A 
ATOM      7  C   UNL     1       4.334   3.400  19.791  0.00  0.00    +0.000 A 
ATOM      8  C   UNL     1       3.627   4.602  19.657  0.00  0.00    +0.000 A 
ATOM      9  C   UNL     1       3.986   5.694  18.724  0.00  0.00    +0.000 A 
ATOM     10  N   UNL     1       3.354   6.827  18.719  0.00  0.00    +0.000 NA
ATOM     11  N   UNL     1       2.319   7.080  19.570  0.00  0.00    +0.000 N 
ENDROOT
BRANCH   9  12
ATOM     12  C   UNL     1       5.071   5.582  17.702  0.00  0.00    +0.000 A 
ATOM     13  C   UNL     1       6.275   6.293  17.743  0.00  0.00    +0.000 A 
ATOM     14  C   UNL     1       7.189   6.190  16.686  0.00  0.00    +0.000 A 
ATOM     15  C   UNL     1       6.932   5.322  15.624  0.00  0.00    +0.000 A 
ATOM     16  C   UNL     1       5.815   4.494  15.677  0.00  0.00    +0.000 A 
ATOM     17  C   UNL     1       4.879   4.637  16.680  0.00  0.00    +0.000 A 
ATOM     18  O   UNL     1       5.593   3.525  14.738  0.00  0.00    +0.000 OA
ATOM     19  C   UNL     1       5.954   4.043  13.466  0.00  0.00    +0.000 C 
ATOM     20  C   UNL     1       7.383   4.584  13.436  0.00  0.00    +0.000 C 
ATOM     21  O   UNL     1       7.803   5.343  14.577  0.00  0.00    +0.000 OA
ENDBRANCH   9  12
BRANCH  11  22
ATOM     22  C   UNL     1       1.745   8.388  19.394  0.00  0.00    +0.000 A 
ATOM     23  C   UNL     1       1.074   9.063  20.425  0.00  0.00    +0.000 A 
ATOM     24  C   UNL     1       0.453  10.298  20.198  0.00  0.00    +0.000 A 
ATOM     25  C   UNL     1       0.503  10.874  18.938  0.00  0.00    +0.000 A 
ATOM     26  F   UNL     1      -0.121  12.037  18.713  0.00  0.00    +0.000 F 
ATOM     27  C   UNL     1       1.192  10.255  17.906  0.00  0.00    +0.000 A 
ATOM     28  C   UNL     1       1.821   9.028  18.139  0.00  0.00    +0.000 A 
ENDBRANCH  11  22
TORSDOF 2
ENDMDL
MODEL 2
REMARK VINA RESULT:      -8.9      2.893      7.010
REMARK  Name = 
REMARK  2 active torsions:
REMARK  status: ('A' for Active; 'I' for Inactive)
REMARK    1  A    between atoms: C_9  and  C_10
REMARK    2  A    between atoms: N_21  and  C_22
REMARK                            x       y       z     vdW  Elec       q    Type
REMARK                         _______ _______ _______ _____ _____    ______ ____
ROOT
ATOM      1  O   UNL     1       4.592   2.250  17.958  0.00  0.00    +0.000 OA
ATOM      2  C   UNL     1       4.050   3.347  18.096  0.00  0.00    +0.000 A 
ATOM      3  C   UNL     1       3.082   3.486  19.203  0.00  0.00    +0.000 A 
ATOM      4  C   UNL     1       2.892   2.416  20.092  0.00  0.00    +0.000 A 
ATOM      5  C   UNL     1       1.960   2.515  21.120  0.00  0.00    +0.000 A 
ATOM      6  C   UNL     1       1.156   3.647  21.213  0.00  0.00    +0.000 A 
ATOM      7  C   UNL     1       1.329   4.702  20.314  0.00  0.00    +0.000 A 
ATOM      8  C   UNL     1       2.358   4.662  19.363  0.00  0.00    +0.000 A 
ATOM      9  C   UNL     1       2.778   5.807  18.524  0.00  0.00    +0.000 A 
ATOM     10  N   UNL     1       3.667   5.682  17.588  0.00  0.00    +0.000 NA
ATOM     11  N   UNL     1       4.271   4.488  17.321  0.00  0.00    +0.000 N 
ENDROOT
BRANCH   9  12
ATOM     12  C   UNL     1       2.245   7.194  18.694  0.00  0.00    +0.000 A 
ATOM     13  C   UNL     1       2.200   8.156  17.680  0.00  0.00    +0.000 A 
ATOM     14  C   UNL     1       1.769   9.458  17.965  0.00  0.00    +0.000 A 
ATOM     15  C   UNL     1       1.317   9.779  19.245  0.00  0.00    +0.000 A 
ATOM     16  C   UNL     1       1.206   8.773  20.199  0.00  0.00    +0.000 A 
ATOM     17  C   UNL     1       1.688   7.506  19.947  0.00  0.00    +0.000 A 
ATOM     18  O   UNL     1       0.635   8.999  21.421  0.00  0.00    +0.000 OA
ATOM     19  C   UNL     1       1.046  10.280  21.876  0.00  0.00    +0.000 C 
ATOM     20  C   UNL     1       0.748  11.387  20.866  0.00  0.00    +0.000 C 
ATOM     21  O   UNL     1       1.012  11.084  19.490  0.00  0.00    +0.000 OA
ENDBRANCH   9  12
BRANCH  11  22
ATOM     22  C   UNL     1       5.236   4.564  16.256  0.00  0.00    +0.000 A 
ATOM     23  C   UNL     1       6.523   5.093  16.439  0.00  0.00    +0.000 A 
ATOM     24  C   UNL     1       7.409   5.231  15.364  0.00  0.00    +0.000 A 
ATOM     25  C   UNL     1       7.019   4.836  14.093  0.00  0.00    +0.000 A 
ATOM     26  F   UNL     1       7.853   5.002  13.059  0.00  0.00    +0.000 F 
ATOM     27  C   UNL     1       5.770   4.272  13.882  0.00  0.00    +0.000 A 
ATOM     28  C   UNL     1       4.891   4.124  14.961  0.00  0.00    +0.000 A 
ENDBRANCH  11  22
TORSDOF 2
ENDMDL
MODEL 3
REMARK VINA RESULT:      -8.9      1.094      1.132
REMARK  Name = 
REMARK  2 active torsions:
REMARK  status: ('A' for Active; 'I' for Inactive)
REMARK    1  A    between atoms: C_9  and  C_10
REMARK    2  A    between atoms: N_21  and  C_22
REMARK                            x       y       z     vdW  Elec       q    Type
REMARK                         _______ _______ _______ _____ _____    ______ ____
ROOT
ATOM      1  O   UNL     1       0.721   5.189  20.470  0.00  0.00    +0.000 OA
ATOM      2  C   UNL     1       1.720   5.209  19.750  0.00  0.00    +0.000 A 
ATOM      3  C   UNL     1       2.272   3.906  19.328  0.00  0.00    +0.000 A 
ATOM      4  C   UNL     1       1.597   2.725  19.676  0.00  0.00    +0.000 A 
ATOM      5  C   UNL     1       2.120   1.487  19.317  0.00  0.00    +0.000 A 
ATOM      6  C   UNL     1       3.357   1.420  18.683  0.00  0.00    +0.000 A 
ATOM      7  C   UNL     1       4.039   2.594  18.357  0.00  0.00    +0.000 A 
ATOM      8  C   UNL     1       3.453   3.845  18.596  0.00  0.00    +0.000 A 
ATOM      9  C   UNL     1       3.973   5.133  18.087  0.00  0.00    +0.000 A 
ATOM     10  N   UNL     1       3.446   6.269  18.427  0.00  0.00    +0.000 NA
ATOM     11  N   UNL     1       2.379   6.344  19.273  0.00  0.00    +0.000 N 
ENDROOT
BRANCH   9  12
ATOM     12  C   UNL     1       5.116   5.241  17.129  0.00  0.00    +0.000 A 
ATOM     13  C   UNL     1       6.216   6.090  17.297  0.00  0.00    +0.000 A 
ATOM     14  C   UNL     1       7.189   6.186  16.295  0.00  0.00    +0.000 A 
ATOM     15  C   UNL     1       7.102   5.383  15.158  0.00  0.00    +0.000 A 
ATOM     16  C   UNL     1       6.099   4.422  15.079  0.00  0.00    +0.000 A 
ATOM     17  C   UNL     1       5.102   4.366  16.029  0.00  0.00    +0.000 A 
ATOM     18  O   UNL     1       6.053   3.513  14.059  0.00  0.00    +0.000 OA
ATOM     19  C   UNL     1       6.411   4.174  12.854  0.00  0.00    +0.000 C 
ATOM     20  C   UNL     1       7.758   4.888  12.953  0.00  0.00    +0.000 C 
ATOM     21  O   UNL     1       8.018   5.597  14.172  0.00  0.00    +0.000 OA
ENDBRANCH   9  12
BRANCH  11  22
ATOM     22  C   UNL     1       1.937   7.693  19.512  0.00  0.00    +0.000 A 
ATOM     23  C   UNL     1       1.501   8.133  20.771  0.00  0.00    +0.000 A 
ATOM     24  C   UNL     1       0.998   9.427  20.952  0.00  0.00    +0.000 A 
ATOM     25  C   UNL     1       0.932  10.298  19.875  0.00  0.00    +0.000 A 
ATOM     26  F   UNL     1       0.418  11.523  20.041  0.00  0.00    +0.000 F 
ATOM     27  C   UNL     1       1.392   9.912  18.626  0.00  0.00    +0.000 A 
ATOM     28  C   UNL     1       1.905   8.622  18.451  0.00  0.00    +0.000 A 
ENDBRANCH  11  22
TORSDOF 2
ENDMDL
MODEL 4
REMARK VINA RESULT:      -8.3      2.876      6.784
REMARK  Name = 
REMARK  2 active torsions:
REMARK  status: ('A' for Active; 'I' for Inactive)
REMARK    1  A    between atoms: C_9  and  C_10
REMARK    2  A    between atoms: N_21  and  C_22
REMARK                            x       y       z     vdW  Elec       q    Type
REMARK                         _______ _______ _______ _____ _____    ______ ____
ROOT
ATOM      1  O   UNL     1       4.467   2.238  17.994  0.00  0.00    +0.000 OA
ATOM      2  C   UNL     1       3.932   3.297  18.324  0.00  0.00    +0.000 A 
ATOM      3  C   UNL     1       3.002   3.254  19.470  0.00  0.00    +0.000 A 
ATOM      4  C   UNL     1       2.841   2.055  20.184  0.00  0.00    +0.000 A 
ATOM      5  C   UNL     1       1.945   1.985  21.245  0.00  0.00    +0.000 A 
ATOM      6  C   UNL     1       1.146   3.086  21.545  0.00  0.00    +0.000 A 
ATOM      7  C   UNL     1       1.291   4.271  20.820  0.00  0.00    +0.000 A 
ATOM      8  C   UNL     1       2.286   4.387  19.840  0.00  0.00    +0.000 A 
ATOM      9  C   UNL     1       2.679   5.652  19.181  0.00  0.00    +0.000 A 
ATOM     10  N   UNL     1       3.536   5.681  18.207  0.00  0.00    +0.000 NA
ATOM     11  N   UNL     1       4.128   4.547  17.733  0.00  0.00    +0.000 N 
ENDROOT
BRANCH   9  12
ATOM     12  C   UNL     1       2.155   6.992  19.587  0.00  0.00    +0.000 A 
ATOM     13  C   UNL     1       1.883   7.372  20.906  0.00  0.00    +0.000 A 
ATOM     14  C   UNL     1       1.305   8.619  21.174  0.00  0.00    +0.000 A 
ATOM     15  C   UNL     1       1.063   9.514  20.132  0.00  0.00    +0.000 A 
ATOM     16  C   UNL     1       1.493   9.195  18.848  0.00  0.00    +0.000 A 
ATOM     17  C   UNL     1       2.003   7.946  18.565  0.00  0.00    +0.000 A 
ATOM     18  O   UNL     1       1.414  10.093  17.819  0.00  0.00    +0.000 OA
ATOM     19  C   UNL     1       0.187  10.798  17.934  0.00  0.00    +0.000 C 
ATOM     20  C   UNL     1       0.008  11.448  19.305  0.00  0.00    +0.000 C 
ATOM     21  O   UNL     1       0.403  10.666  20.439  0.00  0.00    +0.000 OA
ENDBRANCH   9  12
BRANCH  11  22
ATOM     22  C   UNL     1       5.056   4.796  16.662  0.00  0.00    +0.000 A 
ATOM     23  C   UNL     1       4.871   4.286  15.368  0.00  0.00    +0.000 A 
ATOM     24  C   UNL     1       5.834   4.475  14.370  0.00  0.00    +0.000 A 
ATOM     25  C   UNL     1       6.992   5.183  14.653  0.00  0.00    +0.000 A 
ATOM     26  F   UNL     1       7.928   5.333  13.708  0.00  0.00    +0.000 F 
ATOM     27  C   UNL     1       7.190   5.737  15.909  0.00  0.00    +0.000 A 
ATOM     28  C   UNL     1       6.221   5.557  16.901  0.00  0.00    +0.000 A 
ENDBRANCH  11  22
TORSDOF 2
ENDMDL
MODEL 5
REMARK VINA RESULT:      -7.9      2.949      6.749
REMARK  Name = 
REMARK  2 active torsions:
REMARK  status: ('A' for Active; 'I' for Inactive)
REMARK    1  A    between atoms: C_9  and  C_10
REMARK    2  A    between atoms: N_21  and  C_22
REMARK                            x       y       z     vdW  Elec       q    Type
REMARK                         _______ _______ _______ _____ _____    ______ ____
ROOT
ATOM      1  O   UNL     1       4.226   2.018  17.408  0.00  0.00    +0.000 OA
ATOM      2  C   UNL     1       3.775   3.102  17.783  0.00  0.00    +0.000 A 
ATOM      3  C   UNL     1       2.749   3.073  18.845  0.00  0.00    +0.000 A 
ATOM      4  C   UNL     1       2.404   1.849  19.439  0.00  0.00    +0.000 A 
ATOM      5  C   UNL     1       1.415   1.797  20.416  0.00  0.00    +0.000 A 
ATOM      6  C   UNL     1       0.710   2.951  20.744  0.00  0.00    +0.000 A 
ATOM      7  C   UNL     1       1.039   4.166  20.136  0.00  0.00    +0.000 A 
ATOM      8  C   UNL     1       2.123   4.246  19.252  0.00  0.00    +0.000 A 
ATOM      9  C   UNL     1       2.700   5.508  18.735  0.00  0.00    +0.000 A 
ATOM     10  N   UNL     1       3.637   5.517  17.838  0.00  0.00    +0.000 NA
ATOM     11  N   UNL     1       4.150   4.364  17.318  0.00  0.00    +0.000 N 
ENDROOT
BRANCH   9  12
ATOM     12  C   UNL     1       2.282   6.862  19.211  0.00  0.00    +0.000 A 
ATOM     13  C   UNL     1       2.002   7.184  20.543  0.00  0.00    +0.000 A 
ATOM     14  C   UNL     1       1.526   8.459  20.874  0.00  0.00    +0.000 A 
ATOM     15  C   UNL     1       1.398   9.434  19.884  0.00  0.00    +0.000 A 
ATOM     16  C   UNL     1       1.840   9.156  18.595  0.00  0.00    +0.000 A 
ATOM     17  C   UNL     1       2.247   7.886  18.248  0.00  0.00    +0.000 A 
ATOM     18  O   UNL     1       1.873  10.118  17.623  0.00  0.00    +0.000 OA
ATOM     19  C   UNL     1       0.709  10.922  17.749  0.00  0.00    +0.000 C 
ATOM     20  C   UNL     1       0.543  11.500  19.153  0.00  0.00    +0.000 C 
ATOM     21  O   UNL     1       0.831  10.619  20.246  0.00  0.00    +0.000 OA
ENDBRANCH   9  12
BRANCH  11  22
ATOM     22  C   UNL     1       5.188   4.591  16.349  0.00  0.00    +0.000 A 
ATOM     23  C   UNL     1       6.356   5.310  16.647  0.00  0.00    +0.000 A 
ATOM     24  C   UNL     1       7.309   5.586  15.659  0.00  0.00    +0.000 A 
ATOM     25  C   UNL     1       7.107   5.139  14.362  0.00  0.00    +0.000 A 
ATOM     26  F   UNL     1       8.002   5.434  13.410  0.00  0.00    +0.000 F 
ATOM     27  C   UNL     1       5.985   4.391  14.040  0.00  0.00    +0.000 A 
ATOM     28  C   UNL     1       5.041   4.106  15.032  0.00  0.00    +0.000 A 
ENDBRANCH  11  22
TORSDOF 2
ENDMDL
MODEL 6
REMARK VINA RESULT:      -7.7      4.034      7.397
REMARK  Name = 
REMARK  2 active torsions:
REMARK  status: ('A' for Active; 'I' for Inactive)
REMARK    1  A    between atoms: C_9  and  C_10
REMARK    2  A    between atoms: N_21  and  C_22
REMARK                            x       y       z     vdW  Elec       q    Type
REMARK                         _______ _______ _______ _____ _____    ______ ____
ROOT
ATOM      1  O   UNL     1      -3.765  12.953  19.568  0.00  0.00    +0.000 OA
ATOM      2  C   UNL     1      -2.827  12.169  19.421  0.00  0.00    +0.000 A 
ATOM      3  C   UNL     1      -2.803  11.371  18.179  0.00  0.00    +0.000 A 
ATOM      4  C   UNL     1      -3.775  11.601  17.192  0.00  0.00    +0.000 A 
ATOM      5  C   UNL     1      -3.791  10.837  16.030  0.00  0.00    +0.000 A 
ATOM      6  C   UNL     1      -2.888   9.787  15.885  0.00  0.00    +0.000 A 
ATOM      7  C   UNL     1      -1.935   9.544  16.877  0.00  0.00    +0.000 A 
ATOM      8  C   UNL     1      -1.831  10.396  17.985  0.00  0.00    +0.000 A 
ATOM      9  C   UNL     1      -0.724  10.373  18.967  0.00  0.00    +0.000 A 
ATOM     10  N   UNL     1      -0.734  11.116  20.031  0.00  0.00    +0.000 NA
ATOM     11  N   UNL     1      -1.765  11.967  20.306  0.00  0.00    +0.000 N 
ENDROOT
BRANCH   9  12
ATOM     12  C   UNL     1       0.499   9.526  18.813  0.00  0.00    +0.000 A 
ATOM     13  C   UNL     1       1.470   9.708  17.823  0.00  0.00    +0.000 A 
ATOM     14  C   UNL     1       2.532   8.802  17.705  0.00  0.00    +0.000 A 
ATOM     15  C   UNL     1       2.661   7.756  18.619  0.00  0.00    +0.000 A 
ATOM     16  C   UNL     1       1.787   7.684  19.699  0.00  0.00    +0.000 A 
ATOM     17  C   UNL     1       0.703   8.532  19.786  0.00  0.00    +0.000 A 
ATOM     18  O   UNL     1       1.956   6.769  20.701  0.00  0.00    +0.000 OA
ATOM     19  C   UNL     1       2.369   5.541  20.121  0.00  0.00    +0.000 C 
ATOM     20  C   UNL     1       3.608   5.694  19.240  0.00  0.00    +0.000 C 
ATOM     21  O   UNL     1       3.650   6.847  18.390  0.00  0.00    +0.000 OA
ENDBRANCH   9  12
BRANCH  11  22
ATOM     22  C   UNL     1      -1.578  12.710  21.524  0.00  0.00    +0.000 A 
ATOM     23  C   UNL     1      -2.332  12.466  22.682  0.00  0.00    +0.000 A 
ATOM     24  C   UNL     1      -2.185  13.263  23.823  0.00  0.00    +0.000 A 
ATOM     25  C   UNL     1      -1.275  14.309  23.822  0.00  0.00    +0.000 A 
ATOM     26  F   UNL     1      -1.161  15.093  24.902  0.00  0.00    +0.000 F 
ATOM     27  C   UNL     1      -0.483  14.555  22.710  0.00  0.00    +0.000 A 
ATOM     28  C   UNL     1      -0.624  13.749  21.575  0.00  0.00    +0.000 A 
ENDBRANCH  11  22
TORSDOF 2
ENDMDL
MODEL 7
REMARK VINA RESULT:      -7.6      3.752      6.996
REMARK  Name = 
REMARK  2 active torsions:
REMARK  status: ('A' for Active; 'I' for Inactive)
REMARK    1  A    between atoms: C_9  and  C_10
REMARK    2  A    between atoms: N_21  and  C_22
REMARK                            x       y       z     vdW  Elec       q    Type
REMARK                         _______ _______ _______ _____ _____    ______ ____
ROOT
ATOM      1  O   UNL     1      -0.392  14.113  18.583  0.00  0.00    +0.000 OA
ATOM      2  C   UNL     1       0.076  12.974  18.636  0.00  0.00    +0.000 A 
ATOM      3  C   UNL     1      -0.828  11.858  18.294  0.00  0.00    +0.000 A 
ATOM      4  C   UNL     1      -2.126  12.135  17.839  0.00  0.00    +0.000 A 
ATOM      5  C   UNL     1      -3.004  11.097  17.544  0.00  0.00    +0.000 A 
ATOM      6  C   UNL     1      -2.616   9.781  17.781  0.00  0.00    +0.000 A 
ATOM      7  C   UNL     1      -1.331   9.506  18.255  0.00  0.00    +0.000 A 
ATOM      8  C   UNL     1      -0.401  10.541  18.425  0.00  0.00    +0.000 A 
ATOM      9  C   UNL     1       1.041  10.344  18.695  0.00  0.00    +0.000 A 
ATOM     10  N   UNL     1       1.834  11.340  18.945  0.00  0.00    +0.000 NA
ATOM     11  N   UNL     1       1.387  12.629  18.972  0.00  0.00    +0.000 N 
ENDROOT
BRANCH   9  12
ATOM     12  C   UNL     1       1.709   9.007  18.678  0.00  0.00    +0.000 A 
ATOM     13  C   UNL     1       2.550   8.553  17.657  0.00  0.00    +0.000 A 
ATOM     14  C   UNL     1       3.053   7.246  17.688  0.00  0.00    +0.000 A 
ATOM     15  C   UNL     1       2.773   6.417  18.774  0.00  0.00    +0.000 A 
ATOM     16  C   UNL     1       2.078   6.934  19.863  0.00  0.00    +0.000 A 
ATOM     17  C   UNL     1       1.525   8.196  19.812  0.00  0.00    +0.000 A 
ATOM     18  O   UNL     1       1.902   6.213  21.012  0.00  0.00    +0.000 OA
ATOM     19  C   UNL     1       1.638   4.863  20.658  0.00  0.00    +0.000 C 
ATOM     20  C   UNL     1       2.712   4.275  19.745  0.00  0.00    +0.000 C 
ATOM     21  O   UNL     1       3.199   5.125  18.699  0.00  0.00    +0.000 OA
ENDBRANCH   9  12
BRANCH  11  22
ATOM     22  C   UNL     1       2.426  13.584  19.253  0.00  0.00    +0.000 A 
ATOM     23  C   UNL     1       3.137  14.247  18.242  0.00  0.00    +0.000 A 
ATOM     24  C   UNL     1       4.199  15.107  18.547  0.00  0.00    +0.000 A 
ATOM     25  C   UNL     1       4.556  15.320  19.870  0.00  0.00    +0.000 A 
ATOM     26  F   UNL     1       5.595  16.114  20.159  0.00  0.00    +0.000 F 
ATOM     27  C   UNL     1       3.850  14.714  20.898  0.00  0.00    +0.000 A 
ATOM     28  C   UNL     1       2.782  13.864  20.590  0.00  0.00    +0.000 A 
ENDBRANCH  11  22
TORSDOF 2
ENDMDL
MODEL 8
REMARK VINA RESULT:      -7.6      5.185     11.223
REMARK  Name = 
REMARK  2 active torsions:
REMARK  status: ('A' for Active; 'I' for Inactive)
REMARK    1  A    between atoms: C_9  and  C_10
REMARK    2  A    between atoms: N_21  and  C_22
REMARK                            x       y       z     vdW  Elec       q    Type
REMARK                         _______ _______ _______ _____ _____    ______ ____
ROOT
ATOM      1  O   UNL     1       2.569  12.623  18.566  0.00  0.00    +0.000 OA
ATOM      2  C   UNL     1       1.409  12.610  18.979  0.00  0.00    +0.000 A 
ATOM      3  C   UNL     1       0.721  13.912  19.098  0.00  0.00    +0.000 A 
ATOM      4  C   UNL     1       1.367  15.077  18.655  0.00  0.00    +0.000 A 
ATOM      5  C   UNL     1       0.750  16.316  18.790  0.00  0.00    +0.000 A 
ATOM      6  C   UNL     1      -0.477  16.407  19.442  0.00  0.00    +0.000 A 
ATOM      7  C   UNL     1      -1.109  15.250  19.903  0.00  0.00    +0.000 A 
ATOM      8  C   UNL     1      -0.554  13.988  19.648  0.00  0.00    +0.000 A 
ATOM      9  C   UNL     1      -1.243  12.699  19.882  0.00  0.00    +0.000 A 
ATOM     10  N   UNL     1      -0.640  11.561  19.725  0.00  0.00    +0.000 NA
ATOM     11  N   UNL     1       0.664  11.483  19.333  0.00  0.00    +0.000 N 
ENDROOT
BRANCH   9  12
ATOM     12  C   UNL     1      -2.678  12.592  20.285  0.00  0.00    +0.000 A 
ATOM     13  C   UNL     1      -3.739  12.381  19.398  0.00  0.00    +0.000 A 
ATOM     14  C   UNL     1      -5.059  12.390  19.865  0.00  0.00    +0.000 A 
ATOM     15  C   UNL     1      -5.316  12.538  21.228  0.00  0.00    +0.000 A 
ATOM     16  C   UNL     1      -4.249  12.576  22.121  0.00  0.00    +0.000 A 
ATOM     17  C   UNL     1      -2.950  12.634  21.664  0.00  0.00    +0.000 A 
ATOM     18  O   UNL     1      -4.444  12.574  23.475  0.00  0.00    +0.000 OA
ATOM     19  C   UNL     1      -5.562  13.400  23.767  0.00  0.00    +0.000 C 
ATOM     20  C   UNL     1      -6.812  12.995  22.986  0.00  0.00    +0.000 C 
ATOM     21  O   UNL     1      -6.619  12.645  21.609  0.00  0.00    +0.000 OA
ENDBRANCH   9  12
BRANCH  11  22
ATOM     22  C   UNL     1       1.139  10.131  19.204  0.00  0.00    +0.000 A 
ATOM     23  C   UNL     1       1.171   9.235  20.284  0.00  0.00    +0.000 A 
ATOM     24  C   UNL     1       1.717   7.954  20.147  0.00  0.00    +0.000 A 
ATOM     25  C   UNL     1       2.232   7.550  18.925  0.00  0.00    +0.000 A 
ATOM     26  F   UNL     1       2.787   6.338  18.804  0.00  0.00    +0.000 F 
ATOM     27  C   UNL     1       2.181   8.393  17.825  0.00  0.00    +0.000 A 
ATOM     28  C   UNL     1       1.623   9.669  17.962  0.00  0.00    +0.000 A 
ENDBRANCH  11  22
TORSDOF 2
ENDMDL
MODEL 9
REMARK VINA RESULT:      -7.6      5.354     11.116
REMARK  Name = 
REMARK  2 active torsions:
REMARK  status: ('A' for Active; 'I' for Inactive)
REMARK    1  A    between atoms: C_9  and  C_10
REMARK    2  A    between atoms: N_21  and  C_22
REMARK                            x       y       z     vdW  Elec       q    Type
REMARK                         _______ _______ _______ _____ _____    ______ ____
ROOT
ATOM      1  O   UNL     1       2.304  12.726  18.733  0.00  0.00    +0.000 OA
ATOM      2  C   UNL     1       1.170  12.724  19.214  0.00  0.00    +0.000 A 
ATOM      3  C   UNL     1       0.474  14.023  19.304  0.00  0.00    +0.000 A 
ATOM      4  C   UNL     1       1.077  15.169  18.763  0.00  0.00    +0.000 A 
ATOM      5  C   UNL     1       0.452  16.408  18.868  0.00  0.00    +0.000 A 
ATOM      6  C   UNL     1      -0.735  16.520  19.585  0.00  0.00    +0.000 A 
ATOM      7  C   UNL     1      -1.324  15.383  20.143  0.00  0.00    +0.000 A 
ATOM      8  C   UNL     1      -0.768  14.115  19.923  0.00  0.00    +0.000 A 
ATOM      9  C   UNL     1      -1.425  12.834  20.265  0.00  0.00    +0.000 A 
ATOM     10  N   UNL     1      -0.818  11.695  20.134  0.00  0.00    +0.000 NA
ATOM     11  N   UNL     1       0.463  11.609  19.670  0.00  0.00    +0.000 N 
ENDROOT
BRANCH   9  12
ATOM     12  C   UNL     1      -2.833  12.734  20.758  0.00  0.00    +0.000 A 
ATOM     13  C   UNL     1      -3.226  12.937  22.085  0.00  0.00    +0.000 A 
ATOM     14  C   UNL     1      -4.558  12.727  22.464  0.00  0.00    +0.000 A 
ATOM     15  C   UNL     1      -5.510  12.384  21.504  0.00  0.00    +0.000 A 
ATOM     16  C   UNL     1      -5.143  12.352  20.163  0.00  0.00    +0.000 A 
ATOM     17  C   UNL     1      -3.824  12.493  19.790  0.00  0.00    +0.000 A 
ATOM     18  O   UNL     1      -6.065  12.165  19.169  0.00  0.00    +0.000 OA
ATOM     19  C   UNL     1      -7.004  11.193  19.606  0.00  0.00    +0.000 C 
ATOM     20  C   UNL     1      -7.640  11.553  20.948  0.00  0.00    +0.000 C 
ATOM     21  O   UNL     1      -6.765  12.089  21.948  0.00  0.00    +0.000 OA
ENDBRANCH   9  12
BRANCH  11  22
ATOM     22  C   UNL     1       0.947  10.257  19.586  0.00  0.00    +0.000 A 
ATOM     23  C   UNL     1       0.971   9.393  20.691  0.00  0.00    +0.000 A 
ATOM     24  C   UNL     1       1.527   8.111  20.597  0.00  0.00    +0.000 A 
ATOM     25  C   UNL     1       2.059   7.677  19.393  0.00  0.00    +0.000 A 
ATOM     26  F   UNL     1       2.622   6.465  19.313  0.00  0.00    +0.000 F 
ATOM     27  C   UNL     1       2.016   8.488  18.269  0.00  0.00    +0.000 A 
ATOM     28  C   UNL     1       1.449   9.763  18.363  0.00  0.00    +0.000 A 
ENDBRANCH  11  22
TORSDOF 2
ENDMDL
