MODEL 1
REMARK VINA RESULT:      -8.3      0.000      0.000
REMARK  Name = 
REMARK  7 active torsions:
REMARK  status: ('A' for Active; 'I' for Inactive)
REMARK    1  A    between atoms: C_1  and  C_2
REMARK    2  A    between atoms: C_4  and  C_5
REMARK    3  A    between atoms: N_6  and  C_7
REMARK    4  A    between atoms: C_10  and  C_11
REMARK    5  A    between atoms: N_13  and  C_14
REMARK    6  A    between atoms: C_14  and  C_15
REMARK    7  A    between atoms: N_23  and  C_24
REMARK                            x       y       z     vdW  Elec       q    Type
REMARK                         _______ _______ _______ _____ _____    ______ ____
ROOT
ATOM      1  C   UNL     1       2.096   6.296  20.218  0.00  0.00    +0.000 C 
ATOM      2  O   UNL     1       1.330   5.543  20.795  0.00  0.00    +0.000 OA
ATOM      3  N   UNL     1       3.328   5.921  19.806  0.00  0.00    +0.000 N 
ATOM      4  H   UNL     1       4.021   6.606  19.506  0.00  0.00    +0.000 HD
ENDROOT
BRANCH   1   8
ATOM      5  C   UNL     1       1.013  10.410  19.376  0.00  0.00    +0.000 A 
ATOM      6  C   UNL     1       1.619   9.599  18.407  0.00  0.00    +0.000 A 
ATOM      7  C   UNL     1       1.963   8.270  18.710  0.00  0.00    +0.000 A 
ATOM      8  C   UNL     1       1.698   7.731  19.969  0.00  0.00    +0.000 A 
ATOM      9  C   UNL     1       1.125   8.538  20.962  0.00  0.00    +0.000 A 
ATOM     10  C   UNL     1       0.804   9.882  20.657  0.00  0.00    +0.000 A 
BRANCH   5  16
ATOM     11  C   UNL     1       1.701  15.156  18.774  0.00  0.00    +0.000 C 
ATOM     12  C   UNL     1       0.974  13.865  18.796  0.00  0.00    +0.000 A 
ATOM     13  C   UNL     1      -0.333  13.611  18.352  0.00  0.00    +0.000 A 
ATOM     14  C   UNL     1      -0.558  12.276  18.605  0.00  0.00    +0.000 A 
ATOM     15  C   UNL     1      -1.834  11.526  18.503  0.00  0.00    +0.000 C 
ATOM     16  N   UNL     1       0.647  11.764  19.086  0.00  0.00    +0.000 N 
ATOM     17  N   UNL     1       1.544  12.767  19.306  0.00  0.00    +0.000 NA
ENDBRANCH   5  16
ENDBRANCH   1   8
BRANCH   3  18
ATOM     18  C   UNL     1       3.854   4.583  20.060  0.00  0.00    +0.000 C 
BRANCH  18  19
ATOM     19  C   UNL     1       4.693   4.190  18.894  0.00  0.00    +0.000 A 
ATOM     20  N   UNL     1       5.999   4.364  18.803  0.00  0.00    +0.000 NA
ATOM     21  C   UNL     1       6.261   4.301  17.463  0.00  0.00    +0.000 A 
ATOM     22  C   UNL     1       7.447   4.578  16.779  0.00  0.00    +0.000 A 
ATOM     23  C   UNL     1       7.264   5.162  15.541  0.00  0.00    +0.000 A 
ATOM     24  C   UNL     1       6.119   4.901  14.799  0.00  0.00    +0.000 A 
ATOM     25  C   UNL     1       5.056   4.164  15.344  0.00  0.00    +0.000 A 
ATOM     26  C   UNL     1       5.109   4.031  16.733  0.00  0.00    +0.000 A 
ATOM     27  N   UNL     1       4.208   3.685  17.708  0.00  0.00    +0.000 N 
ATOM     28  C   UNL     1       2.980   2.952  17.535  0.00  0.00    +0.000 C 
ENDBRANCH  18  19
ENDBRANCH   3  18
TORSDOF 4
ENDMDL
MODEL 2
REMARK VINA RESULT:      -8.0      2.506      9.656
REMARK  Name = 
REMARK  7 active torsions:
REMARK  status: ('A' for Active; 'I' for Inactive)
REMARK    1  A    between atoms: C_1  and  C_2
REMARK    2  A    between atoms: C_4  and  C_5
REMARK    3  A    between atoms: N_6  and  C_7
REMARK    4  A    between atoms: C_10  and  C_11
REMARK    5  A    between atoms: N_13  and  C_14
REMARK    6  A    between atoms: C_14  and  C_15
REMARK    7  A    between atoms: N_23  and  C_24
REMARK                            x       y       z     vdW  Elec       q    Type
REMARK                         _______ _______ _______ _____ _____    ______ ____
ROOT
ATOM      1  C   UNL     1       0.614  10.511  19.563  0.00  0.00    +0.000 C 
ATOM      2  O   UNL     1       0.322  10.714  20.730  0.00  0.00    +0.000 OA
ATOM      3  N   UNL     1       0.228  11.324  18.554  0.00  0.00    +0.000 N 
ATOM      4  H   UNL     1       0.311  11.039  17.578  0.00  0.00    +0.000 HD
ENDROOT
BRANCH   1   8
ATOM      5  C   UNL     1       2.903   7.031  18.352  0.00  0.00    +0.000 A 
ATOM      6  C   UNL     1       2.642   8.083  17.464  0.00  0.00    +0.000 A 
ATOM      7  C   UNL     1       1.893   9.196  17.883  0.00  0.00    +0.000 A 
ATOM      8  C   UNL     1       1.408   9.283  19.188  0.00  0.00    +0.000 A 
ATOM      9  C   UNL     1       1.628   8.224  20.081  0.00  0.00    +0.000 A 
ATOM     10  C   UNL     1       2.362   7.096  19.644  0.00  0.00    +0.000 A 
BRANCH   5  16
ATOM     11  C   UNL     1       6.897   4.537  17.269  0.00  0.00    +0.000 C 
ATOM     12  C   UNL     1       5.455   4.790  17.497  0.00  0.00    +0.000 A 
ATOM     13  C   UNL     1       4.414   3.848  17.523  0.00  0.00    +0.000 A 
ATOM     14  C   UNL     1       3.264   4.574  17.746  0.00  0.00    +0.000 A 
ATOM     15  C   UNL     1       1.858   4.103  17.681  0.00  0.00    +0.000 C 
ATOM     16  N   UNL     1       3.670   5.892  17.949  0.00  0.00    +0.000 N 
ATOM     17  N   UNL     1       5.000   6.034  17.684  0.00  0.00    +0.000 NA
ENDBRANCH   5  16
ENDBRANCH   1   8
BRANCH   3  18
ATOM     18  C   UNL     1      -0.609  12.498  18.784  0.00  0.00    +0.000 C 
BRANCH  18  19
ATOM     19  C   UNL     1      -2.027  12.047  18.837  0.00  0.00    +0.000 A 
ATOM     20  N   UNL     1      -2.664  11.418  17.866  0.00  0.00    +0.000 NA
ATOM     21  C   UNL     1      -3.988  11.611  18.142  0.00  0.00    +0.000 A 
ATOM     22  C   UNL     1      -5.108  11.306  17.364  0.00  0.00    +0.000 A 
ATOM     23  C   UNL     1      -6.140  12.217  17.476  0.00  0.00    +0.000 A 
ATOM     24  C   UNL     1      -6.328  12.931  18.652  0.00  0.00    +0.000 A 
ATOM     25  C   UNL     1      -5.394  12.862  19.698  0.00  0.00    +0.000 A 
ATOM     26  C   UNL     1      -4.162  12.319  19.325  0.00  0.00    +0.000 A 
ATOM     27  N   UNL     1      -2.902  12.315  19.867  0.00  0.00    +0.000 N 
ATOM     28  C   UNL     1      -2.547  12.561  21.242  0.00  0.00    +0.000 C 
ENDBRANCH  18  19
ENDBRANCH   3  18
TORSDOF 4
ENDMDL
MODEL 3
REMARK VINA RESULT:      -7.9      0.892      1.288
REMARK  Name = 
REMARK  7 active torsions:
REMARK  status: ('A' for Active; 'I' for Inactive)
REMARK    1  A    between atoms: C_1  and  C_2
REMARK    2  A    between atoms: C_4  and  C_5
REMARK    3  A    between atoms: N_6  and  C_7
REMARK    4  A    between atoms: C_10  and  C_11
REMARK    5  A    between atoms: N_13  and  C_14
REMARK    6  A    between atoms: C_14  and  C_15
REMARK    7  A    between atoms: N_23  and  C_24
REMARK                            x       y       z     vdW  Elec       q    Type
REMARK                         _______ _______ _______ _____ _____    ______ ____
ROOT
ATOM      1  C   UNL     1       1.956   6.057  20.324  0.00  0.00    +0.000 C 
ATOM      2  O   UNL     1       1.106   5.259  20.681  0.00  0.00    +0.000 OA
ATOM      3  N   UNL     1       3.221   5.697  20.015  0.00  0.00    +0.000 N 
ATOM      4  H   UNL     1       3.963   6.390  19.910  0.00  0.00    +0.000 HD
ENDROOT
BRANCH   1   8
ATOM      5  C   UNL     1       0.947  10.275  20.242  0.00  0.00    +0.000 A 
ATOM      6  C   UNL     1       0.705   9.485  21.374  0.00  0.00    +0.000 A 
ATOM      7  C   UNL     1       1.038   8.120  21.370  0.00  0.00    +0.000 A 
ATOM      8  C   UNL     1       1.625   7.529  20.252  0.00  0.00    +0.000 A 
ATOM      9  C   UNL     1       1.843   8.295  19.097  0.00  0.00    +0.000 A 
ATOM     10  C   UNL     1       1.482   9.663  19.100  0.00  0.00    +0.000 A 
BRANCH   5  16
ATOM     11  C   UNL     1       1.403  14.943  21.407  0.00  0.00    +0.000 C 
ATOM     12  C   UNL     1       0.855  13.743  20.732  0.00  0.00    +0.000 A 
ATOM     13  C   UNL     1      -0.102  13.698  19.707  0.00  0.00    +0.000 A 
ATOM     14  C   UNL     1      -0.294  12.361  19.437  0.00  0.00    +0.000 A 
ATOM     15  C   UNL     1      -1.329  11.741  18.574  0.00  0.00    +0.000 C 
ATOM     16  N   UNL     1       0.623  11.670  20.227  0.00  0.00    +0.000 N 
ATOM     17  N   UNL     1       1.244  12.515  21.098  0.00  0.00    +0.000 NA
ENDBRANCH   5  16
ENDBRANCH   1   8
BRANCH   3  18
ATOM     18  C   UNL     1       3.681   4.316  20.123  0.00  0.00    +0.000 C 
BRANCH  18  19
ATOM     19  C   UNL     1       4.561   4.032  18.956  0.00  0.00    +0.000 A 
ATOM     20  N   UNL     1       5.865   4.237  18.917  0.00  0.00    +0.000 NA
ATOM     21  C   UNL     1       6.166   4.283  17.585  0.00  0.00    +0.000 A 
ATOM     22  C   UNL     1       7.364   4.636  16.960  0.00  0.00    +0.000 A 
ATOM     23  C   UNL     1       7.204   5.311  15.766  0.00  0.00    +0.000 A 
ATOM     24  C   UNL     1       6.087   5.086  14.972  0.00  0.00    +0.000 A 
ATOM     25  C   UNL     1       5.025   4.288  15.426  0.00  0.00    +0.000 A 
ATOM     26  C   UNL     1       5.042   4.049  16.802  0.00  0.00    +0.000 A 
ATOM     27  N   UNL     1       4.121   3.611  17.720  0.00  0.00    +0.000 N 
ATOM     28  C   UNL     1       2.914   2.870  17.454  0.00  0.00    +0.000 C 
ENDBRANCH  18  19
ENDBRANCH   3  18
TORSDOF 4
ENDMDL
MODEL 4
REMARK VINA RESULT:      -7.9      1.170      1.176
REMARK  Name = 
REMARK  7 active torsions:
REMARK  status: ('A' for Active; 'I' for Inactive)
REMARK    1  A    between atoms: C_1  and  C_2
REMARK    2  A    between atoms: C_4  and  C_5
REMARK    3  A    between atoms: N_6  and  C_7
REMARK    4  A    between atoms: C_10  and  C_11
REMARK    5  A    between atoms: N_13  and  C_14
REMARK    6  A    between atoms: C_14  and  C_15
REMARK    7  A    between atoms: N_23  and  C_24
REMARK                            x       y       z     vdW  Elec       q    Type
REMARK                         _______ _______ _______ _____ _____    ______ ____
ROOT
ATOM      1  C   UNL     1       2.283   5.973  19.435  0.00  0.00    +0.000 C 
ATOM      2  O   UNL     1       1.919   5.393  18.425  0.00  0.00    +0.000 OA
ATOM      3  N   UNL     1       3.057   5.393  20.379  0.00  0.00    +0.000 N 
ATOM      4  H   UNL     1       3.187   5.820  21.297  0.00  0.00    +0.000 HD
ENDROOT
BRANCH   1   8
ATOM      5  C   UNL     1       1.040  10.083  20.046  0.00  0.00    +0.000 A 
ATOM      6  C   UNL     1       1.548   9.646  18.816  0.00  0.00    +0.000 A 
ATOM      7  C   UNL     1       1.947   8.309  18.648  0.00  0.00    +0.000 A 
ATOM      8  C   UNL     1       1.834   7.392  19.692  0.00  0.00    +0.000 A 
ATOM      9  C   UNL     1       1.362   7.818  20.942  0.00  0.00    +0.000 A 
ATOM     10  C   UNL     1       0.985   9.172  21.110  0.00  0.00    +0.000 A 
BRANCH   5  16
ATOM     11  C   UNL     1       1.331  14.628  21.663  0.00  0.00    +0.000 C 
ATOM     12  C   UNL     1       0.776  13.460  20.939  0.00  0.00    +0.000 A 
ATOM     13  C   UNL     1      -0.317  13.439  20.059  0.00  0.00    +0.000 A 
ATOM     14  C   UNL     1      -0.452  12.125  19.667  0.00  0.00    +0.000 A 
ATOM     15  C   UNL     1      -1.557  11.510  18.892  0.00  0.00    +0.000 C 
ATOM     16  N   UNL     1       0.619  11.438  20.237  0.00  0.00    +0.000 N 
ATOM     17  N   UNL     1       1.301  12.240  21.103  0.00  0.00    +0.000 NA
ENDBRANCH   5  16
ENDBRANCH   1   8
BRANCH   3  18
ATOM     18  C   UNL     1       3.488   4.003  20.280  0.00  0.00    +0.000 C 
BRANCH  18  19
ATOM     19  C   UNL     1       4.536   3.921  19.225  0.00  0.00    +0.000 A 
ATOM     20  N   UNL     1       5.729   4.484  19.292  0.00  0.00    +0.000 NA
ATOM     21  C   UNL     1       6.152   4.547  17.994  0.00  0.00    +0.000 A 
ATOM     22  C   UNL     1       7.268   5.192  17.457  0.00  0.00    +0.000 A 
ATOM     23  C   UNL     1       7.062   5.734  16.203  0.00  0.00    +0.000 A 
ATOM     24  C   UNL     1       6.145   5.164  15.329  0.00  0.00    +0.000 A 
ATOM     25  C   UNL     1       5.301   4.122  15.745  0.00  0.00    +0.000 A 
ATOM     26  C   UNL     1       5.230   3.966  17.131  0.00  0.00    +0.000 A 
ATOM     27  N   UNL     1       4.370   3.332  17.991  0.00  0.00    +0.000 N 
ATOM     28  C   UNL     1       3.452   2.268  17.674  0.00  0.00    +0.000 C 
ENDBRANCH  18  19
ENDBRANCH   3  18
TORSDOF 4
ENDMDL
MODEL 5
REMARK VINA RESULT:      -7.9      1.125      1.866
REMARK  Name = 
REMARK  7 active torsions:
REMARK  status: ('A' for Active; 'I' for Inactive)
REMARK    1  A    between atoms: C_1  and  C_2
REMARK    2  A    between atoms: C_4  and  C_5
REMARK    3  A    between atoms: N_6  and  C_7
REMARK    4  A    between atoms: C_10  and  C_11
REMARK    5  A    between atoms: N_13  and  C_14
REMARK    6  A    between atoms: C_14  and  C_15
REMARK    7  A    between atoms: N_23  and  C_24
REMARK                            x       y       z     vdW  Elec       q    Type
REMARK                         _______ _______ _______ _____ _____    ______ ____
ROOT
ATOM      1  C   UNL     1       2.390   6.264  18.995  0.00  0.00    +0.000 C 
ATOM      2  O   UNL     1       2.126   5.576  18.023  0.00  0.00    +0.000 OA
ATOM      3  N   UNL     1       3.037   5.787  20.082  0.00  0.00    +0.000 N 
ATOM      4  H   UNL     1       3.075   6.314  20.954  0.00  0.00    +0.000 HD
ENDROOT
BRANCH   1   8
ATOM      5  C   UNL     1       1.103  10.398  19.248  0.00  0.00    +0.000 A 
ATOM      6  C   UNL     1       1.079   9.553  20.365  0.00  0.00    +0.000 A 
ATOM      7  C   UNL     1       1.498   8.217  20.252  0.00  0.00    +0.000 A 
ATOM      8  C   UNL     1       1.956   7.710  19.036  0.00  0.00    +0.000 A 
ATOM      9  C   UNL     1       1.953   8.530  17.899  0.00  0.00    +0.000 A 
ATOM     10  C   UNL     1       1.506   9.867  18.015  0.00  0.00    +0.000 A 
BRANCH   5  16
ATOM     11  C   UNL     1      -1.782  14.081  20.461  0.00  0.00    +0.000 C 
ATOM     12  C   UNL     1      -0.590  13.393  19.912  0.00  0.00    +0.000 A 
ATOM     13  C   UNL     1       0.597  13.978  19.444  0.00  0.00    +0.000 A 
ATOM     14  C   UNL     1       1.384  12.929  19.018  0.00  0.00    +0.000 A 
ATOM     15  C   UNL     1       2.661  12.991  18.265  0.00  0.00    +0.000 C 
ATOM     16  N   UNL     1       0.688  11.765  19.342  0.00  0.00    +0.000 N 
ATOM     17  N   UNL     1      -0.567  12.061  19.786  0.00  0.00    +0.000 NA
ENDBRANCH   5  16
ENDBRANCH   1   8
BRANCH   3  18
ATOM     18  C   UNL     1       3.437   4.387  20.191  0.00  0.00    +0.000 C 
BRANCH  18  19
ATOM     19  C   UNL     1       4.538   4.147  19.218  0.00  0.00    +0.000 A 
ATOM     20  N   UNL     1       5.737   4.701  19.272  0.00  0.00    +0.000 NA
ATOM     21  C   UNL     1       6.229   4.577  18.004  0.00  0.00    +0.000 A 
ATOM     22  C   UNL     1       7.385   5.129  17.445  0.00  0.00    +0.000 A 
ATOM     23  C   UNL     1       7.256   5.492  16.119  0.00  0.00    +0.000 A 
ATOM     24  C   UNL     1       6.377   4.816  15.283  0.00  0.00    +0.000 A 
ATOM     25  C   UNL     1       5.492   3.852  15.791  0.00  0.00    +0.000 A 
ATOM     26  C   UNL     1       5.344   3.891  17.180  0.00  0.00    +0.000 A 
ATOM     27  N   UNL     1       4.427   3.393  18.070  0.00  0.00    +0.000 N 
ATOM     28  C   UNL     1       3.508   2.306  17.853  0.00  0.00    +0.000 C 
ENDBRANCH  18  19
ENDBRANCH   3  18
TORSDOF 4
ENDMDL
MODEL 6
REMARK VINA RESULT:      -7.9      2.612      9.734
REMARK  Name = 
REMARK  7 active torsions:
REMARK  status: ('A' for Active; 'I' for Inactive)
REMARK    1  A    between atoms: C_1  and  C_2
REMARK    2  A    between atoms: C_4  and  C_5
REMARK    3  A    between atoms: N_6  and  C_7
REMARK    4  A    between atoms: C_10  and  C_11
REMARK    5  A    between atoms: N_13  and  C_14
REMARK    6  A    between atoms: C_14  and  C_15
REMARK    7  A    between atoms: N_23  and  C_24
REMARK                            x       y       z     vdW  Elec       q    Type
REMARK                         _______ _______ _______ _____ _____    ______ ____
ROOT
ATOM      1  C   UNL     1       0.343  10.428  20.043  0.00  0.00    +0.000 C 
ATOM      2  O   UNL     1      -0.001  10.401  21.213  0.00  0.00    +0.000 OA
ATOM      3  N   UNL     1      -0.003  11.423  19.196  0.00  0.00    +0.000 N 
ATOM      4  H   UNL     1       0.125  11.334  18.188  0.00  0.00    +0.000 HD
ENDROOT
BRANCH   1   8
ATOM      5  C   UNL     1       2.698   7.116  18.528  0.00  0.00    +0.000 A 
ATOM      6  C   UNL     1       2.237   7.143  19.851  0.00  0.00    +0.000 A 
ATOM      7  C   UNL     1       1.480   8.232  20.316  0.00  0.00    +0.000 A 
ATOM      8  C   UNL     1       1.162   9.295  19.471  0.00  0.00    +0.000 A 
ATOM      9  C   UNL     1       1.644   9.303  18.154  0.00  0.00    +0.000 A 
ATOM     10  C   UNL     1       2.426   8.214  17.701  0.00  0.00    +0.000 A 
BRANCH   5  16
ATOM     11  C   UNL     1       6.683   4.738  17.179  0.00  0.00    +0.000 C 
ATOM     12  C   UNL     1       5.245   4.960  17.462  0.00  0.00    +0.000 A 
ATOM     13  C   UNL     1       4.214   4.008  17.454  0.00  0.00    +0.000 A 
ATOM     14  C   UNL     1       3.064   4.706  17.754  0.00  0.00    +0.000 A 
ATOM     15  C   UNL     1       1.661   4.227  17.696  0.00  0.00    +0.000 C 
ATOM     16  N   UNL     1       3.464   6.012  18.032  0.00  0.00    +0.000 N 
ATOM     17  N   UNL     1       4.784   6.185  17.741  0.00  0.00    +0.000 NA
ENDBRANCH   5  16
ENDBRANCH   1   8
BRANCH   3  18
ATOM     18  C   UNL     1      -0.856  12.531  19.613  0.00  0.00    +0.000 C 
BRANCH  18  19
ATOM     19  C   UNL     1      -2.273  12.127  19.395  0.00  0.00    +0.000 A 
ATOM     20  N   UNL     1      -2.731  11.500  18.326  0.00  0.00    +0.000 NA
ATOM     21  C   UNL     1      -4.076  11.740  18.337  0.00  0.00    +0.000 A 
ATOM     22  C   UNL     1      -5.034  11.457  17.360  0.00  0.00    +0.000 A 
ATOM     23  C   UNL     1      -6.036  12.401  17.259  0.00  0.00    +0.000 A 
ATOM     24  C   UNL     1      -6.424  13.143  18.368  0.00  0.00    +0.000 A 
ATOM     25  C   UNL     1      -5.713  13.063  19.576  0.00  0.00    +0.000 A 
ATOM     26  C   UNL     1      -4.451  12.475  19.455  0.00  0.00    +0.000 A 
ATOM     27  N   UNL     1      -3.321  12.441  20.232  0.00  0.00    +0.000 N 
ATOM     28  C   UNL     1      -3.231  12.700  21.646  0.00  0.00    +0.000 C 
ENDBRANCH  18  19
ENDBRANCH   3  18
TORSDOF 4
ENDMDL
MODEL 7
REMARK VINA RESULT:      -7.9      2.131      2.585
REMARK  Name = 
REMARK  7 active torsions:
REMARK  status: ('A' for Active; 'I' for Inactive)
REMARK    1  A    between atoms: C_1  and  C_2
REMARK    2  A    between atoms: C_4  and  C_5
REMARK    3  A    between atoms: N_6  and  C_7
REMARK    4  A    between atoms: C_10  and  C_11
REMARK    5  A    between atoms: N_13  and  C_14
REMARK    6  A    between atoms: C_14  and  C_15
REMARK    7  A    between atoms: N_23  and  C_24
REMARK                            x       y       z     vdW  Elec       q    Type
REMARK                         _______ _______ _______ _____ _____    ______ ____
ROOT
ATOM      1  C   UNL     1       2.196   6.809  19.328  0.00  0.00    +0.000 C 
ATOM      2  O   UNL     1       2.101   6.579  18.134  0.00  0.00    +0.000 OA
ATOM      3  N   UNL     1       2.704   5.921  20.212  0.00  0.00    +0.000 N 
ATOM      4  H   UNL     1       2.597   6.049  21.218  0.00  0.00    +0.000 HD
ENDROOT
BRANCH   1   8
ATOM      5  C   UNL     1       0.760  10.519  21.057  0.00  0.00    +0.000 A 
ATOM      6  C   UNL     1       1.068   9.409  21.855  0.00  0.00    +0.000 A 
ATOM      7  C   UNL     1       1.527   8.218  21.266  0.00  0.00    +0.000 A 
ATOM      8  C   UNL     1       1.698   8.121  19.886  0.00  0.00    +0.000 A 
ATOM      9  C   UNL     1       1.361   9.209  19.067  0.00  0.00    +0.000 A 
ATOM     10  C   UNL     1       0.877  10.397  19.665  0.00  0.00    +0.000 A 
BRANCH   5  16
ATOM     11  C   UNL     1       0.596  15.295  21.775  0.00  0.00    +0.000 C 
ATOM     12  C   UNL     1       0.219  13.870  21.923  0.00  0.00    +0.000 A 
ATOM     13  C   UNL     1      -0.882  13.343  22.617  0.00  0.00    +0.000 A 
ATOM     14  C   UNL     1      -0.783  11.975  22.484  0.00  0.00    +0.000 A 
ATOM     15  C   UNL     1      -1.578  10.928  23.173  0.00  0.00    +0.000 C 
ATOM     16  N   UNL     1       0.299  11.744  21.636  0.00  0.00    +0.000 N 
ATOM     17  N   UNL     1       0.974  12.903  21.389  0.00  0.00    +0.000 NA
ENDBRANCH   5  16
ENDBRANCH   1   8
BRANCH   3  18
ATOM     18  C   UNL     1       3.146   4.591  19.804  0.00  0.00    +0.000 C 
BRANCH  18  19
ATOM     19  C   UNL     1       4.517   4.715  19.237  0.00  0.00    +0.000 A 
ATOM     20  N   UNL     1       5.614   4.938  19.939  0.00  0.00    +0.000 NA
ATOM     21  C   UNL     1       6.511   5.422  19.030  0.00  0.00    +0.000 A 
ATOM     22  C   UNL     1       7.777   5.975  19.242  0.00  0.00    +0.000 A 
ATOM     23  C   UNL     1       8.100   7.001  18.377  0.00  0.00    +0.000 A 
ATOM     24  C   UNL     1       7.572   7.036  17.093  0.00  0.00    +0.000 A 
ATOM     25  C   UNL     1       6.586   6.120  16.691  0.00  0.00    +0.000 A 
ATOM     26  C   UNL     1       5.974   5.443  17.748  0.00  0.00    +0.000 A 
ATOM     27  N   UNL     1       4.819   4.717  17.893  0.00  0.00    +0.000 N 
ATOM     28  C   UNL     1       4.050   4.090  16.849  0.00  0.00    +0.000 C 
ENDBRANCH  18  19
ENDBRANCH   3  18
TORSDOF 4
ENDMDL
MODEL 8
REMARK VINA RESULT:      -7.9      2.218      2.745
REMARK  Name = 
REMARK  7 active torsions:
REMARK  status: ('A' for Active; 'I' for Inactive)
REMARK    1  A    between atoms: C_1  and  C_2
REMARK    2  A    between atoms: C_4  and  C_5
REMARK    3  A    between atoms: N_6  and  C_7
REMARK    4  A    between atoms: C_10  and  C_11
REMARK    5  A    between atoms: N_13  and  C_14
REMARK    6  A    between atoms: C_14  and  C_15
REMARK    7  A    between atoms: N_23  and  C_24
REMARK                            x       y       z     vdW  Elec       q    Type
REMARK                         _______ _______ _______ _____ _____    ______ ____
ROOT
ATOM      1  C   UNL     1       2.334   6.568  19.269  0.00  0.00    +0.000 C 
ATOM      2  O   UNL     1       2.325   6.402  18.061  0.00  0.00    +0.000 OA
ATOM      3  N   UNL     1       2.828   5.655  20.135  0.00  0.00    +0.000 N 
ATOM      4  H   UNL     1       2.652   5.721  21.137  0.00  0.00    +0.000 HD
ENDROOT
BRANCH   1   8
ATOM      5  C   UNL     1       0.640  10.235  20.849  0.00  0.00    +0.000 A 
ATOM      6  C   UNL     1       0.967  10.103  19.493  0.00  0.00    +0.000 A 
ATOM      7  C   UNL     1       1.519   8.904  19.010  0.00  0.00    +0.000 A 
ATOM      8  C   UNL     1       1.739   7.823  19.863  0.00  0.00    +0.000 A 
ATOM      9  C   UNL     1       1.452   7.948  21.230  0.00  0.00    +0.000 A 
ATOM     10  C   UNL     1       0.919   9.167  21.713  0.00  0.00    +0.000 A 
BRANCH   5  16
ATOM     11  C   UNL     1      -2.515  12.957  23.297  0.00  0.00    +0.000 C 
ATOM     12  C   UNL     1      -1.324  12.637  22.475  0.00  0.00    +0.000 A 
ATOM     13  C   UNL     1      -0.290  13.506  22.092  0.00  0.00    +0.000 A 
ATOM     14  C   UNL     1       0.563  12.747  21.320  0.00  0.00    +0.000 A 
ATOM     15  C   UNL     1       1.717  13.208  20.509  0.00  0.00    +0.000 C 
ATOM     16  N   UNL     1       0.069  11.444  21.361  0.00  0.00    +0.000 N 
ATOM     17  N   UNL     1      -1.146  11.408  21.976  0.00  0.00    +0.000 NA
ENDBRANCH   5  16
ENDBRANCH   1   8
BRANCH   3  18
ATOM     18  C   UNL     1       3.357   4.371  19.686  0.00  0.00    +0.000 C 
BRANCH  18  19
ATOM     19  C   UNL     1       4.726   4.601  19.147  0.00  0.00    +0.000 A 
ATOM     20  N   UNL     1       5.793   4.883  19.874  0.00  0.00    +0.000 NA
ATOM     21  C   UNL     1       6.670   5.447  18.991  0.00  0.00    +0.000 A 
ATOM     22  C   UNL     1       7.891   6.080  19.238  0.00  0.00    +0.000 A 
ATOM     23  C   UNL     1       8.157   7.145  18.399  0.00  0.00    +0.000 A 
ATOM     24  C   UNL     1       7.650   7.171  17.106  0.00  0.00    +0.000 A 
ATOM     25  C   UNL     1       6.737   6.198  16.668  0.00  0.00    +0.000 A 
ATOM     26  C   UNL     1       6.154   5.458  17.700  0.00  0.00    +0.000 A 
ATOM     27  N   UNL     1       5.050   4.652  17.809  0.00  0.00    +0.000 N 
ATOM     28  C   UNL     1       4.344   3.996  16.739  0.00  0.00    +0.000 C 
ENDBRANCH  18  19
ENDBRANCH   3  18
TORSDOF 4
ENDMDL
MODEL 9
REMARK VINA RESULT:      -7.8      1.802      8.818
REMARK  Name = 
REMARK  7 active torsions:
REMARK  status: ('A' for Active; 'I' for Inactive)
REMARK    1  A    between atoms: C_1  and  C_2
REMARK    2  A    between atoms: C_4  and  C_5
REMARK    3  A    between atoms: N_6  and  C_7
REMARK    4  A    between atoms: C_10  and  C_11
REMARK    5  A    between atoms: N_13  and  C_14
REMARK    6  A    between atoms: C_14  and  C_15
REMARK    7  A    between atoms: N_23  and  C_24
REMARK                            x       y       z     vdW  Elec       q    Type
REMARK                         _______ _______ _______ _____ _____    ______ ____
ROOT
ATOM      1  C   UNL     1       1.877   6.360  20.277  0.00  0.00    +0.000 C 
ATOM      2  O   UNL     1       1.166   5.574  20.879  0.00  0.00    +0.000 OA
ATOM      3  N   UNL     1       1.876   7.690  20.519  0.00  0.00    +0.000 N 
ATOM      4  H   UNL     1       2.324   8.349  19.883  0.00  0.00    +0.000 HD
ENDROOT
BRANCH   1   8
ATOM      5  C   UNL     1       4.506   5.074  17.076  0.00  0.00    +0.000 A 
ATOM      6  C   UNL     1       4.302   6.431  17.356  0.00  0.00    +0.000 A 
ATOM      7  C   UNL     1       3.440   6.819  18.396  0.00  0.00    +0.000 A 
ATOM      8  C   UNL     1       2.786   5.866  19.176  0.00  0.00    +0.000 A 
ATOM      9  C   UNL     1       2.949   4.503  18.888  0.00  0.00    +0.000 A 
ATOM     10  C   UNL     1       3.799   4.122  17.823  0.00  0.00    +0.000 A 
BRANCH   5  16
ATOM     11  C   UNL     1       5.738   3.711  12.606  0.00  0.00    +0.000 C 
ATOM     12  C   UNL     1       5.921   4.079  14.029  0.00  0.00    +0.000 A 
ATOM     13  C   UNL     1       7.131   4.271  14.715  0.00  0.00    +0.000 A 
ATOM     14  C   UNL     1       6.778   4.575  16.012  0.00  0.00    +0.000 A 
ATOM     15  C   UNL     1       7.661   4.689  17.198  0.00  0.00    +0.000 C 
ATOM     16  N   UNL     1       5.386   4.657  16.026  0.00  0.00    +0.000 N 
ATOM     17  N   UNL     1       4.866   4.242  14.836  0.00  0.00    +0.000 NA
ENDBRANCH   5  16
ENDBRANCH   1   8
BRANCH   3  18
ATOM     18  C   UNL     1       0.984   8.295  21.504  0.00  0.00    +0.000 C 
BRANCH  18  19
ATOM     19  C   UNL     1       0.510   9.596  20.956  0.00  0.00    +0.000 A 
ATOM     20  N   UNL     1       0.644   9.990  19.702  0.00  0.00    +0.000 NA
ATOM     21  C   UNL     1       0.505  11.348  19.752  0.00  0.00    +0.000 A 
ATOM     22  C   UNL     1       0.716  12.297  18.748  0.00  0.00    +0.000 A 
ATOM     23  C   UNL     1       1.239  13.492  19.199  0.00  0.00    +0.000 A 
ATOM     24  C   UNL     1       0.969  13.942  20.485  0.00  0.00    +0.000 A 
ATOM     25  C   UNL     1       0.289  13.130  21.407  0.00  0.00    +0.000 A 
ATOM     26  C   UNL     1       0.227  11.783  21.042  0.00  0.00    +0.000 A 
ATOM     27  N   UNL     1      -0.044  10.612  21.704  0.00  0.00    +0.000 N 
ATOM     28  C   UNL     1      -0.753  10.462  22.949  0.00  0.00    +0.000 C 
ENDBRANCH  18  19
ENDBRANCH   3  18
TORSDOF 4
ENDMDL
