MODEL 1
REMARK VINA RESULT:      -8.6      0.000      0.000
REMARK  Name = 
REMARK  4 active torsions:
REMARK  status: ('A' for Active; 'I' for Inactive)
REMARK    1  A    between atoms: C_2  and  C_20
REMARK    2  A    between atoms: N_3  and  C_4
REMARK    3  A    between atoms: C_7  and  C_8
REMARK    4  A    between atoms: C_8  and  C_9
REMARK                            x       y       z     vdW  Elec       q    Type
REMARK                         _______ _______ _______ _____ _____    ______ ____
ROOT
ATOM      1  C   UNL     1       7.920   7.136  18.469  0.00  0.00    +0.000 A 
ATOM      2  C   UNL     1       7.245   7.058  17.250  0.00  0.00    +0.000 A 
ATOM      3  C   UNL     1       6.368   6.011  16.976  0.00  0.00    +0.000 A 
ATOM      4  C   UNL     1       6.165   4.990  17.908  0.00  0.00    +0.000 A 
ATOM      5  C   UNL     1       6.867   5.042  19.122  0.00  0.00    +0.000 A 
ATOM      6  C   UNL     1       7.748   6.102  19.395  0.00  0.00    +0.000 A 
ENDROOT
BRANCH   1   9
ATOM      7  O   UNL     1       7.588   9.953  17.762  0.00  0.00    +0.000 OA
ATOM      8  C   UNL     1       8.556   9.534  18.394  0.00  0.00    +0.000 C 
ATOM      9  N   UNL     1       8.762   8.223  18.795  0.00  0.00    +0.000 N 
ATOM     10  H   UNL     1       9.532   8.075  19.443  0.00  0.00    +0.000 HD
BRANCH   8  11
ATOM     11  C   UNL     1       9.599  10.516  18.811  0.00  0.00    +0.000 A 
ATOM     12  C   UNL     1      10.444  11.037  17.832  0.00  0.00    +0.000 A 
ATOM     13  C   UNL     1      11.449  11.910  18.218  0.00  0.00    +0.000 A 
ATOM     14  C   UNL     1      11.582  12.230  19.563  0.00  0.00    +0.000 A 
ATOM     15  C   UNL     1      10.689  11.671  20.470  0.00  0.00    +0.000 A 
ATOM     16  N   UNL     1       9.688  10.823  20.134  0.00  0.00    +0.000 NA
ENDBRANCH   8  11
ENDBRANCH   1   9
BRANCH   4  17
ATOM     17  C   UNL     1       5.174   3.893  17.601  0.00  0.00    +0.000 C 
BRANCH  17  18
ATOM     18  C   UNL     1       3.775   4.173  18.021  0.00  0.00    +0.000 A 
ATOM     19  N   UNL     1       2.884   4.844  17.314  0.00  0.00    +0.000 NA
ATOM     20  N   UNL     1       1.673   4.771  17.962  0.00  0.00    +0.000 NA
ATOM     21  C   UNL     1       1.843   4.062  19.054  0.00  0.00    +0.000 A 
ATOM     22  C   UNL     1       0.949   3.635  20.073  0.00  0.00    +0.000 A 
ATOM     23  C   UNL     1       1.417   2.913  21.110  0.00  0.00    +0.000 A 
ATOM     24  C   UNL     1       2.826   2.566  21.218  0.00  0.00    +0.000 A 
ATOM     25  C   UNL     1       3.668   2.948  20.242  0.00  0.00    +0.000 A 
ATOM     26  N   UNL     1       3.176   3.683  19.164  0.00  0.00    +0.000 N 
ENDBRANCH  17  18
ENDBRANCH   4  17
TORSDOF 4
ENDMDL
MODEL 2
REMARK VINA RESULT:      -8.5      1.191      1.899
REMARK  Name = 
REMARK  4 active torsions:
REMARK  status: ('A' for Active; 'I' for Inactive)
REMARK    1  A    between atoms: C_2  and  C_20
REMARK    2  A    between atoms: N_3  and  C_4
REMARK    3  A    between atoms: C_7  and  C_8
REMARK    4  A    between atoms: C_8  and  C_9
REMARK                            x       y       z     vdW  Elec       q    Type
REMARK                         _______ _______ _______ _____ _____    ______ ____
ROOT
ATOM      1  C   UNL     1       7.941   7.348  18.345  0.00  0.00    +0.000 A 
ATOM      2  C   UNL     1       7.100   7.475  17.238  0.00  0.00    +0.000 A 
ATOM      3  C   UNL     1       6.234   6.449  16.867  0.00  0.00    +0.000 A 
ATOM      4  C   UNL     1       6.206   5.248  17.581  0.00  0.00    +0.000 A 
ATOM      5  C   UNL     1       7.073   5.099  18.673  0.00  0.00    +0.000 A 
ATOM      6  C   UNL     1       7.944   6.137  19.046  0.00  0.00    +0.000 A 
ENDROOT
BRANCH   1   9
ATOM      7  O   UNL     1       7.772  10.187  17.669  0.00  0.00    +0.000 OA
ATOM      8  C   UNL     1       8.655   9.724  18.388  0.00  0.00    +0.000 C 
ATOM      9  N   UNL     1       8.778   8.399  18.779  0.00  0.00    +0.000 N 
ATOM     10  H   UNL     1       9.472   8.214  19.500  0.00  0.00    +0.000 HD
BRANCH   8  11
ATOM     11  C   UNL     1       9.681  10.662  18.931  0.00  0.00    +0.000 A 
ATOM     12  C   UNL     1       9.633  10.977  20.288  0.00  0.00    +0.000 A 
ATOM     13  C   UNL     1      10.550  11.888  20.791  0.00  0.00    +0.000 A 
ATOM     14  C   UNL     1      11.477  12.456  19.927  0.00  0.00    +0.000 A 
ATOM     15  C   UNL     1      11.459  12.076  18.590  0.00  0.00    +0.000 A 
ATOM     16  N   UNL     1      10.588  11.184  18.060  0.00  0.00    +0.000 NA
ENDBRANCH   8  11
ENDBRANCH   1   9
BRANCH   4  17
ATOM     17  C   UNL     1       5.225   4.172  17.182  0.00  0.00    +0.000 C 
BRANCH  17  18
ATOM     18  C   UNL     1       4.258   3.779  18.242  0.00  0.00    +0.000 A 
ATOM     19  N   UNL     1       4.132   2.569  18.753  0.00  0.00    +0.000 NA
ATOM     20  N   UNL     1       3.243   2.630  19.801  0.00  0.00    +0.000 NA
ATOM     21  C   UNL     1       2.838   3.874  19.912  0.00  0.00    +0.000 A 
ATOM     22  C   UNL     1       1.964   4.523  20.825  0.00  0.00    +0.000 A 
ATOM     23  C   UNL     1       1.713   5.840  20.685  0.00  0.00    +0.000 A 
ATOM     24  C   UNL     1       2.312   6.616  19.611  0.00  0.00    +0.000 A 
ATOM     25  C   UNL     1       3.159   6.009  18.762  0.00  0.00    +0.000 A 
ATOM     26  N   UNL     1       3.425   4.649  18.918  0.00  0.00    +0.000 N 
ENDBRANCH  17  18
ENDBRANCH   4  17
TORSDOF 4
ENDMDL
MODEL 3
REMARK VINA RESULT:      -8.4      5.164      7.818
REMARK  Name = 
REMARK  4 active torsions:
REMARK  status: ('A' for Active; 'I' for Inactive)
REMARK    1  A    between atoms: C_2  and  C_20
REMARK    2  A    between atoms: N_3  and  C_4
REMARK    3  A    between atoms: C_7  and  C_8
REMARK    4  A    between atoms: C_8  and  C_9
REMARK                            x       y       z     vdW  Elec       q    Type
REMARK                         _______ _______ _______ _____ _____    ______ ____
ROOT
ATOM      1  C   UNL     1       1.491   7.582  20.154  0.00  0.00    +0.000 A 
ATOM      2  C   UNL     1       1.397   6.408  20.905  0.00  0.00    +0.000 A 
ATOM      3  C   UNL     1       2.223   5.317  20.646  0.00  0.00    +0.000 A 
ATOM      4  C   UNL     1       3.151   5.359  19.602  0.00  0.00    +0.000 A 
ATOM      5  C   UNL     1       3.227   6.521  18.820  0.00  0.00    +0.000 A 
ATOM      6  C   UNL     1       2.394   7.621  19.087  0.00  0.00    +0.000 A 
ENDROOT
BRANCH   1   9
ATOM      7  O   UNL     1       1.639   9.328  22.495  0.00  0.00    +0.000 OA
ATOM      8  C   UNL     1       0.817   9.487  21.595  0.00  0.00    +0.000 C 
ATOM      9  N   UNL     1       0.711   8.723  20.442  0.00  0.00    +0.000 N 
ATOM     10  H   UNL     1       0.081   9.085  19.730  0.00  0.00    +0.000 HD
BRANCH   8  11
ATOM     11  C   UNL     1      -0.143  10.624  21.715  0.00  0.00    +0.000 A 
ATOM     12  C   UNL     1      -0.683  11.157  20.546  0.00  0.00    +0.000 A 
ATOM     13  C   UNL     1      -1.536  12.246  20.645  0.00  0.00    +0.000 A 
ATOM     14  C   UNL     1      -1.817  12.768  21.901  0.00  0.00    +0.000 A 
ATOM     15  C   UNL     1      -1.241  12.166  23.015  0.00  0.00    +0.000 A 
ATOM     16  N   UNL     1      -0.412  11.097  22.963  0.00  0.00    +0.000 NA
ENDBRANCH   8  11
ENDBRANCH   1   9
BRANCH   4  17
ATOM     17  C   UNL     1       4.063   4.178  19.374  0.00  0.00    +0.000 C 
BRANCH  17  18
ATOM     18  C   UNL     1       5.367   4.505  18.737  0.00  0.00    +0.000 A 
ATOM     19  N   UNL     1       6.494   4.748  19.379  0.00  0.00    +0.000 NA
ATOM     20  N   UNL     1       7.505   4.865  18.455  0.00  0.00    +0.000 NA
ATOM     21  C   UNL     1       6.980   4.696  17.263  0.00  0.00    +0.000 A 
ATOM     22  C   UNL     1       7.544   4.672  15.958  0.00  0.00    +0.000 A 
ATOM     23  C   UNL     1       6.744   4.491  14.890  0.00  0.00    +0.000 A 
ATOM     24  C   UNL     1       5.306   4.326  15.039  0.00  0.00    +0.000 A 
ATOM     25  C   UNL     1       4.775   4.323  16.273  0.00  0.00    +0.000 A 
ATOM     26  N   UNL     1       5.610   4.499  17.377  0.00  0.00    +0.000 N 
ENDBRANCH  17  18
ENDBRANCH   4  17
TORSDOF 4
ENDMDL
MODEL 4
REMARK VINA RESULT:      -8.3      6.061      7.814
REMARK  Name = 
REMARK  4 active torsions:
REMARK  status: ('A' for Active; 'I' for Inactive)
REMARK    1  A    between atoms: C_2  and  C_20
REMARK    2  A    between atoms: N_3  and  C_4
REMARK    3  A    between atoms: C_7  and  C_8
REMARK    4  A    between atoms: C_8  and  C_9
REMARK                            x       y       z     vdW  Elec       q    Type
REMARK                         _______ _______ _______ _____ _____    ______ ____
ROOT
ATOM      1  C   UNL     1       0.869   9.502  19.939  0.00  0.00    +0.000 A 
ATOM      2  C   UNL     1       1.172   9.788  18.607  0.00  0.00    +0.000 A 
ATOM      3  C   UNL     1       1.954   8.925  17.842  0.00  0.00    +0.000 A 
ATOM      4  C   UNL     1       2.481   7.759  18.402  0.00  0.00    +0.000 A 
ATOM      5  C   UNL     1       2.211   7.481  19.750  0.00  0.00    +0.000 A 
ATOM      6  C   UNL     1       1.420   8.353  20.518  0.00  0.00    +0.000 A 
ENDROOT
BRANCH   1   9
ATOM      7  O   UNL     1       1.545  11.989  21.319  0.00  0.00    +0.000 OA
ATOM      8  C   UNL     1       0.426  11.482  21.368  0.00  0.00    +0.000 C 
ATOM      9  N   UNL     1       0.024  10.328  20.713  0.00  0.00    +0.000 N 
ATOM     10  H   UNL     1      -0.975  10.134  20.733  0.00  0.00    +0.000 HD
BRANCH   8  11
ATOM     11  C   UNL     1      -0.623  12.176  22.171  0.00  0.00    +0.000 A 
ATOM     12  C   UNL     1      -1.663  11.412  22.698  0.00  0.00    +0.000 A 
ATOM     13  C   UNL     1      -2.669  12.055  23.402  0.00  0.00    +0.000 A 
ATOM     14  C   UNL     1      -2.609  13.435  23.552  0.00  0.00    +0.000 A 
ATOM     15  C   UNL     1      -1.529  14.116  23.001  0.00  0.00    +0.000 A 
ATOM     16  N   UNL     1      -0.521  13.526  22.316  0.00  0.00    +0.000 NA
ENDBRANCH   8  11
ENDBRANCH   1   9
BRANCH   4  17
ATOM     17  C   UNL     1       3.287   6.820  17.536  0.00  0.00    +0.000 C 
BRANCH  17  18
ATOM     18  C   UNL     1       3.744   5.577  18.213  0.00  0.00    +0.000 A 
ATOM     19  N   UNL     1       4.930   5.395  18.763  0.00  0.00    +0.000 NA
ATOM     20  N   UNL     1       4.928   4.183  19.412  0.00  0.00    +0.000 NA
ATOM     21  C   UNL     1       3.743   3.641  19.246  0.00  0.00    +0.000 A 
ATOM     22  C   UNL     1       3.164   2.431  19.716  0.00  0.00    +0.000 A 
ATOM     23  C   UNL     1       1.902   2.116  19.365  0.00  0.00    +0.000 A 
ATOM     24  C   UNL     1       1.115   2.986  18.505  0.00  0.00    +0.000 A 
ATOM     25  C   UNL     1       1.652   4.142  18.080  0.00  0.00    +0.000 A 
ATOM     26  N   UNL     1       2.955   4.470  18.457  0.00  0.00    +0.000 N 
ENDBRANCH  17  18
ENDBRANCH   4  17
TORSDOF 4
ENDMDL
MODEL 5
REMARK VINA RESULT:      -8.3      5.172      7.982
REMARK  Name = 
REMARK  4 active torsions:
REMARK  status: ('A' for Active; 'I' for Inactive)
REMARK    1  A    between atoms: C_2  and  C_20
REMARK    2  A    between atoms: N_3  and  C_4
REMARK    3  A    between atoms: C_7  and  C_8
REMARK    4  A    between atoms: C_8  and  C_9
REMARK                            x       y       z     vdW  Elec       q    Type
REMARK                         _______ _______ _______ _____ _____    ______ ____
ROOT
ATOM      1  C   UNL     1       1.398   7.682  20.331  0.00  0.00    +0.000 A 
ATOM      2  C   UNL     1       2.335   7.721  19.297  0.00  0.00    +0.000 A 
ATOM      3  C   UNL     1       3.104   6.604  18.976  0.00  0.00    +0.000 A 
ATOM      4  C   UNL     1       2.977   5.419  19.705  0.00  0.00    +0.000 A 
ATOM      5  C   UNL     1       2.063   5.382  20.769  0.00  0.00    +0.000 A 
ATOM      6  C   UNL     1       1.287   6.510  21.087  0.00  0.00    +0.000 A 
ENDROOT
BRANCH   1   9
ATOM      7  O   UNL     1       1.604   9.554  22.567  0.00  0.00    +0.000 OA
ATOM      8  C   UNL     1       0.702   9.608  21.733  0.00  0.00    +0.000 C 
ATOM      9  N   UNL     1       0.561   8.779  20.630  0.00  0.00    +0.000 N 
ATOM     10  H   UNL     1      -0.149   9.058  19.956  0.00  0.00    +0.000 HD
BRANCH   8  11
ATOM     11  C   UNL     1      -0.326  10.679  21.880  0.00  0.00    +0.000 A 
ATOM     12  C   UNL     1      -1.048  10.742  23.071  0.00  0.00    +0.000 A 
ATOM     13  C   UNL     1      -2.040  11.702  23.197  0.00  0.00    +0.000 A 
ATOM     14  C   UNL     1      -2.283  12.561  22.133  0.00  0.00    +0.000 A 
ATOM     15  C   UNL     1      -1.508  12.434  20.986  0.00  0.00    +0.000 A 
ATOM     16  N   UNL     1      -0.523  11.518  20.826  0.00  0.00    +0.000 NA
ENDBRANCH   8  11
ENDBRANCH   1   9
BRANCH   4  17
ATOM     17  C   UNL     1       3.791   4.213  19.306  0.00  0.00    +0.000 C 
BRANCH  17  18
ATOM     18  C   UNL     1       5.148   4.518  18.777  0.00  0.00    +0.000 A 
ATOM     19  N   UNL     1       6.225   4.733  19.510  0.00  0.00    +0.000 NA
ATOM     20  N   UNL     1       7.309   4.837  18.671  0.00  0.00    +0.000 NA
ATOM     21  C   UNL     1       6.878   4.687  17.439  0.00  0.00    +0.000 A 
ATOM     22  C   UNL     1       7.544   4.661  16.183  0.00  0.00    +0.000 A 
ATOM     23  C   UNL     1       6.828   4.504  15.053  0.00  0.00    +0.000 A 
ATOM     24  C   UNL     1       5.380   4.368  15.085  0.00  0.00    +0.000 A 
ATOM     25  C   UNL     1       4.752   4.366  16.273  0.00  0.00    +0.000 A 
ATOM     26  N   UNL     1       5.499   4.516  17.441  0.00  0.00    +0.000 N 
ENDBRANCH  17  18
ENDBRANCH   4  17
TORSDOF 4
ENDMDL
MODEL 6
REMARK VINA RESULT:      -8.3      1.429      1.831
REMARK  Name = 
REMARK  4 active torsions:
REMARK  status: ('A' for Active; 'I' for Inactive)
REMARK    1  A    between atoms: C_2  and  C_20
REMARK    2  A    between atoms: N_3  and  C_4
REMARK    3  A    between atoms: C_7  and  C_8
REMARK    4  A    between atoms: C_8  and  C_9
REMARK                            x       y       z     vdW  Elec       q    Type
REMARK                         _______ _______ _______ _____ _____    ______ ____
ROOT
ATOM      1  C   UNL     1       7.573   7.944  17.824  0.00  0.00    +0.000 A 
ATOM      2  C   UNL     1       8.173   6.966  18.620  0.00  0.00    +0.000 A 
ATOM      3  C   UNL     1       7.593   5.710  18.782  0.00  0.00    +0.000 A 
ATOM      4  C   UNL     1       6.373   5.406  18.172  0.00  0.00    +0.000 A 
ATOM      5  C   UNL     1       5.746   6.395  17.400  0.00  0.00    +0.000 A 
ATOM      6  C   UNL     1       6.336   7.660  17.237  0.00  0.00    +0.000 A 
ENDROOT
BRANCH   1   9
ATOM      7  O   UNL     1       9.119   9.578  19.692  0.00  0.00    +0.000 OA
ATOM      8  C   UNL     1       8.870   9.934  18.543  0.00  0.00    +0.000 C 
ATOM      9  N   UNL     1       8.177   9.200  17.593  0.00  0.00    +0.000 N 
ATOM     10  H   UNL     1       8.195   9.573  16.646  0.00  0.00    +0.000 HD
BRANCH   8  11
ATOM     11  C   UNL     1       9.385  11.261  18.094  0.00  0.00    +0.000 A 
ATOM     12  C   UNL     1      10.746  11.382  17.816  0.00  0.00    +0.000 A 
ATOM     13  C   UNL     1      11.241  12.623  17.448  0.00  0.00    +0.000 A 
ATOM     14  C   UNL     1      10.368  13.701  17.373  0.00  0.00    +0.000 A 
ATOM     15  C   UNL     1       9.023  13.487  17.658  0.00  0.00    +0.000 A 
ATOM     16  N   UNL     1       8.497  12.290  18.011  0.00  0.00    +0.000 NA
ENDBRANCH   8  11
ENDBRANCH   1   9
BRANCH   4  17
ATOM     17  C   UNL     1       5.791   4.022  18.329  0.00  0.00    +0.000 C 
BRANCH  17  18
ATOM     18  C   UNL     1       4.336   3.916  18.040  0.00  0.00    +0.000 A 
ATOM     19  N   UNL     1       3.809   3.582  16.876  0.00  0.00    +0.000 NA
ATOM     20  N   UNL     1       2.449   3.451  17.036  0.00  0.00    +0.000 NA
ATOM     21  C   UNL     1       2.166   3.710  18.292  0.00  0.00    +0.000 A 
ATOM     22  C   UNL     1       0.950   3.694  19.028  0.00  0.00    +0.000 A 
ATOM     23  C   UNL     1       0.956   4.029  20.332  0.00  0.00    +0.000 A 
ATOM     24  C   UNL     1       2.183   4.418  21.010  0.00  0.00    +0.000 A 
ATOM     25  C   UNL     1       3.338   4.410  20.322  0.00  0.00    +0.000 A 
ATOM     26  N   UNL     1       3.328   4.050  18.975  0.00  0.00    +0.000 N 
ENDBRANCH  17  18
ENDBRANCH   4  17
TORSDOF 4
ENDMDL
MODEL 7
REMARK VINA RESULT:      -8.3      5.876      7.848
REMARK  Name = 
REMARK  4 active torsions:
REMARK  status: ('A' for Active; 'I' for Inactive)
REMARK    1  A    between atoms: C_2  and  C_20
REMARK    2  A    between atoms: N_3  and  C_4
REMARK    3  A    between atoms: C_7  and  C_8
REMARK    4  A    between atoms: C_8  and  C_9
REMARK                            x       y       z     vdW  Elec       q    Type
REMARK                         _______ _______ _______ _____ _____    ______ ____
ROOT
ATOM      1  C   UNL     1       0.906   9.258  19.644  0.00  0.00    +0.000 A 
ATOM      2  C   UNL     1       1.321   9.546  18.343  0.00  0.00    +0.000 A 
ATOM      3  C   UNL     1       2.240   8.734  17.681  0.00  0.00    +0.000 A 
ATOM      4  C   UNL     1       2.795   7.622  18.319  0.00  0.00    +0.000 A 
ATOM      5  C   UNL     1       2.410   7.346  19.640  0.00  0.00    +0.000 A 
ATOM      6  C   UNL     1       1.481   8.166  20.302  0.00  0.00    +0.000 A 
ENDROOT
BRANCH   1   9
ATOM      7  O   UNL     1       1.294  11.634  21.304  0.00  0.00    +0.000 OA
ATOM      8  C   UNL     1       0.190  11.129  21.110  0.00  0.00    +0.000 C 
ATOM      9  N   UNL     1      -0.074  10.028  20.309  0.00  0.00    +0.000 N 
ATOM     10  H   UNL     1      -1.058   9.837  20.132  0.00  0.00    +0.000 HD
BRANCH   8  11
ATOM     11  C   UNL     1      -0.995  11.765  21.756  0.00  0.00    +0.000 A 
ATOM     12  C   UNL     1      -1.543  12.899  21.158  0.00  0.00    +0.000 A 
ATOM     13  C   UNL     1      -2.611  13.527  21.779  0.00  0.00    +0.000 A 
ATOM     14  C   UNL     1      -3.094  13.008  22.974  0.00  0.00    +0.000 A 
ATOM     15  C   UNL     1      -2.493  11.867  23.494  0.00  0.00    +0.000 A 
ATOM     16  N   UNL     1      -1.455  11.218  22.915  0.00  0.00    +0.000 NA
ENDBRANCH   8  11
ENDBRANCH   1   9
BRANCH   4  17
ATOM     17  C   UNL     1       3.755   6.736  17.562  0.00  0.00    +0.000 C 
BRANCH  17  18
ATOM     18  C   UNL     1       4.118   5.469  18.252  0.00  0.00    +0.000 A 
ATOM     19  N   UNL     1       5.249   5.245  18.895  0.00  0.00    +0.000 NA
ATOM     20  N   UNL     1       5.160   4.023  19.519  0.00  0.00    +0.000 NA
ATOM     21  C   UNL     1       3.978   3.519  19.245  0.00  0.00    +0.000 A 
ATOM     22  C   UNL     1       3.329   2.318  19.643  0.00  0.00    +0.000 A 
ATOM     23  C   UNL     1       2.093   2.046  19.183  0.00  0.00    +0.000 A 
ATOM     24  C   UNL     1       1.404   2.951  18.276  0.00  0.00    +0.000 A 
ATOM     25  C   UNL     1       2.007   4.098  17.919  0.00  0.00    +0.000 A 
ATOM     26  N   UNL     1       3.281   4.382  18.408  0.00  0.00    +0.000 N 
ENDBRANCH  17  18
ENDBRANCH   4  17
TORSDOF 4
ENDMDL
MODEL 8
REMARK VINA RESULT:      -8.3      5.862      7.937
REMARK  Name = 
REMARK  4 active torsions:
REMARK  status: ('A' for Active; 'I' for Inactive)
REMARK    1  A    between atoms: C_2  and  C_20
REMARK    2  A    between atoms: N_3  and  C_4
REMARK    3  A    between atoms: C_7  and  C_8
REMARK    4  A    between atoms: C_8  and  C_9
REMARK                            x       y       z     vdW  Elec       q    Type
REMARK                         _______ _______ _______ _____ _____    ______ ____
ROOT
ATOM      1  C   UNL     1       0.830   9.219  19.700  0.00  0.00    +0.000 A 
ATOM      2  C   UNL     1       1.460   8.146  20.333  0.00  0.00    +0.000 A 
ATOM      3  C   UNL     1       2.421   7.382  19.674  0.00  0.00    +0.000 A 
ATOM      4  C   UNL     1       2.759   7.655  18.347  0.00  0.00    +0.000 A 
ATOM      5  C   UNL     1       2.106   8.709  17.692  0.00  0.00    +0.000 A 
ATOM      6  C   UNL     1       1.139   9.479  18.360  0.00  0.00    +0.000 A 
ENDROOT
BRANCH   1   9
ATOM      7  O   UNL     1       1.355  11.670  21.207  0.00  0.00    +0.000 OA
ATOM      8  C   UNL     1       0.232  11.183  21.095  0.00  0.00    +0.000 C 
ATOM      9  N   UNL     1      -0.097  10.048  20.369  0.00  0.00    +0.000 N 
ATOM     10  H   UNL     1      -1.093   9.873  20.251  0.00  0.00    +0.000 HD
BRANCH   8  11
ATOM     11  C   UNL     1      -0.905  11.883  21.763  0.00  0.00    +0.000 A 
ATOM     12  C   UNL     1      -1.510  11.263  22.855  0.00  0.00    +0.000 A 
ATOM     13  C   UNL     1      -2.599  11.881  23.450  0.00  0.00    +0.000 A 
ATOM     14  C   UNL     1      -3.051  13.089  22.935  0.00  0.00    +0.000 A 
ATOM     15  C   UNL     1      -2.380  13.641  21.849  0.00  0.00    +0.000 A 
ATOM     16  N   UNL     1      -1.308  13.075  21.245  0.00  0.00    +0.000 NA
ENDBRANCH   8  11
ENDBRANCH   1   9
BRANCH   4  17
ATOM     17  C   UNL     1       3.837   6.838  17.674  0.00  0.00    +0.000 C 
BRANCH  17  18
ATOM     18  C   UNL     1       4.152   5.545  18.339  0.00  0.00    +0.000 A 
ATOM     19  N   UNL     1       5.255   5.280  19.015  0.00  0.00    +0.000 NA
ATOM     20  N   UNL     1       5.121   4.043  19.599  0.00  0.00    +0.000 NA
ATOM     21  C   UNL     1       3.940   3.570  19.270  0.00  0.00    +0.000 A 
ATOM     22  C   UNL     1       3.255   2.372  19.610  0.00  0.00    +0.000 A 
ATOM     23  C   UNL     1       2.031   2.137  19.100  0.00  0.00    +0.000 A 
ATOM     24  C   UNL     1       1.392   3.081  18.196  0.00  0.00    +0.000 A 
ATOM     25  C   UNL     1       2.028   4.226  17.893  0.00  0.00    +0.000 A 
ATOM     26  N   UNL     1       3.290   4.470  18.435  0.00  0.00    +0.000 N 
ENDBRANCH  17  18
ENDBRANCH   4  17
TORSDOF 4
ENDMDL
MODEL 9
REMARK VINA RESULT:      -8.3      1.136      2.031
REMARK  Name = 
REMARK  4 active torsions:
REMARK  status: ('A' for Active; 'I' for Inactive)
REMARK    1  A    between atoms: C_2  and  C_20
REMARK    2  A    between atoms: N_3  and  C_4
REMARK    3  A    between atoms: C_7  and  C_8
REMARK    4  A    between atoms: C_8  and  C_9
REMARK                            x       y       z     vdW  Elec       q    Type
REMARK                         _______ _______ _______ _____ _____    ______ ____
ROOT
ATOM      1  C   UNL     1       7.755   7.259  18.308  0.00  0.00    +0.000 A 
ATOM      2  C   UNL     1       7.728   6.018  18.946  0.00  0.00    +0.000 A 
ATOM      3  C   UNL     1       6.885   4.999  18.508  0.00  0.00    +0.000 A 
ATOM      4  C   UNL     1       6.019   5.205  17.432  0.00  0.00    +0.000 A 
ATOM      5  C   UNL     1       6.015   6.461  16.807  0.00  0.00    +0.000 A 
ATOM      6  C   UNL     1       6.869   7.486  17.250  0.00  0.00    +0.000 A 
ENDROOT
BRANCH   1   9
ATOM      7  O   UNL     1       7.639  10.103  17.641  0.00  0.00    +0.000 OA
ATOM      8  C   UNL     1       8.547   9.612  18.308  0.00  0.00    +0.000 C 
ATOM      9  N   UNL     1       8.649   8.283  18.693  0.00  0.00    +0.000 N 
ATOM     10  H   UNL     1       9.377   8.075  19.373  0.00  0.00    +0.000 HD
BRANCH   8  11
ATOM     11  C   UNL     1       9.631  10.516  18.791  0.00  0.00    +0.000 A 
ATOM     12  C   UNL     1       9.671  10.831  20.149  0.00  0.00    +0.000 A 
ATOM     13  C   UNL     1      10.644  11.711  20.598  0.00  0.00    +0.000 A 
ATOM     14  C   UNL     1      11.538  12.250  19.682  0.00  0.00    +0.000 A 
ATOM     15  C   UNL     1      11.431  11.873  18.348  0.00  0.00    +0.000 A 
ATOM     16  N   UNL     1      10.503  11.010  17.870  0.00  0.00    +0.000 NA
ENDBRANCH   8  11
ENDBRANCH   1   9
BRANCH   4  17
ATOM     17  C   UNL     1       5.150   4.068  16.952  0.00  0.00    +0.000 C 
BRANCH  17  18
ATOM     18  C   UNL     1       4.141   3.591  17.935  0.00  0.00    +0.000 A 
ATOM     19  N   UNL     1       3.927   2.330  18.262  0.00  0.00    +0.000 NA
ATOM     20  N   UNL     1       3.026   2.297  19.300  0.00  0.00    +0.000 NA
ATOM     21  C   UNL     1       2.700   3.536  19.588  0.00  0.00    +0.000 A 
ATOM     22  C   UNL     1       1.852   4.103  20.578  0.00  0.00    +0.000 A 
ATOM     23  C   UNL     1       1.689   5.439  20.630  0.00  0.00    +0.000 A 
ATOM     24  C   UNL     1       2.356   6.321  19.686  0.00  0.00    +0.000 A 
ATOM     25  C   UNL     1       3.177   5.789  18.765  0.00  0.00    +0.000 A 
ATOM     26  N   UNL     1       3.353   4.406  18.724  0.00  0.00    +0.000 N 
ENDBRANCH  17  18
ENDBRANCH   4  17
TORSDOF 4
ENDMDL
