MODEL 1
REMARK VINA RESULT:      -9.3      0.000      0.000
REMARK  Name = 
REMARK  4 active torsions:
REMARK  status: ('A' for Active; 'I' for Inactive)
REMARK    1  A    between atoms: C_7  and  C_8
REMARK    2  A    between atoms: C_11  and  C_12
REMARK    3  A    between atoms: C_12  and  N_13
REMARK    4  A    between atoms: C_18  and  C_19
REMARK                            x       y       z     vdW  Elec       q    Type
REMARK                         _______ _______ _______ _____ _____    ______ ____
ROOT
ATOM      1  N   UNL     1       6.986   5.879  17.429  0.00  0.00    +0.000 NA
ATOM      2  C   UNL     1       7.373   4.512  17.093  0.00  0.00    +0.000 C 
ATOM      3  C   UNL     1       6.724   4.073  15.779  0.00  0.00    +0.000 C 
ATOM      4  C   UNL     1       5.215   4.265  15.787  0.00  0.00    +0.000 C 
ATOM      5  C   UNL     1       4.849   5.678  16.231  0.00  0.00    +0.000 C 
ATOM      6  C   UNL     1       5.530   6.092  17.561  0.00  0.00    +0.000 C 
ENDROOT
BRANCH   6   7
ATOM      7  C   UNL     1       4.720   5.483  18.719  0.00  0.00    +0.000 A 
ATOM      8  N   UNL     1       4.847   4.306  19.298  0.00  0.00    +0.000 NA
ATOM      9  C   UNL     1       3.619   3.918  19.864  0.00  0.00    +0.000 A 
ATOM     10  C   UNL     1       3.304   2.674  20.458  0.00  0.00    +0.000 A 
ATOM     11  C   UNL     1       1.970   2.364  20.785  0.00  0.00    +0.000 A 
ATOM     12  C   UNL     1       0.955   3.293  20.573  0.00  0.00    +0.000 A 
ATOM     13  C   UNL     1       1.258   4.570  20.092  0.00  0.00    +0.000 A 
ATOM     14  C   UNL     1       2.590   4.855  19.748  0.00  0.00    +0.000 A 
ATOM     15  S   UNL     1       3.247   6.315  19.135  0.00  0.00    +0.000 S 
ENDBRANCH   6   7
BRANCH   1  16
ATOM     16  C   UNL     1       7.811   6.505  18.472  0.00  0.00    +0.000 C 
BRANCH  16  20
ATOM     17  C   UNL     1       8.864   9.933  18.659  0.00  0.00    +0.000 A 
ATOM     18  N   UNL     1       8.160  10.014  17.545  0.00  0.00    +0.000 NA
ATOM     19  N   UNL     1       7.660   8.754  17.286  0.00  0.00    +0.000 NA
ATOM     20  C   UNL     1       8.102   7.970  18.248  0.00  0.00    +0.000 A 
ATOM     21  O   UNL     1       8.912   8.643  19.137  0.00  0.00    +0.000 OA
BRANCH  17  28
ATOM     22 CL   UNL     1      11.285  11.681  17.402  0.00  0.00    +0.000 Cl
ATOM     23  C   UNL     1      10.576  11.813  18.975  0.00  0.00    +0.000 A 
ATOM     24  C   UNL     1      11.176  12.755  19.832  0.00  0.00    +0.000 A 
ATOM     25  C   UNL     1      10.712  12.937  21.134  0.00  0.00    +0.000 A 
ATOM     26  C   UNL     1       9.624  12.200  21.579  0.00  0.00    +0.000 A 
ATOM     27  C   UNL     1       9.022  11.264  20.727  0.00  0.00    +0.000 A 
ATOM     28  C   UNL     1       9.493  11.029  19.412  0.00  0.00    +0.000 A 
ENDBRANCH  17  28
ENDBRANCH  16  20
ENDBRANCH   1  16
TORSDOF 4
ENDMDL
MODEL 2
REMARK VINA RESULT:      -9.1      1.042      1.409
REMARK  Name = 
REMARK  4 active torsions:
REMARK  status: ('A' for Active; 'I' for Inactive)
REMARK    1  A    between atoms: C_7  and  C_8
REMARK    2  A    between atoms: C_11  and  C_12
REMARK    3  A    between atoms: C_12  and  N_13
REMARK    4  A    between atoms: C_18  and  C_19
REMARK                            x       y       z     vdW  Elec       q    Type
REMARK                         _______ _______ _______ _____ _____    ______ ____
ROOT
ATOM      1  N   UNL     1       6.987   5.988  17.421  0.00  0.00    +0.000 NA
ATOM      2  C   UNL     1       7.393   4.610  17.158  0.00  0.00    +0.000 C 
ATOM      3  C   UNL     1       6.838   4.129  15.816  0.00  0.00    +0.000 C 
ATOM      4  C   UNL     1       5.333   4.322  15.710  0.00  0.00    +0.000 C 
ATOM      5  C   UNL     1       4.940   5.749  16.081  0.00  0.00    +0.000 C 
ATOM      6  C   UNL     1       5.526   6.206  17.442  0.00  0.00    +0.000 C 
ENDROOT
BRANCH   6   7
ATOM      7  C   UNL     1       4.634   5.636  18.559  0.00  0.00    +0.000 A 
ATOM      8  N   UNL     1       4.836   4.592  19.337  0.00  0.00    +0.000 NA
ATOM      9  C   UNL     1       3.601   4.082  19.779  0.00  0.00    +0.000 A 
ATOM     10  C   UNL     1       3.379   2.899  20.521  0.00  0.00    +0.000 A 
ATOM     11  C   UNL     1       2.070   2.414  20.703  0.00  0.00    +0.000 A 
ATOM     12  C   UNL     1       0.979   3.116  20.199  0.00  0.00    +0.000 A 
ATOM     13  C   UNL     1       1.165   4.345  19.560  0.00  0.00    +0.000 A 
ATOM     14  C   UNL     1       2.479   4.803  19.367  0.00  0.00    +0.000 A 
ATOM     15  S   UNL     1       3.007   6.253  18.619  0.00  0.00    +0.000 S 
ENDBRANCH   6   7
BRANCH   1  16
ATOM     16  C   UNL     1       7.738   6.647  18.499  0.00  0.00    +0.000 C 
BRANCH  16  20
ATOM     17  C   UNL     1       9.069   9.982  18.477  0.00  0.00    +0.000 A 
ATOM     18  N   UNL     1       8.131  10.149  17.563  0.00  0.00    +0.000 NA
ATOM     19  N   UNL     1       7.488   8.937  17.413  0.00  0.00    +0.000 NA
ATOM     20  C   UNL     1       8.081   8.093  18.232  0.00  0.00    +0.000 A 
ATOM     21  O   UNL     1       9.127   8.678  18.913  0.00  0.00    +0.000 OA
BRANCH  17  28
ATOM     22 CL   UNL     1       8.737  10.893  21.568  0.00  0.00    +0.000 Cl
ATOM     23  C   UNL     1       9.847  11.501  20.388  0.00  0.00    +0.000 A 
ATOM     24  C   UNL     1      10.659  12.569  20.815  0.00  0.00    +0.000 A 
ATOM     25  C   UNL     1      11.577  13.162  19.948  0.00  0.00    +0.000 A 
ATOM     26  C   UNL     1      11.712  12.671  18.658  0.00  0.00    +0.000 A 
ATOM     27  C   UNL     1      10.908  11.604  18.232  0.00  0.00    +0.000 A 
ATOM     28  C   UNL     1       9.941  11.005  19.075  0.00  0.00    +0.000 A 
ENDBRANCH  17  28
ENDBRANCH  16  20
ENDBRANCH   1  16
TORSDOF 4
ENDMDL
MODEL 3
REMARK VINA RESULT:      -9.0      4.692      6.944
REMARK  Name = 
REMARK  4 active torsions:
REMARK  status: ('A' for Active; 'I' for Inactive)
REMARK    1  A    between atoms: C_7  and  C_8
REMARK    2  A    between atoms: C_11  and  C_12
REMARK    3  A    between atoms: C_12  and  N_13
REMARK    4  A    between atoms: C_18  and  C_19
REMARK                            x       y       z     vdW  Elec       q    Type
REMARK                         _______ _______ _______ _____ _____    ______ ____
ROOT
ATOM      1  N   UNL     1       4.125   4.380  18.776  0.00  0.00    +0.000 NA
ATOM      2  C   UNL     1       3.626   3.668  19.949  0.00  0.00    +0.000 C 
ATOM      3  C   UNL     1       2.338   2.911  19.616  0.00  0.00    +0.000 C 
ATOM      4  C   UNL     1       1.284   3.812  18.992  0.00  0.00    +0.000 C 
ATOM      5  C   UNL     1       1.868   4.607  17.828  0.00  0.00    +0.000 C 
ATOM      6  C   UNL     1       3.175   5.354  18.198  0.00  0.00    +0.000 C 
ENDROOT
BRANCH   6   7
ATOM      7  C   UNL     1       2.791   6.650  18.933  0.00  0.00    +0.000 A 
ATOM      8  N   UNL     1       2.337   6.811  20.160  0.00  0.00    +0.000 NA
ATOM      9  C   UNL     1       1.587   7.999  20.239  0.00  0.00    +0.000 A 
ATOM     10  C   UNL     1       0.830   8.463  21.339  0.00  0.00    +0.000 A 
ATOM     11  C   UNL     1      -0.036   9.562  21.188  0.00  0.00    +0.000 A 
ATOM     12  C   UNL     1      -0.121  10.235  19.972  0.00  0.00    +0.000 A 
ATOM     13  C   UNL     1       0.701   9.865  18.904  0.00  0.00    +0.000 A 
ATOM     14  C   UNL     1       1.542   8.751  19.064  0.00  0.00    +0.000 A 
ATOM     15  S   UNL     1       2.642   8.071  17.937  0.00  0.00    +0.000 S 
ENDBRANCH   6   7
BRANCH   1  16
ATOM     16  C   UNL     1       5.513   4.848  18.894  0.00  0.00    +0.000 C 
BRANCH  16  20
ATOM     17  C   UNL     1       6.632   5.051  15.487  0.00  0.00    +0.000 A 
ATOM     18  N   UNL     1       7.447   5.951  16.006  0.00  0.00    +0.000 NA
ATOM     19  N   UNL     1       7.161   6.031  17.354  0.00  0.00    +0.000 NA
ATOM     20  C   UNL     1       6.175   5.188  17.579  0.00  0.00    +0.000 A 
ATOM     21  O   UNL     1       5.755   4.558  16.427  0.00  0.00    +0.000 OA
BRANCH  17  28
ATOM     22 CL   UNL     1       8.859   5.952  13.314  0.00  0.00    +0.000 Cl
ATOM     23  C   UNL     1       7.518   4.883  13.089  0.00  0.00    +0.000 A 
ATOM     24  C   UNL     1       7.343   4.401  11.778  0.00  0.00    +0.000 A 
ATOM     25  C   UNL     1       6.282   3.551  11.464  0.00  0.00    +0.000 A 
ATOM     26  C   UNL     1       5.408   3.152  12.464  0.00  0.00    +0.000 A 
ATOM     27  C   UNL     1       5.583   3.627  13.771  0.00  0.00    +0.000 A 
ATOM     28  C   UNL     1       6.626   4.521  14.115  0.00  0.00    +0.000 A 
ENDBRANCH  17  28
ENDBRANCH  16  20
ENDBRANCH   1  16
TORSDOF 4
ENDMDL
MODEL 4
REMARK VINA RESULT:      -8.7      3.981      7.227
REMARK  Name = 
REMARK  4 active torsions:
REMARK  status: ('A' for Active; 'I' for Inactive)
REMARK    1  A    between atoms: C_7  and  C_8
REMARK    2  A    between atoms: C_11  and  C_12
REMARK    3  A    between atoms: C_12  and  N_13
REMARK    4  A    between atoms: C_18  and  C_19
REMARK                            x       y       z     vdW  Elec       q    Type
REMARK                         _______ _______ _______ _____ _____    ______ ____
ROOT
ATOM      1  N   UNL     1       6.049   5.837  18.774  0.00  0.00    +0.000 NA
ATOM      2  C   UNL     1       7.404   5.656  19.287  0.00  0.00    +0.000 C 
ATOM      3  C   UNL     1       8.205   6.955  19.170  0.00  0.00    +0.000 C 
ATOM      4  C   UNL     1       8.189   7.518  17.758  0.00  0.00    +0.000 C 
ATOM      5  C   UNL     1       6.763   7.607  17.223  0.00  0.00    +0.000 C 
ATOM      6  C   UNL     1       5.978   6.276  17.365  0.00  0.00    +0.000 C 
ENDROOT
BRANCH   6   7
ATOM      7  C   UNL     1       6.392   5.355  16.204  0.00  0.00    +0.000 A 
ATOM      8  N   UNL     1       7.336   5.522  15.300  0.00  0.00    +0.000 NA
ATOM      9  C   UNL     1       7.016   4.798  14.137  0.00  0.00    +0.000 A 
ATOM     10  C   UNL     1       7.702   4.817  12.900  0.00  0.00    +0.000 A 
ATOM     11  C   UNL     1       7.135   4.202  11.768  0.00  0.00    +0.000 A 
ATOM     12  C   UNL     1       5.920   3.528  11.863  0.00  0.00    +0.000 A 
ATOM     13  C   UNL     1       5.280   3.399  13.098  0.00  0.00    +0.000 A 
ATOM     14  C   UNL     1       5.847   4.039  14.213  0.00  0.00    +0.000 A 
ATOM     15  S   UNL     1       5.287   4.060  15.833  0.00  0.00    +0.000 S 
ENDBRANCH   6   7
BRANCH   1  16
ATOM     16  C   UNL     1       5.110   4.771  19.149  0.00  0.00    +0.000 C 
BRANCH  16  20
ATOM     17  C   UNL     1       2.203   6.660  20.088  0.00  0.00    +0.000 A 
ATOM     18  N   UNL     1       1.788   5.470  20.481  0.00  0.00    +0.000 NA
ATOM     19  N   UNL     1       2.794   4.570  20.189  0.00  0.00    +0.000 NA
ATOM     20  C   UNL     1       3.760   5.260  19.619  0.00  0.00    +0.000 A 
ATOM     21  O   UNL     1       3.437   6.593  19.481  0.00  0.00    +0.000 OA
BRANCH  17  28
ATOM     22 CL   UNL     1       1.793   8.749  17.646  0.00  0.00    +0.000 Cl
ATOM     23  C   UNL     1       1.361   8.951  19.309  0.00  0.00    +0.000 A 
ATOM     24  C   UNL     1       0.825  10.208  19.647  0.00  0.00    +0.000 A 
ATOM     25  C   UNL     1       0.461  10.502  20.961  0.00  0.00    +0.000 A 
ATOM     26  C   UNL     1       0.601   9.531  21.941  0.00  0.00    +0.000 A 
ATOM     27  C   UNL     1       1.131   8.277  21.607  0.00  0.00    +0.000 A 
ATOM     28  C   UNL     1       1.545   7.959  20.291  0.00  0.00    +0.000 A 
ENDBRANCH  17  28
ENDBRANCH  16  20
ENDBRANCH   1  16
TORSDOF 4
ENDMDL
MODEL 5
REMARK VINA RESULT:      -8.6      4.678      7.464
REMARK  Name = 
REMARK  4 active torsions:
REMARK  status: ('A' for Active; 'I' for Inactive)
REMARK    1  A    between atoms: C_7  and  C_8
REMARK    2  A    between atoms: C_11  and  C_12
REMARK    3  A    between atoms: C_12  and  N_13
REMARK    4  A    between atoms: C_18  and  C_19
REMARK                            x       y       z     vdW  Elec       q    Type
REMARK                         _______ _______ _______ _____ _____    ______ ____
ROOT
ATOM      1  N   UNL     1       5.257   6.181  18.240  0.00  0.00    +0.000 NA
ATOM      2  C   UNL     1       5.716   5.155  19.173  0.00  0.00    +0.000 C 
ATOM      3  C   UNL     1       7.043   5.564  19.817  0.00  0.00    +0.000 C 
ATOM      4  C   UNL     1       8.099   5.924  18.784  0.00  0.00    +0.000 C 
ATOM      5  C   UNL     1       7.553   6.928  17.774  0.00  0.00    +0.000 C 
ATOM      6  C   UNL     1       6.204   6.487  17.148  0.00  0.00    +0.000 C 
ENDROOT
BRANCH   6   7
ATOM      7  C   UNL     1       6.509   5.476  16.028  0.00  0.00    +0.000 A 
ATOM      8  N   UNL     1       7.421   5.530  15.079  0.00  0.00    +0.000 NA
ATOM      9  C   UNL     1       7.007   4.763  13.975  0.00  0.00    +0.000 A 
ATOM     10  C   UNL     1       7.638   4.668  12.713  0.00  0.00    +0.000 A 
ATOM     11  C   UNL     1       6.985   4.027  11.643  0.00  0.00    +0.000 A 
ATOM     12  C   UNL     1       5.736   3.439  11.825  0.00  0.00    +0.000 A 
ATOM     13  C   UNL     1       5.144   3.422  13.091  0.00  0.00    +0.000 A 
ATOM     14  C   UNL     1       5.797   4.086  14.142  0.00  0.00    +0.000 A 
ATOM     15  S   UNL     1       5.311   4.236  15.780  0.00  0.00    +0.000 S 
ENDBRANCH   6   7
BRANCH   1  16
ATOM     16  C   UNL     1       3.851   6.049  17.835  0.00  0.00    +0.000 C 
BRANCH  16  20
ATOM     17  C   UNL     1       1.739   8.631  19.167  0.00  0.00    +0.000 A 
ATOM     18  N   UNL     1       1.831   9.083  17.930  0.00  0.00    +0.000 NA
ATOM     19  N   UNL     1       2.637   8.206  17.233  0.00  0.00    +0.000 NA
ATOM     20  C   UNL     1       3.006   7.275  18.089  0.00  0.00    +0.000 A 
ATOM     21  O   UNL     1       2.507   7.504  19.354  0.00  0.00    +0.000 OA
BRANCH  17  28
ATOM     22 CL   UNL     1      -0.752  10.619  18.589  0.00  0.00    +0.000 Cl
ATOM     23  C   UNL     1      -0.173  10.047  20.116  0.00  0.00    +0.000 A 
ATOM     24  C   UNL     1      -0.832  10.567  21.246  0.00  0.00    +0.000 A 
ATOM     25  C   UNL     1      -0.442  10.201  22.534  0.00  0.00    +0.000 A 
ATOM     26  C   UNL     1       0.590   9.289  22.701  0.00  0.00    +0.000 A 
ATOM     27  C   UNL     1       1.245   8.766  21.578  0.00  0.00    +0.000 A 
ATOM     28  C   UNL     1       0.898   9.146  20.258  0.00  0.00    +0.000 A 
ENDBRANCH  17  28
ENDBRANCH  16  20
ENDBRANCH   1  16
TORSDOF 4
ENDMDL
MODEL 6
REMARK VINA RESULT:      -8.3      4.390      7.361
REMARK  Name = 
REMARK  4 active torsions:
REMARK  status: ('A' for Active; 'I' for Inactive)
REMARK    1  A    between atoms: C_7  and  C_8
REMARK    2  A    between atoms: C_11  and  C_12
REMARK    3  A    between atoms: C_12  and  N_13
REMARK    4  A    between atoms: C_18  and  C_19
REMARK                            x       y       z     vdW  Elec       q    Type
REMARK                         _______ _______ _______ _____ _____    ______ ____
ROOT
ATOM      1  N   UNL     1       2.363   3.849  19.968  0.00  0.00    +0.000 NA
ATOM      2  C   UNL     1       1.547   4.232  18.819  0.00  0.00    +0.000 C 
ATOM      3  C   UNL     1       1.166   3.002  17.991  0.00  0.00    +0.000 C 
ATOM      4  C   UNL     1       2.380   2.176  17.593  0.00  0.00    +0.000 C 
ATOM      5  C   UNL     1       3.255   1.874  18.806  0.00  0.00    +0.000 C 
ATOM      6  C   UNL     1       3.614   3.141  19.626  0.00  0.00    +0.000 C 
ENDROOT
BRANCH   6   7
ATOM      7  C   UNL     1       4.782   3.849  18.917  0.00  0.00    +0.000 A 
ATOM      8  N   UNL     1       5.985   4.135  19.373  0.00  0.00    +0.000 NA
ATOM      9  C   UNL     1       6.507   5.242  18.679  0.00  0.00    +0.000 A 
ATOM     10  C   UNL     1       7.708   5.936  18.952  0.00  0.00    +0.000 A 
ATOM     11  C   UNL     1       7.986   7.153  18.301  0.00  0.00    +0.000 A 
ATOM     12  C   UNL     1       7.108   7.661  17.348  0.00  0.00    +0.000 A 
ATOM     13  C   UNL     1       5.971   6.937  16.979  0.00  0.00    +0.000 A 
ATOM     14  C   UNL     1       5.697   5.737  17.655  0.00  0.00    +0.000 A 
ATOM     15  S   UNL     1       4.388   4.654  17.424  0.00  0.00    +0.000 S 
ENDBRANCH   6   7
BRANCH   1  16
ATOM     16  C   UNL     1       2.490   4.891  20.996  0.00  0.00    +0.000 C 
BRANCH  16  20
ATOM     17  C   UNL     1       1.273   8.230  20.479  0.00  0.00    +0.000 A 
ATOM     18  N   UNL     1       2.012   8.129  19.389  0.00  0.00    +0.000 NA
ATOM     19  N   UNL     1       2.593   6.877  19.405  0.00  0.00    +0.000 NA
ATOM     20  C   UNL     1       2.190   6.290  20.513  0.00  0.00    +0.000 A 
ATOM     21  O   UNL     1       1.380   7.109  21.271  0.00  0.00    +0.000 OA
BRANCH  17  28
ATOM     22 CL   UNL     1      -0.129  10.113  18.247  0.00  0.00    +0.000 Cl
ATOM     23  C   UNL     1      -0.257  10.221  19.969  0.00  0.00    +0.000 A 
ATOM     24  C   UNL     1      -1.013  11.304  20.452  0.00  0.00    +0.000 A 
ATOM     25  C   UNL     1      -1.170  11.514  21.822  0.00  0.00    +0.000 A 
ATOM     26  C   UNL     1      -0.597  10.624  22.719  0.00  0.00    +0.000 A 
ATOM     27  C   UNL     1       0.154   9.541  22.240  0.00  0.00    +0.000 A 
ATOM     28  C   UNL     1       0.363   9.322  20.856  0.00  0.00    +0.000 A 
ENDBRANCH  17  28
ENDBRANCH  16  20
ENDBRANCH   1  16
TORSDOF 4
ENDMDL
MODEL 7
REMARK VINA RESULT:      -8.2      4.517      7.485
REMARK  Name = 
REMARK  4 active torsions:
REMARK  status: ('A' for Active; 'I' for Inactive)
REMARK    1  A    between atoms: C_7  and  C_8
REMARK    2  A    between atoms: C_11  and  C_12
REMARK    3  A    between atoms: C_12  and  N_13
REMARK    4  A    between atoms: C_18  and  C_19
REMARK                            x       y       z     vdW  Elec       q    Type
REMARK                         _______ _______ _______ _____ _____    ______ ____
ROOT
ATOM      1  N   UNL     1       5.338   6.071  18.352  0.00  0.00    +0.000 NA
ATOM      2  C   UNL     1       6.026   5.159  19.262  0.00  0.00    +0.000 C 
ATOM      3  C   UNL     1       7.317   5.790  19.787  0.00  0.00    +0.000 C 
ATOM      4  C   UNL     1       8.219   6.281  18.665  0.00  0.00    +0.000 C 
ATOM      5  C   UNL     1       7.442   7.156  17.686  0.00  0.00    +0.000 C 
ATOM      6  C   UNL     1       6.136   6.489  17.180  0.00  0.00    +0.000 C 
ENDROOT
BRANCH   6   7
ATOM      7  C   UNL     1       6.509   5.505  16.057  0.00  0.00    +0.000 A 
ATOM      8  N   UNL     1       7.424   5.620  15.117  0.00  0.00    +0.000 NA
ATOM      9  C   UNL     1       7.065   4.837  14.004  0.00  0.00    +0.000 A 
ATOM     10  C   UNL     1       7.711   4.788  12.747  0.00  0.00    +0.000 A 
ATOM     11  C   UNL     1       7.106   4.117  11.667  0.00  0.00    +0.000 A 
ATOM     12  C   UNL     1       5.892   3.455  11.835  0.00  0.00    +0.000 A 
ATOM     13  C   UNL     1       5.291   3.395  13.096  0.00  0.00    +0.000 A 
ATOM     14  C   UNL     1       5.896   4.089  14.156  0.00  0.00    +0.000 A 
ATOM     15  S   UNL     1       5.388   4.199  15.790  0.00  0.00    +0.000 S 
ENDBRANCH   6   7
BRANCH   1  16
ATOM     16  C   UNL     1       3.944   5.707  18.067  0.00  0.00    +0.000 C 
BRANCH  16  20
ATOM     17  C   UNL     1       1.652   7.896  19.757  0.00  0.00    +0.000 A 
ATOM     18  N   UNL     1       1.565   6.864  20.576  0.00  0.00    +0.000 NA
ATOM     19  N   UNL     1       2.393   5.878  20.080  0.00  0.00    +0.000 NA
ATOM     20  C   UNL     1       2.927   6.357  18.976  0.00  0.00    +0.000 A 
ATOM     21  O   UNL     1       2.468   7.623  18.682  0.00  0.00    +0.000 OA
BRANCH  17  28
ATOM     22 CL   UNL     1       1.250   9.231  22.681  0.00  0.00    +0.000 Cl
ATOM     23  C   UNL     1       0.797   9.875  21.141  0.00  0.00    +0.000 A 
ATOM     24  C   UNL     1       0.110  11.103  21.177  0.00  0.00    +0.000 A 
ATOM     25  C   UNL     1      -0.330  11.714  20.003  0.00  0.00    +0.000 A 
ATOM     26  C   UNL     1      -0.059  11.116  18.781  0.00  0.00    +0.000 A 
ATOM     27  C   UNL     1       0.629   9.895  18.741  0.00  0.00    +0.000 A 
ATOM     28  C   UNL     1       1.056   9.231  19.917  0.00  0.00    +0.000 A 
ENDBRANCH  17  28
ENDBRANCH  16  20
ENDBRANCH   1  16
TORSDOF 4
ENDMDL
MODEL 8
REMARK VINA RESULT:      -8.2      5.399      7.538
REMARK  Name = 
REMARK  4 active torsions:
REMARK  status: ('A' for Active; 'I' for Inactive)
REMARK    1  A    between atoms: C_7  and  C_8
REMARK    2  A    between atoms: C_11  and  C_12
REMARK    3  A    between atoms: C_12  and  N_13
REMARK    4  A    between atoms: C_18  and  C_19
REMARK                            x       y       z     vdW  Elec       q    Type
REMARK                         _______ _______ _______ _____ _____    ______ ____
ROOT
ATOM      1  N   UNL     1       2.235   3.736  20.298  0.00  0.00    +0.000 NA
ATOM      2  C   UNL     1       1.010   3.891  19.519  0.00  0.00    +0.000 C 
ATOM      3  C   UNL     1       0.586   2.555  18.905  0.00  0.00    +0.000 C 
ATOM      4  C   UNL     1       1.705   1.905  18.106  0.00  0.00    +0.000 C 
ATOM      5  C   UNL     1       2.992   1.843  18.923  0.00  0.00    +0.000 C 
ATOM      6  C   UNL     1       3.388   3.212  19.536  0.00  0.00    +0.000 C 
ENDROOT
BRANCH   6   7
ATOM      7  C   UNL     1       4.083   4.040  18.441  0.00  0.00    +0.000 A 
ATOM      8  N   UNL     1       3.785   4.150  17.162  0.00  0.00    +0.000 NA
ATOM      9  C   UNL     1       4.938   4.496  16.433  0.00  0.00    +0.000 A 
ATOM     10  C   UNL     1       5.068   4.582  15.027  0.00  0.00    +0.000 A 
ATOM     11  C   UNL     1       6.340   4.731  14.443  0.00  0.00    +0.000 A 
ATOM     12  C   UNL     1       7.476   4.843  15.240  0.00  0.00    +0.000 A 
ATOM     13  C   UNL     1       7.360   4.874  16.633  0.00  0.00    +0.000 A 
ATOM     14  C   UNL     1       6.086   4.700  17.199  0.00  0.00    +0.000 A 
ATOM     15  S   UNL     1       5.646   4.686  18.856  0.00  0.00    +0.000 S 
ENDBRANCH   6   7
BRANCH   1  16
ATOM     16  C   UNL     1       2.532   4.862  21.194  0.00  0.00    +0.000 C 
BRANCH  16  20
ATOM     17  C   UNL     1       1.252   8.147  20.507  0.00  0.00    +0.000 A 
ATOM     18  N   UNL     1       1.930   7.972  19.388  0.00  0.00    +0.000 NA
ATOM     19  N   UNL     1       2.525   6.728  19.461  0.00  0.00    +0.000 NA
ATOM     20  C   UNL     1       2.190   6.221  20.629  0.00  0.00    +0.000 A 
ATOM     21  O   UNL     1       1.414   7.086  21.370  0.00  0.00    +0.000 OA
BRANCH  17  28
ATOM     22 CL   UNL     1      -0.061  10.040  18.230  0.00  0.00    +0.000 Cl
ATOM     23  C   UNL     1      -0.229  10.160  19.947  0.00  0.00    +0.000 A 
ATOM     24  C   UNL     1      -0.979  11.260  20.406  0.00  0.00    +0.000 A 
ATOM     25  C   UNL     1      -1.166  11.481  21.770  0.00  0.00    +0.000 A 
ATOM     26  C   UNL     1      -0.631  10.586  22.685  0.00  0.00    +0.000 A 
ATOM     27  C   UNL     1       0.112   9.488  22.232  0.00  0.00    +0.000 A 
ATOM     28  C   UNL     1       0.352   9.256  20.855  0.00  0.00    +0.000 A 
ENDBRANCH  17  28
ENDBRANCH  16  20
ENDBRANCH   1  16
TORSDOF 4
ENDMDL
MODEL 9
REMARK VINA RESULT:      -8.1      4.477      7.410
REMARK  Name = 
REMARK  4 active torsions:
REMARK  status: ('A' for Active; 'I' for Inactive)
REMARK    1  A    between atoms: C_7  and  C_8
REMARK    2  A    between atoms: C_11  and  C_12
REMARK    3  A    between atoms: C_12  and  N_13
REMARK    4  A    between atoms: C_18  and  C_19
REMARK                            x       y       z     vdW  Elec       q    Type
REMARK                         _______ _______ _______ _____ _____    ______ ____
ROOT
ATOM      1  N   UNL     1       2.251   3.942  20.003  0.00  0.00    +0.000 NA
ATOM      2  C   UNL     1       1.468   4.224  18.803  0.00  0.00    +0.000 C 
ATOM      3  C   UNL     1       1.113   2.927  18.071  0.00  0.00    +0.000 C 
ATOM      4  C   UNL     1       2.339   2.076  17.778  0.00  0.00    +0.000 C 
ATOM      5  C   UNL     1       3.180   1.880  19.037  0.00  0.00    +0.000 C 
ATOM      6  C   UNL     1       3.513   3.213  19.757  0.00  0.00    +0.000 C 
ENDROOT
BRANCH   6   7
ATOM      7  C   UNL     1       4.700   3.865  19.025  0.00  0.00    +0.000 A 
ATOM      8  N   UNL     1       5.898   4.166  19.482  0.00  0.00    +0.000 NA
ATOM      9  C   UNL     1       6.443   5.223  18.729  0.00  0.00    +0.000 A 
ATOM     10  C   UNL     1       7.647   5.921  18.979  0.00  0.00    +0.000 A 
ATOM     11  C   UNL     1       7.948   7.092  18.258  0.00  0.00    +0.000 A 
ATOM     12  C   UNL     1       7.091   7.549  17.261  0.00  0.00    +0.000 A 
ATOM     13  C   UNL     1       5.952   6.814  16.919  0.00  0.00    +0.000 A 
ATOM     14  C   UNL     1       5.654   5.661  17.664  0.00  0.00    +0.000 A 
ATOM     15  S   UNL     1       4.337   4.578  17.479  0.00  0.00    +0.000 S 
ENDBRANCH   6   7
BRANCH   1  16
ATOM     16  C   UNL     1       2.347   5.066  20.943  0.00  0.00    +0.000 C 
BRANCH  16  20
ATOM     17  C   UNL     1       1.378   8.400  20.023  0.00  0.00    +0.000 A 
ATOM     18  N   UNL     1       2.205   8.162  19.022  0.00  0.00    +0.000 NA
ATOM     19  N   UNL     1       2.709   6.890  19.202  0.00  0.00    +0.000 NA
ATOM     20  C   UNL     1       2.174   6.429  20.314  0.00  0.00    +0.000 A 
ATOM     21  O   UNL     1       1.347   7.353  20.916  0.00  0.00    +0.000 OA
BRANCH  17  28
ATOM     22 CL   UNL     1       0.537   9.418  22.982  0.00  0.00    +0.000 Cl
ATOM     23  C   UNL     1       0.044  10.056  21.451  0.00  0.00    +0.000 A 
ATOM     24  C   UNL     1      -0.891  11.107  21.508  0.00  0.00    +0.000 A 
ATOM     25  C   UNL     1      -1.385  11.690  20.341  0.00  0.00    +0.000 A 
ATOM     26  C   UNL     1      -0.924  11.248  19.110  0.00  0.00    +0.000 A 
ATOM     27  C   UNL     1       0.010  10.204  19.050  0.00  0.00    +0.000 A 
ATOM     28  C   UNL     1       0.502   9.566  20.215  0.00  0.00    +0.000 A 
ENDBRANCH  17  28
ENDBRANCH  16  20
ENDBRANCH   1  16
TORSDOF 4
ENDMDL
