MODEL 1
REMARK VINA RESULT:      -8.6      0.000      0.000
REMARK  Name = 
REMARK  5 active torsions:
REMARK  status: ('A' for Active; 'I' for Inactive)
REMARK    1  A    between atoms: C_2  and  C_3
REMARK    2  A    between atoms: C_3  and  S_4
REMARK    3  A    between atoms: S_4  and  C_5
REMARK    4  A    between atoms: N_13  and  C_14
REMARK    5  A    between atoms: C_17  and  C_18
REMARK                            x       y       z     vdW  Elec       q    Type
REMARK                         _______ _______ _______ _____ _____    ______ ____
ROOT
ATOM      1  C   UNL     1       2.284   7.290  19.685  0.00  0.00    +0.000 A 
ATOM      2  C   UNL     1       1.594   7.964  20.692  0.00  0.00    +0.000 A 
ATOM      3  C   UNL     1       0.962   9.186  20.424  0.00  0.00    +0.000 A 
ATOM      4  C   UNL     1       0.999   9.756  19.147  0.00  0.00    +0.000 A 
ATOM      5  C   UNL     1       1.766   9.110  18.162  0.00  0.00    +0.000 A 
ATOM      6  C   UNL     1       2.386   7.886  18.425  0.00  0.00    +0.000 A 
ENDROOT
BRANCH   4   7
ATOM      7  C   UNL     1       0.259  10.995  18.883  0.00  0.00    +0.000 A 
ATOM      8  N   UNL     1      -1.017  11.060  18.550  0.00  0.00    +0.000 NA
ATOM      9  N   UNL     1      -1.370  12.372  18.405  0.00  0.00    +0.000 NA
ATOM     10  C   UNL     1      -0.305  13.116  18.619  0.00  0.00    +0.000 A 
ATOM     11  N   UNL     1       0.764  12.284  18.871  0.00  0.00    +0.000 N 
ATOM     12  C   UNL     1       2.151  12.675  19.045  0.00  0.00    +0.000 C 
ATOM     13  C   UNL     1       2.596  13.859  18.194  0.00  0.00    +0.000 C 
ATOM     14  C   UNL     1       2.182  15.216  18.762  0.00  0.00    +0.000 C 
ATOM     15  C   UNL     1       0.798  15.263  19.408  0.00  0.00    +0.000 C 
ATOM     16  C   UNL     1      -0.287  14.605  18.563  0.00  0.00    +0.000 C 
ENDBRANCH   4   7
BRANCH   1  19
ATOM     17  O   UNL     1       1.288   4.556  19.120  0.00  0.00    +0.000 OA
ATOM     18  C   UNL     1       2.378   4.787  19.638  0.00  0.00    +0.000 C 
ATOM     19  N   UNL     1       2.913   6.044  19.859  0.00  0.00    +0.000 N 
ATOM     20  H   UNL     1       3.871   6.060  20.189  0.00  0.00    +0.000 HD
BRANCH  18  21
ATOM     21  C   UNL     1       3.310   3.627  19.986  0.00  0.00    +0.000 C 
BRANCH  21  22
ATOM     22  S   UNL     1       4.170   2.968  18.512  0.00  0.00    +0.000 S 
BRANCH  22  23
ATOM     23  C   UNL     1       5.185   4.359  18.052  0.00  0.00    +0.000 A 
ATOM     24  C   UNL     1       5.081   4.974  16.795  0.00  0.00    +0.000 A 
ATOM     25  C   UNL     1       5.954   6.004  16.435  0.00  0.00    +0.000 A 
ATOM     26  C   UNL     1       6.940   6.414  17.329  0.00  0.00    +0.000 A 
ATOM     27  F   UNL     1       7.786   7.387  16.976  0.00  0.00    +0.000 F 
ATOM     28  C   UNL     1       7.046   5.809  18.574  0.00  0.00    +0.000 A 
ATOM     29  F   UNL     1       8.001   6.197  19.434  0.00  0.00    +0.000 F 
ATOM     30  C   UNL     1       6.183   4.782  18.941  0.00  0.00    +0.000 A 
ENDBRANCH  22  23
ENDBRANCH  21  22
ENDBRANCH  18  21
ENDBRANCH   1  19
TORSDOF 5
ENDMDL
MODEL 2
REMARK VINA RESULT:      -8.5      0.692      1.329
REMARK  Name = 
REMARK  5 active torsions:
REMARK  status: ('A' for Active; 'I' for Inactive)
REMARK    1  A    between atoms: C_2  and  C_3
REMARK    2  A    between atoms: C_3  and  S_4
REMARK    3  A    between atoms: S_4  and  C_5
REMARK    4  A    between atoms: N_13  and  C_14
REMARK    5  A    between atoms: C_17  and  C_18
REMARK                            x       y       z     vdW  Elec       q    Type
REMARK                         _______ _______ _______ _____ _____    ______ ____
ROOT
ATOM      1  C   UNL     1       2.220   7.266  19.713  0.00  0.00    +0.000 A 
ATOM      2  C   UNL     1       1.533   7.933  20.726  0.00  0.00    +0.000 A 
ATOM      3  C   UNL     1       0.906   9.160  20.471  0.00  0.00    +0.000 A 
ATOM      4  C   UNL     1       0.946   9.744  19.200  0.00  0.00    +0.000 A 
ATOM      5  C   UNL     1       1.711   9.104  18.208  0.00  0.00    +0.000 A 
ATOM      6  C   UNL     1       2.324   7.874  18.459  0.00  0.00    +0.000 A 
ENDROOT
BRANCH   4   7
ATOM      7  C   UNL     1       0.212  10.989  18.948  0.00  0.00    +0.000 A 
ATOM      8  N   UNL     1      -1.073  11.065  18.653  0.00  0.00    +0.000 NA
ATOM      9  N   UNL     1      -1.415  12.379  18.509  0.00  0.00    +0.000 NA
ATOM     10  C   UNL     1      -0.337  13.113  18.685  0.00  0.00    +0.000 A 
ATOM     11  N   UNL     1       0.730  12.272  18.911  0.00  0.00    +0.000 N 
ATOM     12  C   UNL     1       2.125  12.649  19.040  0.00  0.00    +0.000 C 
ATOM     13  C   UNL     1       2.558  13.822  18.168  0.00  0.00    +0.000 C 
ATOM     14  C   UNL     1       2.175  15.187  18.737  0.00  0.00    +0.000 C 
ATOM     15  C   UNL     1       0.812  15.254  19.423  0.00  0.00    +0.000 C 
ATOM     16  C   UNL     1      -0.304  14.602  18.616  0.00  0.00    +0.000 C 
ENDBRANCH   4   7
BRANCH   1  19
ATOM     17  O   UNL     1       1.031   4.581  20.112  0.00  0.00    +0.000 OA
ATOM     18  C   UNL     1       2.241   4.794  20.122  0.00  0.00    +0.000 C 
ATOM     19  N   UNL     1       2.843   6.015  19.874  0.00  0.00    +0.000 N 
ATOM     20  H   UNL     1       3.855   5.999  19.806  0.00  0.00    +0.000 HD
BRANCH  18  21
ATOM     21  C   UNL     1       3.213   3.630  20.309  0.00  0.00    +0.000 C 
BRANCH  21  22
ATOM     22  S   UNL     1       3.819   2.975  18.713  0.00  0.00    +0.000 S 
BRANCH  22  23
ATOM     23  C   UNL     1       4.889   4.297  18.179  0.00  0.00    +0.000 A 
ATOM     24  C   UNL     1       5.998   4.709  18.932  0.00  0.00    +0.000 A 
ATOM     25  C   UNL     1       6.762   5.808  18.528  0.00  0.00    +0.000 A 
ATOM     26  C   UNL     1       6.411   6.502  17.373  0.00  0.00    +0.000 A 
ATOM     27  F   UNL     1       7.132   7.563  16.998  0.00  0.00    +0.000 F 
ATOM     28  C   UNL     1       5.315   6.096  16.624  0.00  0.00    +0.000 A 
ATOM     29  F   UNL     1       4.970   6.769  15.514  0.00  0.00    +0.000 F 
ATOM     30  C   UNL     1       4.548   5.006  17.018  0.00  0.00    +0.000 A 
ENDBRANCH  22  23
ENDBRANCH  21  22
ENDBRANCH  18  21
ENDBRANCH   1  19
TORSDOF 5
ENDMDL
MODEL 3
REMARK VINA RESULT:      -8.3      0.624      1.563
REMARK  Name = 
REMARK  5 active torsions:
REMARK  status: ('A' for Active; 'I' for Inactive)
REMARK    1  A    between atoms: C_2  and  C_3
REMARK    2  A    between atoms: C_3  and  S_4
REMARK    3  A    between atoms: S_4  and  C_5
REMARK    4  A    between atoms: N_13  and  C_14
REMARK    5  A    between atoms: C_17  and  C_18
REMARK                            x       y       z     vdW  Elec       q    Type
REMARK                         _______ _______ _______ _____ _____    ______ ____
ROOT
ATOM      1  C   UNL     1       2.139   7.479  19.677  0.00  0.00    +0.000 A 
ATOM      2  C   UNL     1       2.160   8.050  18.406  0.00  0.00    +0.000 A 
ATOM      3  C   UNL     1       1.495   9.260  18.159  0.00  0.00    +0.000 A 
ATOM      4  C   UNL     1       0.802   9.926  19.175  0.00  0.00    +0.000 A 
ATOM      5  C   UNL     1       0.718   9.300  20.431  0.00  0.00    +0.000 A 
ATOM      6  C   UNL     1       1.392   8.102  20.681  0.00  0.00    +0.000 A 
ENDROOT
BRANCH   4   7
ATOM      7  C   UNL     1       0.185  11.228  18.901  0.00  0.00    +0.000 A 
ATOM      8  N   UNL     1      -1.071  11.411  18.537  0.00  0.00    +0.000 NA
ATOM      9  N   UNL     1      -1.299  12.749  18.391  0.00  0.00    +0.000 NA
ATOM     10  C   UNL     1      -0.176  13.392  18.636  0.00  0.00    +0.000 A 
ATOM     11  N   UNL     1       0.805  12.466  18.909  0.00  0.00    +0.000 N 
ATOM     12  C   UNL     1       2.217  12.728  19.119  0.00  0.00    +0.000 C 
ATOM     13  C   UNL     1       2.790  13.870  18.288  0.00  0.00    +0.000 C 
ATOM     14  C   UNL     1       2.487  15.257  18.853  0.00  0.00    +0.000 C 
ATOM     15  C   UNL     1       1.097  15.427  19.464  0.00  0.00    +0.000 C 
ATOM     16  C   UNL     1      -0.021  14.874  18.589  0.00  0.00    +0.000 C 
ENDBRANCH   4   7
BRANCH   1  19
ATOM     17  O   UNL     1       1.509   4.667  18.985  0.00  0.00    +0.000 OA
ATOM     18  C   UNL     1       2.437   4.992  19.722  0.00  0.00    +0.000 C 
ATOM     19  N   UNL     1       2.810   6.291  20.019  0.00  0.00    +0.000 N 
ATOM     20  H   UNL     1       3.668   6.390  20.550  0.00  0.00    +0.000 HD
BRANCH  18  21
ATOM     21  C   UNL     1       3.358   3.917  20.297  0.00  0.00    +0.000 C 
BRANCH  21  22
ATOM     22  S   UNL     1       4.227   2.982  18.988  0.00  0.00    +0.000 S 
BRANCH  22  23
ATOM     23  C   UNL     1       5.336   4.223  18.352  0.00  0.00    +0.000 A 
ATOM     24  C   UNL     1       6.254   4.894  19.174  0.00  0.00    +0.000 A 
ATOM     25  C   UNL     1       7.045   5.926  18.659  0.00  0.00    +0.000 A 
ATOM     26  C   UNL     1       6.912   6.293  17.323  0.00  0.00    +0.000 A 
ATOM     27  F   UNL     1       7.657   7.291  16.837  0.00  0.00    +0.000 F 
ATOM     28  C   UNL     1       6.007   5.630  16.506  0.00  0.00    +0.000 A 
ATOM     29  F   UNL     1       5.871   5.988  15.219  0.00  0.00    +0.000 F 
ATOM     30  C   UNL     1       5.214   4.604  17.009  0.00  0.00    +0.000 A 
ENDBRANCH  22  23
ENDBRANCH  21  22
ENDBRANCH  18  21
ENDBRANCH   1  19
TORSDOF 5
ENDMDL
MODEL 4
REMARK VINA RESULT:      -8.3      1.940      2.784
REMARK  Name = 
REMARK  5 active torsions:
REMARK  status: ('A' for Active; 'I' for Inactive)
REMARK    1  A    between atoms: C_2  and  C_3
REMARK    2  A    between atoms: C_3  and  S_4
REMARK    3  A    between atoms: S_4  and  C_5
REMARK    4  A    between atoms: N_13  and  C_14
REMARK    5  A    between atoms: C_17  and  C_18
REMARK                            x       y       z     vdW  Elec       q    Type
REMARK                         _______ _______ _______ _____ _____    ______ ____
ROOT
ATOM      1  C   UNL     1       2.474   7.318  18.720  0.00  0.00    +0.000 A 
ATOM      2  C   UNL     1       2.241   8.247  17.707  0.00  0.00    +0.000 A 
ATOM      3  C   UNL     1       1.570   9.447  17.984  0.00  0.00    +0.000 A 
ATOM      4  C   UNL     1       1.123   9.745  19.276  0.00  0.00    +0.000 A 
ATOM      5  C   UNL     1       1.289   8.765  20.270  0.00  0.00    +0.000 A 
ATOM      6  C   UNL     1       1.969   7.575  19.997  0.00  0.00    +0.000 A 
ENDROOT
BRANCH   4   7
ATOM      7  C   UNL     1       0.495  11.043  19.546  0.00  0.00    +0.000 A 
ATOM      8  N   UNL     1       0.723  12.151  18.865  0.00  0.00    +0.000 NA
ATOM      9  N   UNL     1      -0.049  13.153  19.381  0.00  0.00    +0.000 NA
ATOM     10  C   UNL     1      -0.731  12.671  20.399  0.00  0.00    +0.000 A 
ATOM     11  N   UNL     1      -0.377  11.352  20.575  0.00  0.00    +0.000 N 
ATOM     12  C   UNL     1      -0.797  10.473  21.650  0.00  0.00    +0.000 C 
ATOM     13  C   UNL     1      -0.980  11.153  23.002  0.00  0.00    +0.000 C 
ATOM     14  C   UNL     1      -2.307  11.898  23.144  0.00  0.00    +0.000 C 
ATOM     15  C   UNL     1      -2.786  12.629  21.890  0.00  0.00    +0.000 C 
ATOM     16  C   UNL     1      -1.697  13.457  21.219  0.00  0.00    +0.000 C 
ENDBRANCH   4   7
BRANCH   1  19
ATOM     17  O   UNL     1       1.557   4.742  17.575  0.00  0.00    +0.000 OA
ATOM     18  C   UNL     1       2.677   4.911  18.053  0.00  0.00    +0.000 C 
ATOM     19  N   UNL     1       3.171   6.110  18.536  0.00  0.00    +0.000 N 
ATOM     20  H   UNL     1       4.153   6.109  18.790  0.00  0.00    +0.000 HD
BRANCH  18  21
ATOM     21  C   UNL     1       3.687   3.765  18.037  0.00  0.00    +0.000 C 
BRANCH  21  22
ATOM     22  S   UNL     1       4.899   3.934  16.677  0.00  0.00    +0.000 S 
BRANCH  22  23
ATOM     23  C   UNL     1       5.989   5.181  17.336  0.00  0.00    +0.000 A 
ATOM     24  C   UNL     1       6.144   6.434  16.724  0.00  0.00    +0.000 A 
ATOM     25  C   UNL     1       7.075   7.353  17.217  0.00  0.00    +0.000 A 
ATOM     26  C   UNL     1       7.858   7.016  18.317  0.00  0.00    +0.000 A 
ATOM     27  F   UNL     1       8.760   7.890  18.776  0.00  0.00    +0.000 F 
ATOM     28  C   UNL     1       7.706   5.778  18.927  0.00  0.00    +0.000 A 
ATOM     29  F   UNL     1       8.467   5.448  19.983  0.00  0.00    +0.000 F 
ATOM     30  C   UNL     1       6.785   4.856  18.443  0.00  0.00    +0.000 A 
ENDBRANCH  22  23
ENDBRANCH  21  22
ENDBRANCH  18  21
ENDBRANCH   1  19
TORSDOF 5
ENDMDL
MODEL 5
REMARK VINA RESULT:      -8.3      5.821     10.397
REMARK  Name = 
REMARK  5 active torsions:
REMARK  status: ('A' for Active; 'I' for Inactive)
REMARK    1  A    between atoms: C_2  and  C_3
REMARK    2  A    between atoms: C_3  and  S_4
REMARK    3  A    between atoms: S_4  and  C_5
REMARK    4  A    between atoms: N_13  and  C_14
REMARK    5  A    between atoms: C_17  and  C_18
REMARK                            x       y       z     vdW  Elec       q    Type
REMARK                         _______ _______ _______ _____ _____    ______ ____
ROOT
ATOM      1  C   UNL     1       0.830   9.737  19.288  0.00  0.00    +0.000 A 
ATOM      2  C   UNL     1       1.363   9.618  18.006  0.00  0.00    +0.000 A 
ATOM      3  C   UNL     1       2.169   8.522  17.670  0.00  0.00    +0.000 A 
ATOM      4  C   UNL     1       2.455   7.519  18.603  0.00  0.00    +0.000 A 
ATOM      5  C   UNL     1       1.981   7.691  19.916  0.00  0.00    +0.000 A 
ATOM      6  C   UNL     1       1.167   8.777  20.247  0.00  0.00    +0.000 A 
ENDROOT
BRANCH   4   7
ATOM      7  C   UNL     1       3.236   6.346  18.194  0.00  0.00    +0.000 A 
ATOM      8  N   UNL     1       4.348   6.386  17.484  0.00  0.00    +0.000 NA
ATOM      9  N   UNL     1       4.809   5.112  17.313  0.00  0.00    +0.000 NA
ATOM     10  C   UNL     1       3.966   4.283  17.892  0.00  0.00    +0.000 A 
ATOM     11  N   UNL     1       2.925   5.016  18.416  0.00  0.00    +0.000 N 
ATOM     12  C   UNL     1       1.719   4.498  19.037  0.00  0.00    +0.000 C 
ATOM     13  C   UNL     1       1.197   3.197  18.439  0.00  0.00    +0.000 C 
ATOM     14  C   UNL     1       1.938   1.953  18.927  0.00  0.00    +0.000 C 
ATOM     15  C   UNL     1       3.446   2.116  19.110  0.00  0.00    +0.000 C 
ATOM     16  C   UNL     1       4.127   2.801  17.931  0.00  0.00    +0.000 C 
ENDBRANCH   4   7
BRANCH   1  19
ATOM     17  O   UNL     1      -1.956  10.354  18.489  0.00  0.00    +0.000 OA
ATOM     18  C   UNL     1      -1.294  11.065  19.243  0.00  0.00    +0.000 C 
ATOM     19  N   UNL     1      -0.017  10.783  19.696  0.00  0.00    +0.000 N 
ATOM     20  H   UNL     1       0.345  11.412  20.403  0.00  0.00    +0.000 HD
BRANCH  18  21
ATOM     21  C   UNL     1      -1.923  12.319  19.848  0.00  0.00    +0.000 C 
BRANCH  21  22
ATOM     22  S   UNL     1      -1.492  12.523  21.614  0.00  0.00    +0.000 S 
BRANCH  22  23
ATOM     23  C   UNL     1      -3.109  12.621  22.357  0.00  0.00    +0.000 A 
ATOM     24  C   UNL     1      -4.242  13.012  21.628  0.00  0.00    +0.000 A 
ATOM     25  C   UNL     1      -5.477  13.165  22.264  0.00  0.00    +0.000 A 
ATOM     26  C   UNL     1      -5.577  12.936  23.634  0.00  0.00    +0.000 A 
ATOM     27  F   UNL     1      -6.755  13.100  24.244  0.00  0.00    +0.000 F 
ATOM     28  C   UNL     1      -4.459  12.548  24.359  0.00  0.00    +0.000 A 
ATOM     29  F   UNL     1      -4.553  12.334  25.681  0.00  0.00    +0.000 F 
ATOM     30  C   UNL     1      -3.226  12.395  23.735  0.00  0.00    +0.000 A 
ENDBRANCH  22  23
ENDBRANCH  21  22
ENDBRANCH  18  21
ENDBRANCH   1  19
TORSDOF 5
ENDMDL
MODEL 6
REMARK VINA RESULT:      -8.2      1.108      1.600
REMARK  Name = 
REMARK  5 active torsions:
REMARK  status: ('A' for Active; 'I' for Inactive)
REMARK    1  A    between atoms: C_2  and  C_3
REMARK    2  A    between atoms: C_3  and  S_4
REMARK    3  A    between atoms: S_4  and  C_5
REMARK    4  A    between atoms: N_13  and  C_14
REMARK    5  A    between atoms: C_17  and  C_18
REMARK                            x       y       z     vdW  Elec       q    Type
REMARK                         _______ _______ _______ _____ _____    ______ ____
ROOT
ATOM      1  C   UNL     1       2.394   7.397  18.946  0.00  0.00    +0.000 A 
ATOM      2  C   UNL     1       1.839   7.761  20.172  0.00  0.00    +0.000 A 
ATOM      3  C   UNL     1       1.083   8.936  20.288  0.00  0.00    +0.000 A 
ATOM      4  C   UNL     1       0.860   9.766  19.185  0.00  0.00    +0.000 A 
ATOM      5  C   UNL     1       1.493   9.433  17.975  0.00  0.00    +0.000 A 
ATOM      6  C   UNL     1       2.235   8.256  17.855  0.00  0.00    +0.000 A 
ENDROOT
BRANCH   4   7
ATOM      7  C   UNL     1      -0.002  10.945  19.325  0.00  0.00    +0.000 A 
ATOM      8  N   UNL     1      -1.322  10.923  19.330  0.00  0.00    +0.000 NA
ATOM      9  N   UNL     1      -1.785  12.196  19.502  0.00  0.00    +0.000 NA
ATOM     10  C   UNL     1      -0.752  13.009  19.573  0.00  0.00    +0.000 A 
ATOM     11  N   UNL     1       0.397  12.267  19.411  0.00  0.00    +0.000 N 
ATOM     12  C   UNL     1       1.753  12.774  19.305  0.00  0.00    +0.000 C 
ATOM     13  C   UNL     1       1.886  14.112  18.587  0.00  0.00    +0.000 C 
ATOM     14  C   UNL     1       1.544  15.317  19.462  0.00  0.00    +0.000 C 
ATOM     15  C   UNL     1       0.374  15.120  20.424  0.00  0.00    +0.000 C 
ATOM     16  C   UNL     1      -0.847  14.484  19.770  0.00  0.00    +0.000 C 
ENDBRANCH   4   7
BRANCH   1  19
ATOM     17  O   UNL     1       1.587   4.845  17.672  0.00  0.00    +0.000 OA
ATOM     18  C   UNL     1       2.688   5.027  18.189  0.00  0.00    +0.000 C 
ATOM     19  N   UNL     1       3.132   6.219  18.734  0.00  0.00    +0.000 N 
ATOM     20  H   UNL     1       4.106   6.235  19.016  0.00  0.00    +0.000 HD
BRANCH  18  21
ATOM     21  C   UNL     1       3.732   3.912  18.156  0.00  0.00    +0.000 C 
BRANCH  21  22
ATOM     22  S   UNL     1       4.854   4.061  16.719  0.00  0.00    +0.000 S 
BRANCH  22  23
ATOM     23  C   UNL     1       6.130   5.114  17.381  0.00  0.00    +0.000 A 
ATOM     24  C   UNL     1       6.970   4.701  18.426  0.00  0.00    +0.000 A 
ATOM     25  C   UNL     1       7.899   5.585  18.982  0.00  0.00    +0.000 A 
ATOM     26  C   UNL     1       7.983   6.887  18.497  0.00  0.00    +0.000 A 
ATOM     27  F   UNL     1       8.860   7.737  19.041  0.00  0.00    +0.000 F 
ATOM     28  C   UNL     1       7.155   7.300  17.461  0.00  0.00    +0.000 A 
ATOM     29  F   UNL     1       7.230   8.558  16.999  0.00  0.00    +0.000 F 
ATOM     30  C   UNL     1       6.226   6.428  16.904  0.00  0.00    +0.000 A 
ENDBRANCH  22  23
ENDBRANCH  21  22
ENDBRANCH  18  21
ENDBRANCH   1  19
TORSDOF 5
ENDMDL
MODEL 7
REMARK VINA RESULT:      -8.2      6.239     10.620
REMARK  Name = 
REMARK  5 active torsions:
REMARK  status: ('A' for Active; 'I' for Inactive)
REMARK    1  A    between atoms: C_2  and  C_3
REMARK    2  A    between atoms: C_3  and  S_4
REMARK    3  A    between atoms: S_4  and  C_5
REMARK    4  A    between atoms: N_13  and  C_14
REMARK    5  A    between atoms: C_17  and  C_18
REMARK                            x       y       z     vdW  Elec       q    Type
REMARK                         _______ _______ _______ _____ _____    ______ ____
ROOT
ATOM      1  C   UNL     1       0.577   9.734  19.922  0.00  0.00    +0.000 A 
ATOM      2  C   UNL     1       0.919   9.837  18.575  0.00  0.00    +0.000 A 
ATOM      3  C   UNL     1       1.776   8.898  17.985  0.00  0.00    +0.000 A 
ATOM      4  C   UNL     1       2.304   7.834  18.726  0.00  0.00    +0.000 A 
ATOM      5  C   UNL     1       2.019   7.788  20.101  0.00  0.00    +0.000 A 
ATOM      6  C   UNL     1       1.154   8.717  20.686  0.00  0.00    +0.000 A 
ENDROOT
BRANCH   4   7
ATOM      7  C   UNL     1       3.134   6.826  18.058  0.00  0.00    +0.000 A 
ATOM      8  N   UNL     1       4.171   7.088  17.284  0.00  0.00    +0.000 NA
ATOM      9  N   UNL     1       4.712   5.910  16.856  0.00  0.00    +0.000 NA
ATOM     10  C   UNL     1       3.992   4.920  17.340  0.00  0.00    +0.000 A 
ATOM     11  N   UNL     1       2.948   5.454  18.062  0.00  0.00    +0.000 N 
ATOM     12  C   UNL     1       1.847   4.729  18.671  0.00  0.00    +0.000 C 
ATOM     13  C   UNL     1       1.376   3.506  17.892  0.00  0.00    +0.000 C 
ATOM     14  C   UNL     1       2.252   2.270  18.095  0.00  0.00    +0.000 C 
ATOM     15  C   UNL     1       3.753   2.539  18.190  0.00  0.00    +0.000 C 
ATOM     16  C   UNL     1       4.270   3.475  17.104  0.00  0.00    +0.000 C 
ENDBRANCH   4   7
BRANCH   1  19
ATOM     17  O   UNL     1       1.136  12.219  21.438  0.00  0.00    +0.000 OA
ATOM     18  C   UNL     1       0.014  11.728  21.332  0.00  0.00    +0.000 C 
ATOM     19  N   UNL     1      -0.305  10.610  20.581  0.00  0.00    +0.000 N 
ATOM     20  H   UNL     1      -1.295  10.402  20.504  0.00  0.00    +0.000 HD
BRANCH  18  21
ATOM     21  C   UNL     1      -1.183  12.431  21.970  0.00  0.00    +0.000 C 
BRANCH  21  22
ATOM     22  S   UNL     1      -2.599  12.563  20.819  0.00  0.00    +0.000 S 
BRANCH  22  23
ATOM     23  C   UNL     1      -3.955  12.763  21.958  0.00  0.00    +0.000 A 
ATOM     24  C   UNL     1      -3.768  12.758  23.348  0.00  0.00    +0.000 A 
ATOM     25  C   UNL     1      -4.865  12.826  24.212  0.00  0.00    +0.000 A 
ATOM     26  C   UNL     1      -6.152  12.890  23.685  0.00  0.00    +0.000 A 
ATOM     27  F   UNL     1      -7.200  12.938  24.513  0.00  0.00    +0.000 F 
ATOM     28  C   UNL     1      -6.341  12.897  22.310  0.00  0.00    +0.000 A 
ATOM     29  F   UNL     1      -7.582  12.951  21.800  0.00  0.00    +0.000 F 
ATOM     30  C   UNL     1      -5.257  12.828  21.442  0.00  0.00    +0.000 A 
ENDBRANCH  22  23
ENDBRANCH  21  22
ENDBRANCH  18  21
ENDBRANCH   1  19
TORSDOF 5
ENDMDL
MODEL 8
REMARK VINA RESULT:      -8.1      6.028     10.508
REMARK  Name = 
REMARK  5 active torsions:
REMARK  status: ('A' for Active; 'I' for Inactive)
REMARK    1  A    between atoms: C_2  and  C_3
REMARK    2  A    between atoms: C_3  and  S_4
REMARK    3  A    between atoms: S_4  and  C_5
REMARK    4  A    between atoms: N_13  and  C_14
REMARK    5  A    between atoms: C_17  and  C_18
REMARK                            x       y       z     vdW  Elec       q    Type
REMARK                         _______ _______ _______ _____ _____    ______ ____
ROOT
ATOM      1  C   UNL     1       0.783   9.850  19.490  0.00  0.00    +0.000 A 
ATOM      2  C   UNL     1       1.295   9.871  18.194  0.00  0.00    +0.000 A 
ATOM      3  C   UNL     1       2.117   8.831  17.737  0.00  0.00    +0.000 A 
ATOM      4  C   UNL     1       2.439   7.747  18.562  0.00  0.00    +0.000 A 
ATOM      5  C   UNL     1       1.986   7.778  19.893  0.00  0.00    +0.000 A 
ATOM      6  C   UNL     1       1.156   8.808  20.343  0.00  0.00    +0.000 A 
ENDROOT
BRANCH   4   7
ATOM      7  C   UNL     1       3.236   6.638  18.026  0.00  0.00    +0.000 A 
ATOM      8  N   UNL     1       4.306   6.772  17.264  0.00  0.00    +0.000 NA
ATOM      9  N   UNL     1       4.799   5.532  16.974  0.00  0.00    +0.000 NA
ATOM     10  C   UNL     1       4.017   4.631  17.532  0.00  0.00    +0.000 A 
ATOM     11  N   UNL     1       2.982   5.284  18.162  0.00  0.00    +0.000 N 
ATOM     12  C   UNL     1       1.830   4.677  18.804  0.00  0.00    +0.000 C 
ATOM     13  C   UNL     1       1.320   3.404  18.137  0.00  0.00    +0.000 C 
ATOM     14  C   UNL     1       2.128   2.156  18.491  0.00  0.00    +0.000 C 
ATOM     15  C   UNL     1       3.637   2.363  18.607  0.00  0.00    +0.000 C 
ATOM     16  C   UNL     1       4.230   3.158  17.450  0.00  0.00    +0.000 C 
ENDBRANCH   4   7
BRANCH   1  19
ATOM     17  O   UNL     1      -1.955  10.623  18.661  0.00  0.00    +0.000 OA
ATOM     18  C   UNL     1      -1.327  11.199  19.547  0.00  0.00    +0.000 C 
ATOM     19  N   UNL     1      -0.077  10.832  20.013  0.00  0.00    +0.000 N 
ATOM     20  H   UNL     1       0.253  11.340  20.827  0.00  0.00    +0.000 HD
BRANCH  18  21
ATOM     21  C   UNL     1      -1.979  12.352  20.308  0.00  0.00    +0.000 C 
BRANCH  21  22
ATOM     22  S   UNL     1      -1.652  12.264  22.106  0.00  0.00    +0.000 S 
BRANCH  22  23
ATOM     23  C   UNL     1      -3.282  12.550  22.769  0.00  0.00    +0.000 A 
ATOM     24  C   UNL     1      -3.573  12.376  24.131  0.00  0.00    +0.000 A 
ATOM     25  C   UNL     1      -4.882  12.521  24.600  0.00  0.00    +0.000 A 
ATOM     26  C   UNL     1      -5.902  12.832  23.705  0.00  0.00    +0.000 A 
ATOM     27  F   UNL     1      -7.156  12.953  24.153  0.00  0.00    +0.000 F 
ATOM     28  C   UNL     1      -5.618  13.006  22.358  0.00  0.00    +0.000 A 
ATOM     29  F   UNL     1      -6.603  13.298  21.493  0.00  0.00    +0.000 F 
ATOM     30  C   UNL     1      -4.320  12.862  21.881  0.00  0.00    +0.000 A 
ENDBRANCH  22  23
ENDBRANCH  21  22
ENDBRANCH  18  21
ENDBRANCH   1  19
TORSDOF 5
ENDMDL
MODEL 9
REMARK VINA RESULT:      -8.1      0.558      1.066
REMARK  Name = 
REMARK  5 active torsions:
REMARK  status: ('A' for Active; 'I' for Inactive)
REMARK    1  A    between atoms: C_2  and  C_3
REMARK    2  A    between atoms: C_3  and  S_4
REMARK    3  A    between atoms: S_4  and  C_5
REMARK    4  A    between atoms: N_13  and  C_14
REMARK    5  A    between atoms: C_17  and  C_18
REMARK                            x       y       z     vdW  Elec       q    Type
REMARK                         _______ _______ _______ _____ _____    ______ ____
ROOT
ATOM      1  C   UNL     1       2.062   7.418  19.949  0.00  0.00    +0.000 A 
ATOM      2  C   UNL     1       2.146   8.005  18.687  0.00  0.00    +0.000 A 
ATOM      3  C   UNL     1       1.471   9.203  18.414  0.00  0.00    +0.000 A 
ATOM      4  C   UNL     1       0.705   9.842  19.395  0.00  0.00    +0.000 A 
ATOM      5  C   UNL     1       0.560   9.199  20.637  0.00  0.00    +0.000 A 
ATOM      6  C   UNL     1       1.243   8.012  20.913  0.00  0.00    +0.000 A 
ENDROOT
BRANCH   4   7
ATOM      7  C   UNL     1       0.078  11.135  19.098  0.00  0.00    +0.000 A 
ATOM      8  N   UNL     1      -1.188  11.304  18.763  0.00  0.00    +0.000 NA
ATOM      9  N   UNL     1      -1.423  12.637  18.584  0.00  0.00    +0.000 NA
ATOM     10  C   UNL     1      -0.296  13.289  18.779  0.00  0.00    +0.000 A 
ATOM     11  N   UNL     1       0.695  12.373  19.053  0.00  0.00    +0.000 N 
ATOM     12  C   UNL     1       2.111  12.644  19.217  0.00  0.00    +0.000 C 
ATOM     13  C   UNL     1       2.658  13.761  18.337  0.00  0.00    +0.000 C 
ATOM     14  C   UNL     1       2.367  15.164  18.869  0.00  0.00    +0.000 C 
ATOM     15  C   UNL     1       0.994  15.350  19.512  0.00  0.00    +0.000 C 
ATOM     16  C   UNL     1      -0.146  14.769  18.684  0.00  0.00    +0.000 C 
ENDBRANCH   4   7
BRANCH   1  19
ATOM     17  O   UNL     1       1.315   4.582  19.524  0.00  0.00    +0.000 OA
ATOM     18  C   UNL     1       2.313   4.934  20.151  0.00  0.00    +0.000 C 
ATOM     19  N   UNL     1       2.737   6.240  20.316  0.00  0.00    +0.000 N 
ATOM     20  H   UNL     1       3.641   6.354  20.761  0.00  0.00    +0.000 HD
BRANCH  18  21
ATOM     21  C   UNL     1       3.260   3.878  20.720  0.00  0.00    +0.000 C 
BRANCH  21  22
ATOM     22  S   UNL     1       3.921   2.773  19.421  0.00  0.00    +0.000 S 
BRANCH  22  23
ATOM     23  C   UNL     1       4.920   3.907  18.476  0.00  0.00    +0.000 A 
ATOM     24  C   UNL     1       4.828   3.996  17.079  0.00  0.00    +0.000 A 
ATOM     25  C   UNL     1       5.690   4.831  16.363  0.00  0.00    +0.000 A 
ATOM     26  C   UNL     1       6.652   5.572  17.044  0.00  0.00    +0.000 A 
ATOM     27  F   UNL     1       7.487   6.356  16.355  0.00  0.00    +0.000 F 
ATOM     28  C   UNL     1       6.746   5.488  18.426  0.00  0.00    +0.000 A 
ATOM     29  F   UNL     1       7.679   6.196  19.083  0.00  0.00    +0.000 F 
ATOM     30  C   UNL     1       5.894   4.659  19.147  0.00  0.00    +0.000 A 
ENDBRANCH  22  23
ENDBRANCH  21  22
ENDBRANCH  18  21
ENDBRANCH   1  19
TORSDOF 5
ENDMDL
