MODEL 1
REMARK VINA RESULT:      -7.4      0.000      0.000
REMARK  Name = 
REMARK  5 active torsions:
REMARK  status: ('A' for Active; 'I' for Inactive)
REMARK    1  A    between atoms: C_1  and  C_2
REMARK    2  A    between atoms: C_11  and  C_12
REMARK    3  A    between atoms: C_12  and  C_13
REMARK    4  A    between atoms: C_23  and  C_24
REMARK    5  A    between atoms: C_24  and  O_26
REMARK                            x       y       z     vdW  Elec       q    Type
REMARK                         _______ _______ _______ _____ _____    ______ ____
ROOT
ATOM      1  C   UNL     1       1.616   6.446  20.436  0.00  0.00    +0.000 C 
ATOM      2  O   UNL     1       0.447   6.093  20.640  0.00  0.00    +0.000 OA
ATOM      3  N   UNL     1       2.543   5.557  19.911  0.00  0.00    +0.000 N 
ATOM      4  C   UNL     1       3.979   5.784  19.707  0.00  0.00    +0.000 C 
ATOM      5  C   UNL     1       4.436   5.229  18.372  0.00  0.00    +0.000 A 
ATOM      6  C   UNL     1       5.639   5.670  17.801  0.00  0.00    +0.000 A 
ATOM      7  C   UNL     1       5.989   5.293  16.503  0.00  0.00    +0.000 A 
ATOM      8  C   UNL     1       5.129   4.496  15.752  0.00  0.00    +0.000 A 
ATOM      9  C   UNL     1       3.969   3.993  16.334  0.00  0.00    +0.000 A 
ATOM     10  C   UNL     1       3.656   4.293  17.672  0.00  0.00    +0.000 A 
ATOM     11  C   UNL     1       2.511   3.570  18.363  0.00  0.00    +0.000 C 
ATOM     12  C   UNL     1       2.142   4.159  19.739  0.00  0.00    +0.000 C 
ENDROOT
BRANCH  11  13
ATOM     13  C   UNL     1       2.751   2.078  18.602  0.00  0.00    +0.000 C 
ATOM     14  O   UNL     1       3.872   1.582  18.562  0.00  0.00    +0.000 OA
BRANCH  13  15
ATOM     15  O   UNL     1       1.670   1.300  18.828  0.00  0.00    +0.000 OA
ATOM     16  H   UNL     1       1.355   1.251  19.752  0.00  0.00    +0.000 HD
ENDBRANCH  13  15
ENDBRANCH  11  13
BRANCH   1  17
ATOM     17  C   UNL     1       1.982   7.894  20.763  0.00  0.00    +0.000 C 
BRANCH  17  28
ATOM     18  C   UNL     1       2.411   8.510  17.743  0.00  0.00    +0.000 C 
ATOM     19  C   UNL     1       1.392   9.198  18.619  0.00  0.00    +0.000 A 
ATOM     20  N   UNL     1       0.651  10.192  17.985  0.00  0.00    +0.000 N 
ATOM     21  C   UNL     1      -0.278  10.919  18.637  0.00  0.00    +0.000 A 
ATOM     22  C   UNL     1      -1.133  11.928  18.281  0.00  0.00    +0.000 A 
ATOM     23  C   UNL     1      -1.820  12.234  19.473  0.00  0.00    +0.000 A 
ATOM     24  N   UNL     1      -1.441  11.473  20.505  0.00  0.00    +0.000 NA
ATOM     25  N   UNL     1      -0.491  10.658  19.970  0.00  0.00    +0.000 N 
ATOM     26  C   UNL     1       0.184   9.674  20.707  0.00  0.00    +0.000 A 
ATOM     27  O   UNL     1      -0.046   9.507  21.897  0.00  0.00    +0.000 OA
ATOM     28  C   UNL     1       1.204   8.889  19.931  0.00  0.00    +0.000 A 
ATOM     29  H   UNL     1       0.843  10.345  16.996  0.00  0.00    +0.000 HD
ENDBRANCH  17  28
ENDBRANCH   1  17
TORSDOF 4
ENDMDL
MODEL 2
REMARK VINA RESULT:      -7.3      1.661      2.471
REMARK  Name = 
REMARK  5 active torsions:
REMARK  status: ('A' for Active; 'I' for Inactive)
REMARK    1  A    between atoms: C_1  and  C_2
REMARK    2  A    between atoms: C_11  and  C_12
REMARK    3  A    between atoms: C_12  and  C_13
REMARK    4  A    between atoms: C_23  and  C_24
REMARK    5  A    between atoms: C_24  and  O_26
REMARK                            x       y       z     vdW  Elec       q    Type
REMARK                         _______ _______ _______ _____ _____    ______ ____
ROOT
ATOM      1  C   UNL     1       1.122   7.670  20.437  0.00  0.00    +0.000 C 
ATOM      2  O   UNL     1       0.181   7.688  21.241  0.00  0.00    +0.000 OA
ATOM      3  N   UNL     1       1.888   6.526  20.267  0.00  0.00    +0.000 N 
ATOM      4  C   UNL     1       3.089   6.372  19.438  0.00  0.00    +0.000 C 
ATOM      5  C   UNL     1       3.068   5.058  18.682  0.00  0.00    +0.000 A 
ATOM      6  C   UNL     1       3.889   4.879  17.558  0.00  0.00    +0.000 A 
ATOM      7  C   UNL     1       3.759   3.741  16.759  0.00  0.00    +0.000 A 
ATOM      8  C   UNL     1       2.794   2.785  17.058  0.00  0.00    +0.000 A 
ATOM      9  C   UNL     1       2.026   2.915  18.212  0.00  0.00    +0.000 A 
ATOM     10  C   UNL     1       2.214   4.013  19.071  0.00  0.00    +0.000 A 
ATOM     11  C   UNL     1       1.532   4.038  20.430  0.00  0.00    +0.000 C 
ATOM     12  C   UNL     1       1.644   5.391  21.160  0.00  0.00    +0.000 C 
ENDROOT
BRANCH  11  13
ATOM     13  C   UNL     1       2.045   2.989  21.420  0.00  0.00    +0.000 C 
ATOM     14  O   UNL     1       1.330   2.507  22.290  0.00  0.00    +0.000 OA
BRANCH  13  15
ATOM     15  O   UNL     1       3.344   2.628  21.328  0.00  0.00    +0.000 OA
ATOM     16  H   UNL     1       3.519   1.689  21.118  0.00  0.00    +0.000 HD
ENDBRANCH  13  15
ENDBRANCH  11  13
BRANCH   1  17
ATOM     17  C   UNL     1       1.386   8.944  19.634  0.00  0.00    +0.000 C 
BRANCH  17  28
ATOM     18  C   UNL     1      -0.931   9.713  17.704  0.00  0.00    +0.000 C 
ATOM     19  C   UNL     1      -0.668  10.382  19.033  0.00  0.00    +0.000 A 
ATOM     20  N   UNL     1      -1.531  11.430  19.342  0.00  0.00    +0.000 N 
ATOM     21  C   UNL     1      -1.409  12.146  20.477  0.00  0.00    +0.000 A 
ATOM     22  C   UNL     1      -2.093  13.198  21.027  0.00  0.00    +0.000 A 
ATOM     23  C   UNL     1      -1.412  13.458  22.234  0.00  0.00    +0.000 A 
ATOM     24  N   UNL     1      -0.383  12.630  22.441  0.00  0.00    +0.000 NA
ATOM     25  N   UNL     1      -0.398  11.819  21.349  0.00  0.00    +0.000 N 
ATOM     26  C   UNL     1       0.519  10.777  21.150  0.00  0.00    +0.000 A 
ATOM     27  O   UNL     1       1.406  10.551  21.962  0.00  0.00    +0.000 OA
ATOM     28  C   UNL     1       0.336  10.006  19.872  0.00  0.00    +0.000 A 
ATOM     29  H   UNL     1      -2.266  11.632  18.665  0.00  0.00    +0.000 HD
ENDBRANCH  17  28
ENDBRANCH   1  17
TORSDOF 4
ENDMDL
MODEL 3
REMARK VINA RESULT:      -7.1      1.892      2.828
REMARK  Name = 
REMARK  5 active torsions:
REMARK  status: ('A' for Active; 'I' for Inactive)
REMARK    1  A    between atoms: C_1  and  C_2
REMARK    2  A    between atoms: C_11  and  C_12
REMARK    3  A    between atoms: C_12  and  C_13
REMARK    4  A    between atoms: C_23  and  C_24
REMARK    5  A    between atoms: C_24  and  O_26
REMARK                            x       y       z     vdW  Elec       q    Type
REMARK                         _______ _______ _______ _____ _____    ______ ____
ROOT
ATOM      1  C   UNL     1       1.221   7.947  20.556  0.00  0.00    +0.000 C 
ATOM      2  O   UNL     1       0.279   7.956  21.358  0.00  0.00    +0.000 OA
ATOM      3  N   UNL     1       1.938   6.783  20.319  0.00  0.00    +0.000 N 
ATOM      4  C   UNL     1       3.135   6.628  19.484  0.00  0.00    +0.000 C 
ATOM      5  C   UNL     1       3.062   5.363  18.651  0.00  0.00    +0.000 A 
ATOM      6  C   UNL     1       3.878   5.217  17.519  0.00  0.00    +0.000 A 
ATOM      7  C   UNL     1       3.704   4.136  16.653  0.00  0.00    +0.000 A 
ATOM      8  C   UNL     1       2.697   3.205  16.893  0.00  0.00    +0.000 A 
ATOM      9  C   UNL     1       1.930   3.299  18.051  0.00  0.00    +0.000 A 
ATOM     10  C   UNL     1       2.162   4.334  18.975  0.00  0.00    +0.000 A 
ATOM     11  C   UNL     1       1.476   4.307  20.332  0.00  0.00    +0.000 C 
ATOM     12  C   UNL     1       1.643   5.607  21.141  0.00  0.00    +0.000 C 
ENDROOT
BRANCH  11  13
ATOM     13  C   UNL     1       1.940   3.180  21.257  0.00  0.00    +0.000 C 
ATOM     14  O   UNL     1       1.214   2.705  22.124  0.00  0.00    +0.000 OA
BRANCH  13  15
ATOM     15  O   UNL     1       3.208   2.736  21.114  0.00  0.00    +0.000 OA
ATOM     16  H   UNL     1       3.903   3.421  21.053  0.00  0.00    +0.000 HD
ENDBRANCH  13  15
ENDBRANCH  11  13
BRANCH   1  17
ATOM     17  C   UNL     1       1.543   9.254  19.832  0.00  0.00    +0.000 C 
BRANCH  17  28
ATOM     18  C   UNL     1      -0.012  11.276  21.615  0.00  0.00    +0.000 C 
ATOM     19  C   UNL     1      -0.416  10.886  20.213  0.00  0.00    +0.000 A 
ATOM     20  N   UNL     1      -1.592  11.475  19.757  0.00  0.00    +0.000 N 
ATOM     21  C   UNL     1      -2.103  11.207  18.539  0.00  0.00    +0.000 A 
ATOM     22  C   UNL     1      -3.207  11.626  17.846  0.00  0.00    +0.000 A 
ATOM     23  C   UNL     1      -3.133  10.927  16.624  0.00  0.00    +0.000 A 
ATOM     24  N   UNL     1      -2.060  10.133  16.541  0.00  0.00    +0.000 NA
ATOM     25  N   UNL     1      -1.427  10.323  17.730  0.00  0.00    +0.000 N 
ATOM     26  C   UNL     1      -0.229   9.682  18.077  0.00  0.00    +0.000 A 
ATOM     27  O   UNL     1       0.309   8.893  17.312  0.00  0.00    +0.000 OA
ATOM     28  C   UNL     1       0.299  10.021  19.443  0.00  0.00    +0.000 A 
ATOM     29  H   UNL     1      -2.054  12.125  20.392  0.00  0.00    +0.000 HD
ENDBRANCH  17  28
ENDBRANCH   1  17
TORSDOF 4
ENDMDL
MODEL 4
REMARK VINA RESULT:      -7.1      1.171      1.260
REMARK  Name = 
REMARK  5 active torsions:
REMARK  status: ('A' for Active; 'I' for Inactive)
REMARK    1  A    between atoms: C_1  and  C_2
REMARK    2  A    between atoms: C_11  and  C_12
REMARK    3  A    between atoms: C_12  and  C_13
REMARK    4  A    between atoms: C_23  and  C_24
REMARK    5  A    between atoms: C_24  and  O_26
REMARK                            x       y       z     vdW  Elec       q    Type
REMARK                         _______ _______ _______ _____ _____    ______ ____
ROOT
ATOM      1  C   UNL     1       1.149   7.204  20.832  0.00  0.00    +0.000 C 
ATOM      2  O   UNL     1      -0.061   7.123  21.078  0.00  0.00    +0.000 OA
ATOM      3  N   UNL     1       1.867   6.087  20.429  0.00  0.00    +0.000 N 
ATOM      4  C   UNL     1       3.313   5.992  20.198  0.00  0.00    +0.000 C 
ATOM      5  C   UNL     1       3.617   5.191  18.947  0.00  0.00    +0.000 A 
ATOM      6  C   UNL     1       4.870   5.303  18.326  0.00  0.00    +0.000 A 
ATOM      7  C   UNL     1       5.105   4.701  17.088  0.00  0.00    +0.000 A 
ATOM      8  C   UNL     1       4.085   4.005  16.446  0.00  0.00    +0.000 A 
ATOM      9  C   UNL     1       2.862   3.825  17.087  0.00  0.00    +0.000 A 
ATOM     10  C   UNL     1       2.649   4.350  18.374  0.00  0.00    +0.000 A 
ATOM     11  C   UNL     1       1.400   3.967  19.152  0.00  0.00    +0.000 C 
ATOM     12  C   UNL     1       1.191   4.788  20.439  0.00  0.00    +0.000 C 
ENDROOT
BRANCH  11  13
ATOM     13  C   UNL     1       1.343   2.499  19.584  0.00  0.00    +0.000 C 
ATOM     14  O   UNL     1       1.735   2.126  20.684  0.00  0.00    +0.000 OA
BRANCH  13  15
ATOM     15  O   UNL     1       0.872   1.603  18.688  0.00  0.00    +0.000 OA
ATOM     16  H   UNL     1       1.542   1.077  18.208  0.00  0.00    +0.000 HD
ENDBRANCH  13  15
ENDBRANCH  11  13
BRANCH   1  17
ATOM     17  C   UNL     1       1.806   8.578  20.968  0.00  0.00    +0.000 C 
BRANCH  17  28
ATOM     18  C   UNL     1       1.839   8.727  17.860  0.00  0.00    +0.000 C 
ATOM     19  C   UNL     1       1.157   9.733  18.756  0.00  0.00    +0.000 A 
ATOM     20  N   UNL     1       0.552  10.795  18.090  0.00  0.00    +0.000 N 
ATOM     21  C   UNL     1      -0.073  11.791  18.748  0.00  0.00    +0.000 A 
ATOM     22  C   UNL     1      -0.737  12.926  18.368  0.00  0.00    +0.000 A 
ATOM     23  C   UNL     1      -1.130  13.521  19.585  0.00  0.00    +0.000 A 
ATOM     24  N   UNL     1      -0.755  12.814  20.655  0.00  0.00    +0.000 NA
ATOM     25  N   UNL     1      -0.109  11.741  20.122  0.00  0.00    +0.000 N 
ATOM     26  C   UNL     1       0.453  10.716  20.897  0.00  0.00    +0.000 A 
ATOM     27  O   UNL     1       0.398  10.745  22.119  0.00  0.00    +0.000 OA
ATOM     28  C   UNL     1       1.132   9.628  20.113  0.00  0.00    +0.000 A 
ATOM     29  H   UNL     1       0.602  10.785  17.072  0.00  0.00    +0.000 HD
ENDBRANCH  17  28
ENDBRANCH   1  17
TORSDOF 4
ENDMDL
MODEL 5
REMARK VINA RESULT:      -7.0      3.370      9.376
REMARK  Name = 
REMARK  5 active torsions:
REMARK  status: ('A' for Active; 'I' for Inactive)
REMARK    1  A    between atoms: C_1  and  C_2
REMARK    2  A    between atoms: C_11  and  C_12
REMARK    3  A    between atoms: C_12  and  C_13
REMARK    4  A    between atoms: C_23  and  C_24
REMARK    5  A    between atoms: C_24  and  O_26
REMARK                            x       y       z     vdW  Elec       q    Type
REMARK                         _______ _______ _______ _____ _____    ______ ____
ROOT
ATOM      1  C   UNL     1      -1.065  10.824  18.709  0.00  0.00    +0.000 C 
ATOM      2  O   UNL     1      -1.312   9.863  17.968  0.00  0.00    +0.000 OA
ATOM      3  N   UNL     1      -2.036  11.778  18.980  0.00  0.00    +0.000 N 
ATOM      4  C   UNL     1      -1.876  13.019  19.747  0.00  0.00    +0.000 C 
ATOM      5  C   UNL     1      -3.059  13.249  20.667  0.00  0.00    +0.000 A 
ATOM      6  C   UNL     1      -2.945  14.130  21.753  0.00  0.00    +0.000 A 
ATOM      7  C   UNL     1      -3.967  14.225  22.700  0.00  0.00    +0.000 A 
ATOM      8  C   UNL     1      -5.100  13.424  22.587  0.00  0.00    +0.000 A 
ATOM      9  C   UNL     1      -5.256  12.602  21.475  0.00  0.00    +0.000 A 
ATOM     10  C   UNL     1      -4.273  12.569  20.470  0.00  0.00    +0.000 A 
ATOM     11  C   UNL     1      -4.547  11.841  19.163  0.00  0.00    +0.000 C 
ATOM     12  C   UNL     1      -3.308  11.696  18.259  0.00  0.00    +0.000 C 
ENDROOT
BRANCH  11  13
ATOM     13  C   UNL     1      -5.625  12.486  18.289  0.00  0.00    +0.000 C 
ATOM     14  O   UNL     1      -6.316  11.833  17.515  0.00  0.00    +0.000 OA
BRANCH  13  15
ATOM     15  O   UNL     1      -5.775  13.827  18.370  0.00  0.00    +0.000 OA
ATOM     16  H   UNL     1      -5.438  14.253  19.183  0.00  0.00    +0.000 HD
ENDBRANCH  13  15
ENDBRANCH  11  13
BRANCH   1  17
ATOM     17  C   UNL     1       0.333  10.900  19.321  0.00  0.00    +0.000 C 
BRANCH  17  28
ATOM     18  C   UNL     1       0.032   9.199  21.910  0.00  0.00    +0.000 C 
ATOM     19  C   UNL     1       0.838   8.783  20.703  0.00  0.00    +0.000 A 
ATOM     20  N   UNL     1       1.499   7.564  20.833  0.00  0.00    +0.000 N 
ATOM     21  C   UNL     1       2.283   7.067  19.856  0.00  0.00    +0.000 A 
ATOM     22  C   UNL     1       3.031   5.929  19.709  0.00  0.00    +0.000 A 
ATOM     23  C   UNL     1       3.611   6.060  18.431  0.00  0.00    +0.000 A 
ATOM     24  N   UNL     1       3.253   7.188  17.808  0.00  0.00    +0.000 NA
ATOM     25  N   UNL     1       2.424   7.797  18.699  0.00  0.00    +0.000 N 
ATOM     26  C   UNL     1       1.797   9.027  18.452  0.00  0.00    +0.000 A 
ATOM     27  O   UNL     1       1.981   9.631  17.404  0.00  0.00    +0.000 OA
ATOM     28  C   UNL     1       0.930   9.533  19.571  0.00  0.00    +0.000 A 
ATOM     29  H   UNL     1       1.360   7.059  21.707  0.00  0.00    +0.000 HD
ENDBRANCH  17  28
ENDBRANCH   1  17
TORSDOF 4
ENDMDL
MODEL 6
REMARK VINA RESULT:      -7.0      1.460      1.894
REMARK  Name = 
REMARK  5 active torsions:
REMARK  status: ('A' for Active; 'I' for Inactive)
REMARK    1  A    between atoms: C_1  and  C_2
REMARK    2  A    between atoms: C_11  and  C_12
REMARK    3  A    between atoms: C_12  and  C_13
REMARK    4  A    between atoms: C_23  and  C_24
REMARK    5  A    between atoms: C_24  and  O_26
REMARK                            x       y       z     vdW  Elec       q    Type
REMARK                         _______ _______ _______ _____ _____    ______ ____
ROOT
ATOM      1  C   UNL     1       1.131   7.196  20.790  0.00  0.00    +0.000 C 
ATOM      2  O   UNL     1      -0.060   7.060  21.097  0.00  0.00    +0.000 OA
ATOM      3  N   UNL     1       1.898   6.100  20.420  0.00  0.00    +0.000 N 
ATOM      4  C   UNL     1       3.336   6.076  20.129  0.00  0.00    +0.000 C 
ATOM      5  C   UNL     1       3.634   5.218  18.914  0.00  0.00    +0.000 A 
ATOM      6  C   UNL     1       4.850   5.365  18.230  0.00  0.00    +0.000 A 
ATOM      7  C   UNL     1       5.068   4.704  17.020  0.00  0.00    +0.000 A 
ATOM      8  C   UNL     1       4.066   3.911  16.468  0.00  0.00    +0.000 A 
ATOM      9  C   UNL     1       2.885   3.699  17.174  0.00  0.00    +0.000 A 
ATOM     10  C   UNL     1       2.695   4.289  18.437  0.00  0.00    +0.000 A 
ATOM     11  C   UNL     1       1.507   3.882  19.293  0.00  0.00    +0.000 C 
ATOM     12  C   UNL     1       1.303   4.767  20.538  0.00  0.00    +0.000 C 
ENDROOT
BRANCH  11  13
ATOM     13  C   UNL     1       1.558   2.443  19.811  0.00  0.00    +0.000 C 
ATOM     14  O   UNL     1       1.754   2.180  20.993  0.00  0.00    +0.000 OA
BRANCH  13  15
ATOM     15  O   UNL     1       1.413   1.448  18.908  0.00  0.00    +0.000 OA
ATOM     16  H   UNL     1       0.571   1.434  18.410  0.00  0.00    +0.000 HD
ENDBRANCH  13  15
ENDBRANCH  11  13
BRANCH   1  17
ATOM     17  C   UNL     1       1.708   8.612  20.816  0.00  0.00    +0.000 C 
BRANCH  17  28
ATOM     18  C   UNL     1       0.399   9.842  18.274  0.00  0.00    +0.000 C 
ATOM     19  C   UNL     1       0.066  10.250  19.690  0.00  0.00    +0.000 A 
ATOM     20  N   UNL     1      -0.869  11.276  19.799  0.00  0.00    +0.000 N 
ATOM     21  C   UNL     1      -1.250  11.773  20.992  0.00  0.00    +0.000 A 
ATOM     22  C   UNL     1      -2.124  12.749  21.391  0.00  0.00    +0.000 A 
ATOM     23  C   UNL     1      -2.018  12.752  22.797  0.00  0.00    +0.000 A 
ATOM     24  N   UNL     1      -1.154  11.843  23.258  0.00  0.00    +0.000 NA
ATOM     25  N   UNL     1      -0.692  11.238  22.129  0.00  0.00    +0.000 N 
ATOM     26  C   UNL     1       0.246  10.196  22.142  0.00  0.00    +0.000 A 
ATOM     27  O   UNL     1       0.714   9.780  23.193  0.00  0.00    +0.000 OA
ATOM     28  C   UNL     1       0.632   9.674  20.786  0.00  0.00    +0.000 A 
ATOM     29  H   UNL     1      -1.256  11.636  18.928  0.00  0.00    +0.000 HD
ENDBRANCH  17  28
ENDBRANCH   1  17
TORSDOF 4
ENDMDL
MODEL 7
REMARK VINA RESULT:      -6.9      2.178      3.606
REMARK  Name = 
REMARK  5 active torsions:
REMARK  status: ('A' for Active; 'I' for Inactive)
REMARK    1  A    between atoms: C_1  and  C_2
REMARK    2  A    between atoms: C_11  and  C_12
REMARK    3  A    between atoms: C_12  and  C_13
REMARK    4  A    between atoms: C_23  and  C_24
REMARK    5  A    between atoms: C_24  and  O_26
REMARK                            x       y       z     vdW  Elec       q    Type
REMARK                         _______ _______ _______ _____ _____    ______ ____
ROOT
ATOM      1  C   UNL     1       2.357   8.095  18.058  0.00  0.00    +0.000 C 
ATOM      2  O   UNL     1       3.292   8.904  17.997  0.00  0.00    +0.000 OA
ATOM      3  N   UNL     1       2.604   6.731  18.135  0.00  0.00    +0.000 N 
ATOM      4  C   UNL     1       1.618   5.644  18.111  0.00  0.00    +0.000 C 
ATOM      5  C   UNL     1       1.955   4.577  19.135  0.00  0.00    +0.000 A 
ATOM      6  C   UNL     1       0.970   3.672  19.558  0.00  0.00    +0.000 A 
ATOM      7  C   UNL     1       1.220   2.795  20.615  0.00  0.00    +0.000 A 
ATOM      8  C   UNL     1       2.444   2.830  21.277  0.00  0.00    +0.000 A 
ATOM      9  C   UNL     1       3.453   3.672  20.818  0.00  0.00    +0.000 A 
ATOM     10  C   UNL     1       3.240   4.493  19.696  0.00  0.00    +0.000 A 
ATOM     11  C   UNL     1       4.406   5.242  19.071  0.00  0.00    +0.000 C 
ATOM     12  C   UNL     1       3.987   6.269  18.002  0.00  0.00    +0.000 C 
ENDROOT
BRANCH  11  13
ATOM     13  C   UNL     1       5.451   4.348  18.400  0.00  0.00    +0.000 C 
ATOM     14  O   UNL     1       6.643   4.409  18.683  0.00  0.00    +0.000 OA
BRANCH  13  15
ATOM     15  O   UNL     1       5.022   3.495  17.443  0.00  0.00    +0.000 OA
ATOM     16  H   UNL     1       4.100   3.612  17.141  0.00  0.00    +0.000 HD
ENDBRANCH  13  15
ENDBRANCH  11  13
BRANCH   1  17
ATOM     17  C   UNL     1       0.936   8.659  18.065  0.00  0.00    +0.000 C 
BRANCH  17  28
ATOM     18  C   UNL     1       1.427   7.756  21.003  0.00  0.00    +0.000 C 
ATOM     19  C   UNL     1       0.817   9.079  20.606  0.00  0.00    +0.000 A 
ATOM     20  N   UNL     1       0.434   9.891  21.671  0.00  0.00    +0.000 N 
ATOM     21  C   UNL     1      -0.152  11.089  21.483  0.00  0.00    +0.000 A 
ATOM     22  C   UNL     1      -0.619  12.072  22.316  0.00  0.00    +0.000 A 
ATOM     23  C   UNL     1      -1.125  13.054  21.440  0.00  0.00    +0.000 A 
ATOM     24  N   UNL     1      -0.982  12.728  20.152  0.00  0.00    +0.000 NA
ATOM     25  N   UNL     1      -0.371  11.513  20.193  0.00  0.00    +0.000 N 
ATOM     26  C   UNL     1      -0.016  10.789  19.046  0.00  0.00    +0.000 A 
ATOM     27  O   UNL     1      -0.256  11.220  17.927  0.00  0.00    +0.000 OA
ATOM     28  C   UNL     1       0.640   9.462  19.312  0.00  0.00    +0.000 A 
ATOM     29  H   UNL     1       0.620   9.534  22.608  0.00  0.00    +0.000 HD
ENDBRANCH  17  28
ENDBRANCH   1  17
TORSDOF 4
ENDMDL
MODEL 8
REMARK VINA RESULT:      -6.9      1.179      1.396
REMARK  Name = 
REMARK  5 active torsions:
REMARK  status: ('A' for Active; 'I' for Inactive)
REMARK    1  A    between atoms: C_1  and  C_2
REMARK    2  A    between atoms: C_11  and  C_12
REMARK    3  A    between atoms: C_12  and  C_13
REMARK    4  A    between atoms: C_23  and  C_24
REMARK    5  A    between atoms: C_24  and  O_26
REMARK                            x       y       z     vdW  Elec       q    Type
REMARK                         _______ _______ _______ _____ _____    ______ ____
ROOT
ATOM      1  C   UNL     1       1.856   6.701  20.266  0.00  0.00    +0.000 C 
ATOM      2  O   UNL     1       0.662   6.458  20.487  0.00  0.00    +0.000 OA
ATOM      3  N   UNL     1       2.704   5.711  19.789  0.00  0.00    +0.000 N 
ATOM      4  C   UNL     1       4.153   5.807  19.575  0.00  0.00    +0.000 C 
ATOM      5  C   UNL     1       4.557   5.147  18.270  0.00  0.00    +0.000 A 
ATOM      6  C   UNL     1       5.791   5.456  17.679  0.00  0.00    +0.000 A 
ATOM      7  C   UNL     1       6.103   4.984  16.402  0.00  0.00    +0.000 A 
ATOM      8  C   UNL     1       5.178   4.224  15.693  0.00  0.00    +0.000 A 
ATOM      9  C   UNL     1       3.981   3.850  16.299  0.00  0.00    +0.000 A 
ATOM     10  C   UNL     1       3.699   4.244  17.620  0.00  0.00    +0.000 A 
ATOM     11  C   UNL     1       2.501   3.657  18.347  0.00  0.00    +0.000 C 
ATOM     12  C   UNL     1       2.187   4.345  19.690  0.00  0.00    +0.000 C 
ENDROOT
BRANCH  11  13
ATOM     13  C   UNL     1       2.617   2.164  18.664  0.00  0.00    +0.000 C 
ATOM     14  O   UNL     1       3.700   1.611  18.822  0.00  0.00    +0.000 OA
BRANCH  13  15
ATOM     15  O   UNL     1       1.472   1.449  18.730  0.00  0.00    +0.000 OA
ATOM     16  H   UNL     1       0.965   1.363  17.899  0.00  0.00    +0.000 HD
ENDBRANCH  13  15
ENDBRANCH  11  13
BRANCH   1  17
ATOM     17  C   UNL     1       2.342   8.128  20.518  0.00  0.00    +0.000 C 
BRANCH  17  28
ATOM     18  C   UNL     1       0.904   9.355  18.046  0.00  0.00    +0.000 C 
ATOM     19  C   UNL     1       0.584   9.703  19.480  0.00  0.00    +0.000 A 
ATOM     20  N   UNL     1      -0.403  10.671  19.642  0.00  0.00    +0.000 N 
ATOM     21  C   UNL     1      -0.782  11.112  20.858  0.00  0.00    +0.000 A 
ATOM     22  C   UNL     1      -1.698  12.026  21.307  0.00  0.00    +0.000 A 
ATOM     23  C   UNL     1      -1.557  11.995  22.709  0.00  0.00    +0.000 A 
ATOM     24  N   UNL     1      -0.632  11.122  23.122  0.00  0.00    +0.000 NA
ATOM     25  N   UNL     1      -0.166  10.577  21.965  0.00  0.00    +0.000 N 
ATOM     26  C   UNL     1       0.829   9.589  21.925  0.00  0.00    +0.000 A 
ATOM     27  O   UNL     1       1.346   9.170  22.951  0.00  0.00    +0.000 OA
ATOM     28  C   UNL     1       1.209   9.129  20.545  0.00  0.00    +0.000 A 
ATOM     29  H   UNL     1      -0.832  11.034  18.791  0.00  0.00    +0.000 HD
ENDBRANCH  17  28
ENDBRANCH   1  17
TORSDOF 4
ENDMDL
MODEL 9
REMARK VINA RESULT:      -6.8      3.309      9.393
REMARK  Name = 
REMARK  5 active torsions:
REMARK  status: ('A' for Active; 'I' for Inactive)
REMARK    1  A    between atoms: C_1  and  C_2
REMARK    2  A    between atoms: C_11  and  C_12
REMARK    3  A    between atoms: C_12  and  C_13
REMARK    4  A    between atoms: C_23  and  C_24
REMARK    5  A    between atoms: C_24  and  O_26
REMARK                            x       y       z     vdW  Elec       q    Type
REMARK                         _______ _______ _______ _____ _____    ______ ____
ROOT
ATOM      1  C   UNL     1      -0.839  11.115  19.162  0.00  0.00    +0.000 C 
ATOM      2  O   UNL     1      -1.380  10.270  18.438  0.00  0.00    +0.000 OA
ATOM      3  N   UNL     1      -1.588  12.112  19.770  0.00  0.00    +0.000 N 
ATOM      4  C   UNL     1      -1.091  13.239  20.568  0.00  0.00    +0.000 C 
ATOM      5  C   UNL     1      -1.955  13.465  21.794  0.00  0.00    +0.000 A 
ATOM      6  C   UNL     1      -1.459  14.203  22.879  0.00  0.00    +0.000 A 
ATOM      7  C   UNL     1      -2.177  14.279  24.074  0.00  0.00    +0.000 A 
ATOM      8  C   UNL     1      -3.383  13.597  24.207  0.00  0.00    +0.000 A 
ATOM      9  C   UNL     1      -3.921  12.923  23.113  0.00  0.00    +0.000 A 
ATOM     10  C   UNL     1      -3.247  12.920  21.879  0.00  0.00    +0.000 A 
ATOM     11  C   UNL     1      -3.938  12.372  20.640  0.00  0.00    +0.000 C 
ATOM     12  C   UNL     1      -3.006  12.224  19.421  0.00  0.00    +0.000 C 
ENDROOT
BRANCH  11  13
ATOM     13  C   UNL     1      -5.127  13.204  20.153  0.00  0.00    +0.000 C 
ATOM     14  O   UNL     1      -6.247  12.725  20.018  0.00  0.00    +0.000 OA
BRANCH  13  15
ATOM     15  O   UNL     1      -4.897  14.498  19.838  0.00  0.00    +0.000 OA
ATOM     16  H   UNL     1      -4.013  14.705  19.474  0.00  0.00    +0.000 HD
ENDBRANCH  13  15
ENDBRANCH  11  13
BRANCH   1  17
ATOM     17  C   UNL     1       0.671  10.999  19.373  0.00  0.00    +0.000 C 
BRANCH  17  28
ATOM     18  C   UNL     1       0.340   9.469  22.063  0.00  0.00    +0.000 C 
ATOM     19  C   UNL     1       1.002   8.898  20.831  0.00  0.00    +0.000 A 
ATOM     20  N   UNL     1       1.511   7.612  20.984  0.00  0.00    +0.000 N 
ATOM     21  C   UNL     1       2.157   6.975  19.987  0.00  0.00    +0.000 A 
ATOM     22  C   UNL     1       2.744   5.744  19.855  0.00  0.00    +0.000 A 
ATOM     23  C   UNL     1       3.245   5.742  18.537  0.00  0.00    +0.000 A 
ATOM     24  N   UNL     1       2.989   6.877  17.878  0.00  0.00    +0.000 NA
ATOM     25  N   UNL     1       2.307   7.628  18.786  0.00  0.00    +0.000 N 
ATOM     26  C   UNL     1       1.824   8.916  18.514  0.00  0.00    +0.000 A 
ATOM     27  O   UNL     1       2.009   9.443  17.425  0.00  0.00    +0.000 OA
ATOM     28  C   UNL     1       1.107   9.579  19.657  0.00  0.00    +0.000 A 
ATOM     29  H   UNL     1       1.372   7.169  21.891  0.00  0.00    +0.000 HD
ENDBRANCH  17  28
ENDBRANCH   1  17
TORSDOF 4
ENDMDL
