MODEL 1
REMARK VINA RESULT:      -8.4      0.000      0.000
REMARK  Name = 
REMARK  3 active torsions:
REMARK  status: ('A' for Active; 'I' for Inactive)
REMARK    1  A    between atoms: C_2  and  C_15
REMARK    2  A    between atoms: N_3  and  C_4
REMARK    3  A    between atoms: C_8  and  C_9
REMARK                            x       y       z     vdW  Elec       q    Type
REMARK                         _______ _______ _______ _____ _____    ______ ____
ROOT
ATOM      1  O   UNL     1       2.378   8.687  17.339  0.00  0.00    +0.000 OA
ATOM      2  C   UNL     1       1.910   8.450  18.453  0.00  0.00    +0.000 C 
ATOM      3  N   UNL     1       1.950   7.211  19.070  0.00  0.00    +0.000 N 
ATOM      4  H   UNL     1       1.622   7.163  20.037  0.00  0.00    +0.000 HD
ENDROOT
BRANCH   2   5
ATOM      5  C   UNL     1       1.253   9.595  19.145  0.00  0.00    +0.000 A 
ATOM      6  C   UNL     1       0.935  10.699  18.312  0.00  0.00    +0.000 A 
ATOM      7  C   UNL     1       0.198  11.771  18.771  0.00  0.00    +0.000 A 
ATOM      8  C   UNL     1      -0.354  11.694  20.035  0.00  0.00    +0.000 A 
ATOM      9 CL   UNL     1      -1.222  13.087  20.594  0.00  0.00    +0.000 Cl
ATOM     10  C   UNL     1      -0.068  10.602  20.887  0.00  0.00    +0.000 A 
ATOM     11  C   UNL     1      -0.660  10.487  22.153  0.00  0.00    +0.000 A 
ATOM     12  C   UNL     1      -0.040   9.726  23.122  0.00  0.00    +0.000 A 
ATOM     13  C   UNL     1       1.025   8.944  22.732  0.00  0.00    +0.000 A 
ATOM     14  N   UNL     1       1.413   8.801  21.439  0.00  0.00    +0.000 NA
ATOM     15  C   UNL     1       0.877   9.624  20.509  0.00  0.00    +0.000 A 
ENDBRANCH   2   5
BRANCH   3  16
ATOM     16  C   UNL     1       2.460   6.015  18.474  0.00  0.00    +0.000 A 
ATOM     17  C   UNL     1       1.641   4.970  18.044  0.00  0.00    +0.000 A 
ATOM     18  C   UNL     1       2.172   3.832  17.439  0.00  0.00    +0.000 A 
ATOM     19  C   UNL     1       3.543   3.726  17.245  0.00  0.00    +0.000 A 
ATOM     20  C   UNL     1       4.398   4.760  17.654  0.00  0.00    +0.000 A 
ATOM     21  C   UNL     1       3.850   5.889  18.298  0.00  0.00    +0.000 A 
BRANCH  20  22
ATOM     22  C   UNL     1       5.834   4.669  17.392  0.00  0.00    +0.000 A 
ATOM     23  N   UNL     1       6.454   4.731  16.228  0.00  0.00    +0.000 NA
ATOM     24  N   UNL     1       7.808   4.589  16.450  0.00  0.00    +0.000 NA
ATOM     25  C   UNL     1       7.982   4.419  17.738  0.00  0.00    +0.000 A 
ATOM     26  N   UNL     1       6.780   4.453  18.363  0.00  0.00    +0.000 N 
ATOM     27  H   UNL     1       6.612   4.324  19.347  0.00  0.00    +0.000 HD
ENDBRANCH  20  22
ENDBRANCH   3  16
TORSDOF 3
ENDMDL
MODEL 2
REMARK VINA RESULT:      -8.4      3.945      8.547
REMARK  Name = 
REMARK  3 active torsions:
REMARK  status: ('A' for Active; 'I' for Inactive)
REMARK    1  A    between atoms: C_2  and  C_15
REMARK    2  A    between atoms: N_3  and  C_4
REMARK    3  A    between atoms: C_8  and  C_9
REMARK                            x       y       z     vdW  Elec       q    Type
REMARK                         _______ _______ _______ _____ _____    ______ ____
ROOT
ATOM      1  O   UNL     1       2.222   7.541  19.786  0.00  0.00    +0.000 OA
ATOM      2  C   UNL     1       2.311   7.683  18.567  0.00  0.00    +0.000 C 
ATOM      3  N   UNL     1       1.698   8.698  17.851  0.00  0.00    +0.000 N 
ATOM      4  H   UNL     1       1.931   8.772  16.858  0.00  0.00    +0.000 HD
ENDROOT
BRANCH   2   5
ATOM      5  C   UNL     1       3.130   6.668  17.846  0.00  0.00    +0.000 A 
ATOM      6  C   UNL     1       4.278   7.179  17.187  0.00  0.00    +0.000 A 
ATOM      7  C   UNL     1       5.213   6.351  16.600  0.00  0.00    +0.000 A 
ATOM      8  C   UNL     1       5.087   4.987  16.784  0.00  0.00    +0.000 A 
ATOM      9 CL   UNL     1       6.249   3.982  15.980  0.00  0.00    +0.000 Cl
ATOM     10  C   UNL     1       3.962   4.445  17.446  0.00  0.00    +0.000 A 
ATOM     11  C   UNL     1       3.845   3.067  17.681  0.00  0.00    +0.000 A 
ATOM     12  C   UNL     1       2.595   2.518  17.876  0.00  0.00    +0.000 A 
ATOM     13  C   UNL     1       1.538   3.386  18.038  0.00  0.00    +0.000 A 
ATOM     14  N   UNL     1       1.684   4.732  18.130  0.00  0.00    +0.000 NA
ATOM     15  C   UNL     1       2.888   5.274  17.835  0.00  0.00    +0.000 A 
ENDBRANCH   2   5
BRANCH   3  16
ATOM     16  C   UNL     1       0.810   9.672  18.406  0.00  0.00    +0.000 A 
ATOM     17  C   UNL     1       1.156  10.490  19.483  0.00  0.00    +0.000 A 
ATOM     18  C   UNL     1       0.276  11.451  19.977  0.00  0.00    +0.000 A 
ATOM     19  C   UNL     1      -0.972  11.617  19.390  0.00  0.00    +0.000 A 
ATOM     20  C   UNL     1      -1.352  10.821  18.300  0.00  0.00    +0.000 A 
ATOM     21  C   UNL     1      -0.465   9.827  17.833  0.00  0.00    +0.000 A 
BRANCH  20  22
ATOM     22  C   UNL     1      -2.642  11.041  17.647  0.00  0.00    +0.000 A 
ATOM     23  N   UNL     1      -3.057  10.573  16.485  0.00  0.00    +0.000 NA
ATOM     24  N   UNL     1      -4.333  11.043  16.259  0.00  0.00    +0.000 NA
ATOM     25  C   UNL     1      -4.660  11.805  17.274  0.00  0.00    +0.000 A 
ATOM     26  N   UNL     1      -3.635  11.840  18.159  0.00  0.00    +0.000 N 
ATOM     27  H   UNL     1      -3.600  12.367  19.016  0.00  0.00    +0.000 HD
ENDBRANCH  20  22
ENDBRANCH   3  16
TORSDOF 3
ENDMDL
MODEL 3
REMARK VINA RESULT:      -8.3      1.127      1.293
REMARK  Name = 
REMARK  3 active torsions:
REMARK  status: ('A' for Active; 'I' for Inactive)
REMARK    1  A    between atoms: C_2  and  C_15
REMARK    2  A    between atoms: N_3  and  C_4
REMARK    3  A    between atoms: C_8  and  C_9
REMARK                            x       y       z     vdW  Elec       q    Type
REMARK                         _______ _______ _______ _____ _____    ______ ____
ROOT
ATOM      1  O   UNL     1       1.501   8.803  17.290  0.00  0.00    +0.000 OA
ATOM      2  C   UNL     1       1.770   8.788  18.492  0.00  0.00    +0.000 C 
ATOM      3  N   UNL     1       2.411   7.744  19.137  0.00  0.00    +0.000 N 
ATOM      4  H   UNL     1       2.672   7.892  20.114  0.00  0.00    +0.000 HD
ENDROOT
BRANCH   2   5
ATOM      5  C   UNL     1       1.348   9.985  19.272  0.00  0.00    +0.000 A 
ATOM      6  C   UNL     1       1.452  11.220  18.581  0.00  0.00    +0.000 A 
ATOM      7  C   UNL     1       0.967  12.398  19.112  0.00  0.00    +0.000 A 
ATOM      8  C   UNL     1       0.243  12.337  20.288  0.00  0.00    +0.000 A 
ATOM      9 CL   UNL     1      -0.296  13.846  20.951  0.00  0.00    +0.000 Cl
ATOM     10  C   UNL     1       0.110  11.121  20.996  0.00  0.00    +0.000 A 
ATOM     11  C   UNL     1      -0.661  11.035  22.164  0.00  0.00    +0.000 A 
ATOM     12  C   UNL     1      -0.406  10.027  23.071  0.00  0.00    +0.000 A 
ATOM     13  C   UNL     1       0.460   9.028  22.683  0.00  0.00    +0.000 A 
ATOM     14  N   UNL     1       0.972   8.927  21.430  0.00  0.00    +0.000 NA
ATOM     15  C   UNL     1       0.806   9.966  20.579  0.00  0.00    +0.000 A 
ENDBRANCH   2   5
BRANCH   3  16
ATOM     16  C   UNL     1       2.777   6.504  18.526  0.00  0.00    +0.000 A 
ATOM     17  C   UNL     1       2.023   5.337  18.660  0.00  0.00    +0.000 A 
ATOM     18  C   UNL     1       2.395   4.155  18.024  0.00  0.00    +0.000 A 
ATOM     19  C   UNL     1       3.531   4.123  17.227  0.00  0.00    +0.000 A 
ATOM     20  C   UNL     1       4.309   5.277  17.059  0.00  0.00    +0.000 A 
ATOM     21  C   UNL     1       3.942   6.458  17.739  0.00  0.00    +0.000 A 
BRANCH  20  22
ATOM     22  C   UNL     1       5.470   5.254  16.170  0.00  0.00    +0.000 A 
ATOM     23  N   UNL     1       6.623   5.881  16.319  0.00  0.00    +0.000 NA
ATOM     24  N   UNL     1       7.422   5.582  15.236  0.00  0.00    +0.000 NA
ATOM     25  C   UNL     1       6.734   4.801  14.439  0.00  0.00    +0.000 A 
ATOM     26  N   UNL     1       5.510   4.577  14.976  0.00  0.00    +0.000 N 
ATOM     27  H   UNL     1       4.766   4.036  14.567  0.00  0.00    +0.000 HD
ENDBRANCH  20  22
ENDBRANCH   3  16
TORSDOF 3
ENDMDL
MODEL 4
REMARK VINA RESULT:      -8.3      3.931      8.515
REMARK  Name = 
REMARK  3 active torsions:
REMARK  status: ('A' for Active; 'I' for Inactive)
REMARK    1  A    between atoms: C_2  and  C_15
REMARK    2  A    between atoms: N_3  and  C_4
REMARK    3  A    between atoms: C_8  and  C_9
REMARK                            x       y       z     vdW  Elec       q    Type
REMARK                         _______ _______ _______ _____ _____    ______ ____
ROOT
ATOM      1  O   UNL     1       1.438   8.346  20.791  0.00  0.00    +0.000 OA
ATOM      2  C   UNL     1       1.762   8.025  19.648  0.00  0.00    +0.000 C 
ATOM      3  N   UNL     1       1.552   8.809  18.525  0.00  0.00    +0.000 N 
ATOM      4  H   UNL     1       1.959   8.481  17.647  0.00  0.00    +0.000 HD
ENDROOT
BRANCH   2   5
ATOM      5  C   UNL     1       2.410   6.691  19.500  0.00  0.00    +0.000 A 
ATOM      6  C   UNL     1       2.031   5.729  20.473  0.00  0.00    +0.000 A 
ATOM      7  C   UNL     1       2.429   4.410  20.390  0.00  0.00    +0.000 A 
ATOM      8  C   UNL     1       3.099   3.999  19.253  0.00  0.00    +0.000 A 
ATOM      9 CL   UNL     1       3.633   2.349  19.217  0.00  0.00    +0.000 Cl
ATOM     10  C   UNL     1       3.481   4.928  18.259  0.00  0.00    +0.000 A 
ATOM     11  C   UNL     1       4.119   4.518  17.080  0.00  0.00    +0.000 A 
ATOM     12  C   UNL     1       4.886   5.423  16.376  0.00  0.00    +0.000 A 
ATOM     13  C   UNL     1       4.819   6.745  16.756  0.00  0.00    +0.000 A 
ATOM     14  N   UNL     1       3.958   7.209  17.698  0.00  0.00    +0.000 NA
ATOM     15  C   UNL     1       3.286   6.313  18.456  0.00  0.00    +0.000 A 
ENDBRANCH   2   5
BRANCH   3  16
ATOM     16  C   UNL     1       0.857  10.058  18.517  0.00  0.00    +0.000 A 
ATOM     17  C   UNL     1       1.463  11.268  18.859  0.00  0.00    +0.000 A 
ATOM     18  C   UNL     1       0.761  12.471  18.808  0.00  0.00    +0.000 A 
ATOM     19  C   UNL     1      -0.567  12.484  18.401  0.00  0.00    +0.000 A 
ATOM     20  C   UNL     1      -1.207  11.290  18.040  0.00  0.00    +0.000 A 
ATOM     21  C   UNL     1      -0.496  10.075  18.131  0.00  0.00    +0.000 A 
BRANCH  20  22
ATOM     22  C   UNL     1      -2.586  11.318  17.554  0.00  0.00    +0.000 A 
ATOM     23  N   UNL     1      -3.058  10.846  16.415  0.00  0.00    +0.000 NA
ATOM     24  N   UNL     1      -4.412  11.099  16.368  0.00  0.00    +0.000 NA
ATOM     25  C   UNL     1      -4.734  11.739  17.466  0.00  0.00    +0.000 A 
ATOM     26  N   UNL     1      -3.627  11.906  18.230  0.00  0.00    +0.000 N 
ATOM     27  H   UNL     1      -3.575  12.387  19.113  0.00  0.00    +0.000 HD
ENDBRANCH  20  22
ENDBRANCH   3  16
TORSDOF 3
ENDMDL
MODEL 5
REMARK VINA RESULT:      -8.2      1.306      1.437
REMARK  Name = 
REMARK  3 active torsions:
REMARK  status: ('A' for Active; 'I' for Inactive)
REMARK    1  A    between atoms: C_2  and  C_15
REMARK    2  A    between atoms: N_3  and  C_4
REMARK    3  A    between atoms: C_8  and  C_9
REMARK                            x       y       z     vdW  Elec       q    Type
REMARK                         _______ _______ _______ _____ _____    ______ ____
ROOT
ATOM      1  O   UNL     1       2.884   7.853  18.180  0.00  0.00    +0.000 OA
ATOM      2  C   UNL     1       2.204   7.798  19.205  0.00  0.00    +0.000 C 
ATOM      3  N   UNL     1       2.208   6.732  20.090  0.00  0.00    +0.000 N 
ATOM      4  H   UNL     1       1.682   6.848  20.959  0.00  0.00    +0.000 HD
ENDROOT
BRANCH   2   5
ATOM      5  C   UNL     1       1.321   8.969  19.470  0.00  0.00    +0.000 A 
ATOM      6  C   UNL     1       0.942   9.707  18.319  0.00  0.00    +0.000 A 
ATOM      7  C   UNL     1       0.015  10.728  18.379  0.00  0.00    +0.000 A 
ATOM      8  C   UNL     1      -0.655  10.936  19.570  0.00  0.00    +0.000 A 
ATOM      9 CL   UNL     1      -1.766  12.266  19.617  0.00  0.00    +0.000 Cl
ATOM     10  C   UNL     1      -0.310  10.210  20.732  0.00  0.00    +0.000 A 
ATOM     11  C   UNL     1      -1.013  10.376  21.935  0.00  0.00    +0.000 A 
ATOM     12  C   UNL     1      -0.400  10.051  23.127  0.00  0.00    +0.000 A 
ATOM     13  C   UNL     1       0.801   9.380  23.061  0.00  0.00    +0.000 A 
ATOM     14  N   UNL     1       1.343   8.928  21.902  0.00  0.00    +0.000 NA
ATOM     15  C   UNL     1       0.799   9.336  20.733  0.00  0.00    +0.000 A 
ENDBRANCH   2   5
BRANCH   3  16
ATOM     16  C   UNL     1       2.932   5.513  19.902  0.00  0.00    +0.000 A 
ATOM     17  C   UNL     1       2.532   4.298  20.458  0.00  0.00    +0.000 A 
ATOM     18  C   UNL     1       3.246   3.123  20.227  0.00  0.00    +0.000 A 
ATOM     19  C   UNL     1       4.375   3.145  19.419  0.00  0.00    +0.000 A 
ATOM     20  C   UNL     1       4.803   4.346  18.834  0.00  0.00    +0.000 A 
ATOM     21  C   UNL     1       4.092   5.534  19.107  0.00  0.00    +0.000 A 
BRANCH  20  22
ATOM     22  C   UNL     1       5.957   4.351  17.936  0.00  0.00    +0.000 A 
ATOM     23  N   UNL     1       7.237   4.393  18.255  0.00  0.00    +0.000 NA
ATOM     24  N   UNL     1       7.975   4.393  17.090  0.00  0.00    +0.000 NA
ATOM     25  C   UNL     1       7.131   4.374  16.087  0.00  0.00    +0.000 A 
ATOM     26  N   UNL     1       5.864   4.357  16.565  0.00  0.00    +0.000 N 
ATOM     27  H   UNL     1       5.017   4.368  16.021  0.00  0.00    +0.000 HD
ENDBRANCH  20  22
ENDBRANCH   3  16
TORSDOF 3
ENDMDL
MODEL 6
REMARK VINA RESULT:      -8.1      3.760      8.109
REMARK  Name = 
REMARK  3 active torsions:
REMARK  status: ('A' for Active; 'I' for Inactive)
REMARK    1  A    between atoms: C_2  and  C_15
REMARK    2  A    between atoms: N_3  and  C_4
REMARK    3  A    between atoms: C_8  and  C_9
REMARK                            x       y       z     vdW  Elec       q    Type
REMARK                         _______ _______ _______ _____ _____    ______ ____
ROOT
ATOM      1  O   UNL     1       2.217   7.506  19.645  0.00  0.00    +0.000 OA
ATOM      2  C   UNL     1       2.399   7.678  18.439  0.00  0.00    +0.000 C 
ATOM      3  N   UNL     1       1.907   8.754  17.720  0.00  0.00    +0.000 N 
ATOM      4  H   UNL     1       2.213   8.841  16.748  0.00  0.00    +0.000 HD
ENDROOT
BRANCH   2   5
ATOM      5  C   UNL     1       3.196   6.630  17.741  0.00  0.00    +0.000 A 
ATOM      6  C   UNL     1       4.343   7.105  17.053  0.00  0.00    +0.000 A 
ATOM      7  C   UNL     1       5.259   6.247  16.481  0.00  0.00    +0.000 A 
ATOM      8  C   UNL     1       5.118   4.891  16.708  0.00  0.00    +0.000 A 
ATOM      9 CL   UNL     1       6.256   3.846  15.921  0.00  0.00    +0.000 Cl
ATOM     10  C   UNL     1       3.994   4.384  17.399  0.00  0.00    +0.000 A 
ATOM     11  C   UNL     1       3.862   3.016  17.678  0.00  0.00    +0.000 A 
ATOM     12  C   UNL     1       2.607   2.491  17.904  0.00  0.00    +0.000 A 
ATOM     13  C   UNL     1       1.563   3.378  18.052  0.00  0.00    +0.000 A 
ATOM     14  N   UNL     1       1.728   4.724  18.101  0.00  0.00    +0.000 NA
ATOM     15  C   UNL     1       2.935   5.239  17.775  0.00  0.00    +0.000 A 
ENDBRANCH   2   5
BRANCH   3  16
ATOM     16  C   UNL     1       1.051   9.770  18.247  0.00  0.00    +0.000 A 
ATOM     17  C   UNL     1      -0.335   9.759  18.082  0.00  0.00    +0.000 A 
ATOM     18  C   UNL     1      -1.140  10.752  18.638  0.00  0.00    +0.000 A 
ATOM     19  C   UNL     1      -0.568  11.773  19.384  0.00  0.00    +0.000 A 
ATOM     20  C   UNL     1       0.820  11.813  19.582  0.00  0.00    +0.000 A 
ATOM     21  C   UNL     1       1.627  10.822  18.982  0.00  0.00    +0.000 A 
BRANCH  20  22
ATOM     22  C   UNL     1       1.410  12.856  20.419  0.00  0.00    +0.000 A 
ATOM     23  N   UNL     1       0.965  13.327  21.569  0.00  0.00    +0.000 NA
ATOM     24  N   UNL     1       1.830  14.310  21.999  0.00  0.00    +0.000 NA
ATOM     25  C   UNL     1       2.770  14.435  21.094  0.00  0.00    +0.000 A 
ATOM     26  N   UNL     1       2.545  13.556  20.088  0.00  0.00    +0.000 N 
ATOM     27  H   UNL     1       3.091  13.452  19.249  0.00  0.00    +0.000 HD
ENDBRANCH  20  22
ENDBRANCH   3  16
TORSDOF 3
ENDMDL
MODEL 7
REMARK VINA RESULT:      -8.0      3.873      8.575
REMARK  Name = 
REMARK  3 active torsions:
REMARK  status: ('A' for Active; 'I' for Inactive)
REMARK    1  A    between atoms: C_2  and  C_15
REMARK    2  A    between atoms: N_3  and  C_4
REMARK    3  A    between atoms: C_8  and  C_9
REMARK                            x       y       z     vdW  Elec       q    Type
REMARK                         _______ _______ _______ _____ _____    ______ ____
ROOT
ATOM      1  O   UNL     1       1.944   7.832  20.414  0.00  0.00    +0.000 OA
ATOM      2  C   UNL     1       2.105   7.589  19.218  0.00  0.00    +0.000 C 
ATOM      3  N   UNL     1       1.786   8.464  18.193  0.00  0.00    +0.000 N 
ATOM      4  H   UNL     1       2.064   8.191  17.247  0.00  0.00    +0.000 HD
ENDROOT
BRANCH   2   5
ATOM      5  C   UNL     1       2.672   6.250  18.891  0.00  0.00    +0.000 A 
ATOM      6  C   UNL     1       2.084   5.163  19.588  0.00  0.00    +0.000 A 
ATOM      7  C   UNL     1       2.396   3.851  19.292  0.00  0.00    +0.000 A 
ATOM      8  C   UNL     1       3.201   3.600  18.197  0.00  0.00    +0.000 A 
ATOM      9 CL   UNL     1       3.617   1.943  17.898  0.00  0.00    +0.000 Cl
ATOM     10  C   UNL     1       3.794   4.660  17.474  0.00  0.00    +0.000 A 
ATOM     11  C   UNL     1       4.573   4.422  16.332  0.00  0.00    +0.000 A 
ATOM     12  C   UNL     1       5.500   5.364  15.938  0.00  0.00    +0.000 A 
ATOM     13  C   UNL     1       5.468   6.589  16.566  0.00  0.00    +0.000 A 
ATOM     14  N   UNL     1       4.509   6.947  17.458  0.00  0.00    +0.000 NA
ATOM     15  C   UNL     1       3.669   5.994  17.920  0.00  0.00    +0.000 A 
ENDBRANCH   2   5
BRANCH   3  16
ATOM     16  C   UNL     1       1.148   9.732  18.366  0.00  0.00    +0.000 A 
ATOM     17  C   UNL     1       1.801  10.845  18.898  0.00  0.00    +0.000 A 
ATOM     18  C   UNL     1       1.155  12.074  19.022  0.00  0.00    +0.000 A 
ATOM     19  C   UNL     1      -0.161  12.212  18.603  0.00  0.00    +0.000 A 
ATOM     20  C   UNL     1      -0.847  11.120  18.054  0.00  0.00    +0.000 A 
ATOM     21  C   UNL     1      -0.193   9.872  17.968  0.00  0.00    +0.000 A 
BRANCH  20  22
ATOM     22  C   UNL     1      -2.213  11.287  17.558  0.00  0.00    +0.000 A 
ATOM     23  N   UNL     1      -3.299  11.583  18.247  0.00  0.00    +0.000 NA
ATOM     24  N   UNL     1      -4.367  11.629  17.376  0.00  0.00    +0.000 NA
ATOM     25  C   UNL     1      -3.915  11.337  16.180  0.00  0.00    +0.000 A 
ATOM     26  N   UNL     1      -2.581  11.108  16.247  0.00  0.00    +0.000 N 
ATOM     27  H   UNL     1      -1.980  10.838  15.486  0.00  0.00    +0.000 HD
ENDBRANCH  20  22
ENDBRANCH   3  16
TORSDOF 3
ENDMDL
MODEL 8
REMARK VINA RESULT:      -8.0      3.829      8.017
REMARK  Name = 
REMARK  3 active torsions:
REMARK  status: ('A' for Active; 'I' for Inactive)
REMARK    1  A    between atoms: C_2  and  C_15
REMARK    2  A    between atoms: N_3  and  C_4
REMARK    3  A    between atoms: C_8  and  C_9
REMARK                            x       y       z     vdW  Elec       q    Type
REMARK                         _______ _______ _______ _____ _____    ______ ____
ROOT
ATOM      1  O   UNL     1       1.916   7.850  20.344  0.00  0.00    +0.000 OA
ATOM      2  C   UNL     1       2.169   7.623  19.161  0.00  0.00    +0.000 C 
ATOM      3  N   UNL     1       1.972   8.529  18.132  0.00  0.00    +0.000 N 
ATOM      4  H   UNL     1       2.318   8.263  17.207  0.00  0.00    +0.000 HD
ENDROOT
BRANCH   2   5
ATOM      5  C   UNL     1       2.709   6.268  18.854  0.00  0.00    +0.000 A 
ATOM      6  C   UNL     1       2.134   5.209  19.602  0.00  0.00    +0.000 A 
ATOM      7  C   UNL     1       2.421   3.886  19.335  0.00  0.00    +0.000 A 
ATOM      8  C   UNL     1       3.182   3.593  18.219  0.00  0.00    +0.000 A 
ATOM      9 CL   UNL     1       3.568   1.923  17.954  0.00  0.00    +0.000 Cl
ATOM     10  C   UNL     1       3.760   4.624  17.444  0.00  0.00    +0.000 A 
ATOM     11  C   UNL     1       4.495   4.343  16.283  0.00  0.00    +0.000 A 
ATOM     12  C   UNL     1       5.417   5.262  15.827  0.00  0.00    +0.000 A 
ATOM     13  C   UNL     1       5.422   6.506  16.421  0.00  0.00    +0.000 A 
ATOM     14  N   UNL     1       4.500   6.901  17.335  0.00  0.00    +0.000 NA
ATOM     15  C   UNL     1       3.666   5.972  17.855  0.00  0.00    +0.000 A 
ENDBRANCH   2   5
BRANCH   3  16
ATOM     16  C   UNL     1       1.372   9.818  18.278  0.00  0.00    +0.000 A 
ATOM     17  C   UNL     1      -0.002  10.005  18.431  0.00  0.00    +0.000 A 
ATOM     18  C   UNL     1      -0.548  11.276  18.603  0.00  0.00    +0.000 A 
ATOM     19  C   UNL     1       0.282  12.389  18.636  0.00  0.00    +0.000 A 
ATOM     20  C   UNL     1       1.669  12.241  18.496  0.00  0.00    +0.000 A 
ATOM     21  C   UNL     1       2.204  10.952  18.286  0.00  0.00    +0.000 A 
BRANCH  20  22
ATOM     22  C   UNL     1       2.543  13.409  18.593  0.00  0.00    +0.000 A 
ATOM     23  N   UNL     1       2.472  14.411  19.450  0.00  0.00    +0.000 NA
ATOM     24  N   UNL     1       3.491  15.297  19.168  0.00  0.00    +0.000 NA
ATOM     25  C   UNL     1       4.146  14.830  18.133  0.00  0.00    +0.000 A 
ATOM     26  N   UNL     1       3.587  13.661  17.736  0.00  0.00    +0.000 N 
ATOM     27  H   UNL     1       3.868  13.098  16.951  0.00  0.00    +0.000 HD
ENDBRANCH  20  22
ENDBRANCH   3  16
TORSDOF 3
ENDMDL
MODEL 9
REMARK VINA RESULT:      -7.9      3.845      8.623
REMARK  Name = 
REMARK  3 active torsions:
REMARK  status: ('A' for Active; 'I' for Inactive)
REMARK    1  A    between atoms: C_2  and  C_15
REMARK    2  A    between atoms: N_3  and  C_4
REMARK    3  A    between atoms: C_8  and  C_9
REMARK                            x       y       z     vdW  Elec       q    Type
REMARK                         _______ _______ _______ _____ _____    ______ ____
ROOT
ATOM      1  O   UNL     1       2.374   8.735  17.115  0.00  0.00    +0.000 OA
ATOM      2  C   UNL     1       2.102   8.265  18.220  0.00  0.00    +0.000 C 
ATOM      3  N   UNL     1       1.239   8.854  19.129  0.00  0.00    +0.000 N 
ATOM      4  H   UNL     1       1.012   8.316  19.968  0.00  0.00    +0.000 HD
ENDROOT
BRANCH   2   5
ATOM      5  C   UNL     1       2.776   6.983  18.571  0.00  0.00    +0.000 A 
ATOM      6  C   UNL     1       2.372   6.411  19.805  0.00  0.00    +0.000 A 
ATOM      7  C   UNL     1       2.795   5.158  20.202  0.00  0.00    +0.000 A 
ATOM      8  C   UNL     1       3.520   4.397  19.305  0.00  0.00    +0.000 A 
ATOM      9 CL   UNL     1       4.081   2.855  19.867  0.00  0.00    +0.000 Cl
ATOM     10  C   UNL     1       3.929   4.932  18.063  0.00  0.00    +0.000 A 
ATOM     11  C   UNL     1       4.623   4.155  17.124  0.00  0.00    +0.000 A 
ATOM     12  C   UNL     1       5.405   4.780  16.175  0.00  0.00    +0.000 A 
ATOM     13  C   UNL     1       5.300   6.149  16.066  0.00  0.00    +0.000 A 
ATOM     14  N   UNL     1       4.392   6.886  16.756  0.00  0.00    +0.000 NA
ATOM     15  C   UNL     1       3.703   6.291  17.756  0.00  0.00    +0.000 A 
ENDBRANCH   2   5
BRANCH   3  16
ATOM     16  C   UNL     1       0.608  10.125  18.955  0.00  0.00    +0.000 A 
ATOM     17  C   UNL     1       1.237  11.334  19.258  0.00  0.00    +0.000 A 
ATOM     18  C   UNL     1       0.601  12.556  19.046  0.00  0.00    +0.000 A 
ATOM     19  C   UNL     1      -0.681  12.588  18.513  0.00  0.00    +0.000 A 
ATOM     20  C   UNL     1      -1.341  11.395  18.185  0.00  0.00    +0.000 A 
ATOM     21  C   UNL     1      -0.700  10.164  18.440  0.00  0.00    +0.000 A 
BRANCH  20  22
ATOM     22  C   UNL     1      -2.665  11.438  17.567  0.00  0.00    +0.000 A 
ATOM     23  N   UNL     1      -3.018  11.014  16.368  0.00  0.00    +0.000 NA
ATOM     24  N   UNL     1      -4.364  11.263  16.198  0.00  0.00    +0.000 NA
ATOM     25  C   UNL     1      -4.798  11.853  17.286  0.00  0.00    +0.000 A 
ATOM     26  N   UNL     1      -3.773  11.991  18.162  0.00  0.00    +0.000 N 
ATOM     27  H   UNL     1      -3.812  12.432  19.066  0.00  0.00    +0.000 HD
ENDBRANCH  20  22
ENDBRANCH   3  16
TORSDOF 3
ENDMDL
