MODEL 1
REMARK VINA RESULT:      -8.4      0.000      0.000
REMARK  Name = 
REMARK  3 active torsions:
REMARK  status: ('A' for Active; 'I' for Inactive)
REMARK    1  A    between atoms: C_1  and  C_2
REMARK    2  A    between atoms: C_6  and  C_8
REMARK    3  A    between atoms: N_18  and  C_19
REMARK                            x       y       z     vdW  Elec       q    Type
REMARK                         _______ _______ _______ _____ _____    ______ ____
ROOT
ATOM      1  C   UNL     1      -0.920  11.237  22.873  0.00  0.00    +0.000 C 
ATOM      2  C   UNL     1      -0.021  10.446  21.989  0.00  0.00    +0.000 A 
ATOM      3  C   UNL     1       0.321   9.110  22.064  0.00  0.00    +0.000 A 
ATOM      4  C   UNL     1       1.017   8.808  20.868  0.00  0.00    +0.000 A 
ATOM      5  N   UNL     1       1.490   7.523  20.600  0.00  0.00    +0.000 N 
ATOM      6  C   UNL     1       2.196   7.115  19.477  0.00  0.00    +0.000 C 
ATOM      7  O   UNL     1       2.537   7.831  18.543  0.00  0.00    +0.000 OA
ATOM      8  N   UNL     1       1.088   9.890  20.087  0.00  0.00    +0.000 NA
ATOM      9  N   UNL     1       0.569  10.915  20.825  0.00  0.00    +0.000 N 
ATOM     10  H   UNL     1       1.263   6.840  21.300  0.00  0.00    +0.000 HD
ENDROOT
BRANCH   6  11
ATOM     11  C   UNL     1       2.506   5.596  19.463  0.00  0.00    +0.000 C 
ATOM     12  C   UNL     1       1.647   4.756  20.513  0.00  0.00    +0.000 C 
ATOM     13  C   UNL     1       0.938   3.479  19.973  0.00  0.00    +0.000 C 
ATOM     14  C   UNL     1       1.902   2.824  19.077  0.00  0.00    +0.000 A 
ATOM     15  N   UNL     1       2.467   1.588  19.113  0.00  0.00    +0.000 N 
ATOM     16  N   UNL     1       3.521   1.545  18.271  0.00  0.00    +0.000 NA
ATOM     17  N   UNL     1       3.641   2.739  17.687  0.00  0.00    +0.000 NA
ATOM     18  C   UNL     1       2.636   3.521  18.158  0.00  0.00    +0.000 A 
ATOM     19  C   UNL     1       2.467   4.990  18.030  0.00  0.00    +0.000 C 
ATOM     20  H   UNL     1       2.269   0.787  19.699  0.00  0.00    +0.000 HD
ENDBRANCH   6  11
BRANCH   9  21
ATOM     21  C   UNL     1       0.668  12.267  20.379  0.00  0.00    +0.000 A 
ATOM     22  C   UNL     1      -0.365  12.833  19.621  0.00  0.00    +0.000 A 
ATOM     23  C   UNL     1      -0.284  14.170  19.208  0.00  0.00    +0.000 A 
ATOM     24  C   UNL     1       0.846  14.933  19.509  0.00  0.00    +0.000 A 
ATOM     25  C   UNL     1       1.889  14.360  20.230  0.00  0.00    +0.000 A 
ATOM     26 CL   UNL     1       3.306  15.281  20.562  0.00  0.00    +0.000 Cl
ATOM     27  C   UNL     1       1.804  13.038  20.675  0.00  0.00    +0.000 A 
ENDBRANCH   9  21
TORSDOF 2
ENDMDL
MODEL 2
REMARK VINA RESULT:      -8.4      1.032      1.363
REMARK  Name = 
REMARK  3 active torsions:
REMARK  status: ('A' for Active; 'I' for Inactive)
REMARK    1  A    between atoms: C_1  and  C_2
REMARK    2  A    between atoms: C_6  and  C_8
REMARK    3  A    between atoms: N_18  and  C_19
REMARK                            x       y       z     vdW  Elec       q    Type
REMARK                         _______ _______ _______ _____ _____    ______ ____
ROOT
ATOM      1  C   UNL     1      -0.745  11.002  22.708  0.00  0.00    +0.000 C 
ATOM      2  C   UNL     1       0.135  10.198  21.818  0.00  0.00    +0.000 A 
ATOM      3  C   UNL     1       0.535   8.881  21.945  0.00  0.00    +0.000 A 
ATOM      4  C   UNL     1       1.177   8.540  20.729  0.00  0.00    +0.000 A 
ATOM      5  N   UNL     1       1.687   7.261  20.504  0.00  0.00    +0.000 N 
ATOM      6  C   UNL     1       2.346   6.817  19.365  0.00  0.00    +0.000 C 
ATOM      7  O   UNL     1       2.604   7.493  18.377  0.00  0.00    +0.000 OA
ATOM      8  N   UNL     1       1.159   9.578  19.888  0.00  0.00    +0.000 NA
ATOM      9  N   UNL     1       0.640  10.622  20.598  0.00  0.00    +0.000 N 
ATOM     10  H   UNL     1       1.527   6.610  21.252  0.00  0.00    +0.000 HD
ENDROOT
BRANCH   6  11
ATOM     11  C   UNL     1       2.717   5.314  19.415  0.00  0.00    +0.000 C 
ATOM     12  C   UNL     1       1.922   4.421  18.357  0.00  0.00    +0.000 C 
ATOM     13  C   UNL     1       2.772   3.453  17.482  0.00  0.00    +0.000 C 
ATOM     14  C   UNL     1       3.774   2.862  18.381  0.00  0.00    +0.000 A 
ATOM     15  N   UNL     1       4.022   1.571  18.726  0.00  0.00    +0.000 N 
ATOM     16  N   UNL     1       4.823   1.536  19.812  0.00  0.00    +0.000 NA
ATOM     17  N   UNL     1       5.098   2.791  20.170  0.00  0.00    +0.000 NA
ATOM     18  C   UNL     1       4.479   3.610  19.282  0.00  0.00    +0.000 A 
ATOM     19  C   UNL     1       4.254   5.074  19.372  0.00  0.00    +0.000 C 
ATOM     20  H   UNL     1       3.652   0.704  18.356  0.00  0.00    +0.000 HD
ENDBRANCH   6  11
BRANCH   9  21
ATOM     21  C   UNL     1       0.658  11.950  20.075  0.00  0.00    +0.000 A 
ATOM     22  C   UNL     1      -0.275  12.334  19.103  0.00  0.00    +0.000 A 
ATOM     23  C   UNL     1      -0.278  13.646  18.611  0.00  0.00    +0.000 A 
ATOM     24  C   UNL     1       0.676  14.566  19.050  0.00  0.00    +0.000 A 
ATOM     25  C   UNL     1       1.627  14.174  19.987  0.00  0.00    +0.000 A 
ATOM     26 CL   UNL     1       2.835  15.290  20.495  0.00  0.00    +0.000 Cl
ATOM     27  C   UNL     1       1.618  12.878  20.510  0.00  0.00    +0.000 A 
ENDBRANCH   9  21
TORSDOF 2
ENDMDL
MODEL 3
REMARK VINA RESULT:      -8.2      3.701      8.691
REMARK  Name = 
REMARK  3 active torsions:
REMARK  status: ('A' for Active; 'I' for Inactive)
REMARK    1  A    between atoms: C_1  and  C_2
REMARK    2  A    between atoms: C_6  and  C_8
REMARK    3  A    between atoms: N_18  and  C_19
REMARK                            x       y       z     vdW  Elec       q    Type
REMARK                         _______ _______ _______ _____ _____    ______ ____
ROOT
ATOM      1  C   UNL     1       4.165   3.032  19.882  0.00  0.00    +0.000 C 
ATOM      2  C   UNL     1       3.584   4.377  19.627  0.00  0.00    +0.000 A 
ATOM      3  C   UNL     1       2.514   4.997  20.244  0.00  0.00    +0.000 A 
ATOM      4  C   UNL     1       2.515   6.339  19.792  0.00  0.00    +0.000 A 
ATOM      5  N   UNL     1       1.571   7.263  20.241  0.00  0.00    +0.000 N 
ATOM      6  C   UNL     1       1.463   8.594  19.859  0.00  0.00    +0.000 C 
ATOM      7  O   UNL     1       2.176   9.166  19.042  0.00  0.00    +0.000 OA
ATOM      8  N   UNL     1       3.537   6.547  18.957  0.00  0.00    +0.000 NA
ATOM      9  N   UNL     1       4.110   5.324  18.759  0.00  0.00    +0.000 N 
ATOM     10  H   UNL     1       0.931   6.906  20.927  0.00  0.00    +0.000 HD
ENDROOT
BRANCH   6  11
ATOM     11  C   UNL     1       0.345   9.361  20.608  0.00  0.00    +0.000 C 
ATOM     12  C   UNL     1      -0.173   8.618  21.923  0.00  0.00    +0.000 C 
ATOM     13  C   UNL     1      -0.260   9.475  23.220  0.00  0.00    +0.000 C 
ATOM     14  C   UNL     1      -0.806  10.778  22.815  0.00  0.00    +0.000 A 
ATOM     15  N   UNL     1      -1.930  11.440  23.195  0.00  0.00    +0.000 N 
ATOM     16  N   UNL     1      -2.179  12.447  22.331  0.00  0.00    +0.000 NA
ATOM     17  N   UNL     1      -1.225  12.446  21.399  0.00  0.00    +0.000 NA
ATOM     18  C   UNL     1      -0.365  11.441  21.702  0.00  0.00    +0.000 A 
ATOM     19  C   UNL     1       0.708  10.853  20.863  0.00  0.00    +0.000 C 
ATOM     20  H   UNL     1      -2.596  11.245  23.932  0.00  0.00    +0.000 HD
ENDBRANCH   6  11
BRANCH   9  21
ATOM     21  C   UNL     1       5.113   5.132  17.762  0.00  0.00    +0.000 A 
ATOM     22  C   UNL     1       6.453   5.422  18.051  0.00  0.00    +0.000 A 
ATOM     23  C   UNL     1       7.443   5.205  17.083  0.00  0.00    +0.000 A 
ATOM     24  C   UNL     1       7.098   4.745  15.811  0.00  0.00    +0.000 A 
ATOM     25  C   UNL     1       5.762   4.493  15.512  0.00  0.00    +0.000 A 
ATOM     26 CL   UNL     1       5.325   3.972  13.931  0.00  0.00    +0.000 Cl
ATOM     27  C   UNL     1       4.770   4.674  16.480  0.00  0.00    +0.000 A 
ENDBRANCH   9  21
TORSDOF 2
ENDMDL
MODEL 4
REMARK VINA RESULT:      -8.2      3.081      3.758
REMARK  Name = 
REMARK  3 active torsions:
REMARK  status: ('A' for Active; 'I' for Inactive)
REMARK    1  A    between atoms: C_1  and  C_2
REMARK    2  A    between atoms: C_6  and  C_8
REMARK    3  A    between atoms: N_18  and  C_19
REMARK                            x       y       z     vdW  Elec       q    Type
REMARK                         _______ _______ _______ _____ _____    ______ ____
ROOT
ATOM      1  C   UNL     1      -0.591   9.122  22.679  0.00  0.00    +0.000 C 
ATOM      2  C   UNL     1       0.279   9.014  21.478  0.00  0.00    +0.000 A 
ATOM      3  C   UNL     1       1.347   8.168  21.247  0.00  0.00    +0.000 A 
ATOM      4  C   UNL     1       1.683   8.312  19.879  0.00  0.00    +0.000 A 
ATOM      5  N   UNL     1       2.714   7.575  19.296  0.00  0.00    +0.000 N 
ATOM      6  C   UNL     1       3.142   7.642  17.977  0.00  0.00    +0.000 C 
ATOM      7  O   UNL     1       2.689   8.383  17.113  0.00  0.00    +0.000 OA
ATOM      8  N   UNL     1       0.858   9.182  19.288  0.00  0.00    +0.000 NA
ATOM      9  N   UNL     1       0.089   9.702  20.288  0.00  0.00    +0.000 N 
ATOM     10  H   UNL     1       3.161   6.921  19.914  0.00  0.00    +0.000 HD
ENDROOT
BRANCH   6  11
ATOM     11  C   UNL     1       4.267   6.631  17.642  0.00  0.00    +0.000 C 
ATOM     12  C   UNL     1       3.888   5.116  17.975  0.00  0.00    +0.000 C 
ATOM     13  C   UNL     1       4.147   4.069  16.852  0.00  0.00    +0.000 C 
ATOM     14  C   UNL     1       5.445   4.418  16.258  0.00  0.00    +0.000 A 
ATOM     15  N   UNL     1       6.603   3.715  16.149  0.00  0.00    +0.000 N 
ATOM     16  N   UNL     1       7.611   4.548  15.815  0.00  0.00    +0.000 NA
ATOM     17  N   UNL     1       7.117   5.781  15.702  0.00  0.00    +0.000 NA
ATOM     18  C   UNL     1       5.784   5.707  15.948  0.00  0.00    +0.000 A 
ATOM     19  C   UNL     1       4.824   6.810  16.199  0.00  0.00    +0.000 C 
ATOM     20  H   UNL     1       6.809   2.744  16.348  0.00  0.00    +0.000 HD
ENDBRANCH   6  11
BRANCH   9  21
ATOM     21  C   UNL     1      -0.772  10.816  20.052  0.00  0.00    +0.000 A 
ATOM     22  C   UNL     1      -0.599  12.002  20.777  0.00  0.00    +0.000 A 
ATOM     23  C   UNL     1      -1.424  13.107  20.526  0.00  0.00    +0.000 A 
ATOM     24  C   UNL     1      -2.453  13.019  19.586  0.00  0.00    +0.000 A 
ATOM     25  C   UNL     1      -2.648  11.829  18.892  0.00  0.00    +0.000 A 
ATOM     26 CL   UNL     1      -3.945  11.699  17.767  0.00  0.00    +0.000 Cl
ATOM     27  C   UNL     1      -1.810  10.732  19.111  0.00  0.00    +0.000 A 
ENDBRANCH   9  21
TORSDOF 2
ENDMDL
MODEL 5
REMARK VINA RESULT:      -8.1      2.640      3.289
REMARK  Name = 
REMARK  3 active torsions:
REMARK  status: ('A' for Active; 'I' for Inactive)
REMARK    1  A    between atoms: C_1  and  C_2
REMARK    2  A    between atoms: C_6  and  C_8
REMARK    3  A    between atoms: N_18  and  C_19
REMARK                            x       y       z     vdW  Elec       q    Type
REMARK                         _______ _______ _______ _____ _____    ______ ____
ROOT
ATOM      1  C   UNL     1      -0.598   8.983  22.645  0.00  0.00    +0.000 C 
ATOM      2  C   UNL     1       0.308   8.909  21.468  0.00  0.00    +0.000 A 
ATOM      3  C   UNL     1       1.331   8.017  21.208  0.00  0.00    +0.000 A 
ATOM      4  C   UNL     1       1.726   8.239  19.866  0.00  0.00    +0.000 A 
ATOM      5  N   UNL     1       2.731   7.484  19.264  0.00  0.00    +0.000 N 
ATOM      6  C   UNL     1       3.211   7.621  17.968  0.00  0.00    +0.000 C 
ATOM      7  O   UNL     1       2.836   8.451  17.148  0.00  0.00    +0.000 OA
ATOM      8  N   UNL     1       0.978   9.201  19.317  0.00  0.00    +0.000 NA
ATOM      9  N   UNL     1       0.205   9.694  20.328  0.00  0.00    +0.000 N 
ATOM     10  H   UNL     1       3.114   6.759  19.844  0.00  0.00    +0.000 HD
ENDROOT
BRANCH   6  11
ATOM     11  C   UNL     1       4.284   6.568  17.594  0.00  0.00    +0.000 C 
ATOM     12  C   UNL     1       3.810   5.060  17.820  0.00  0.00    +0.000 C 
ATOM     13  C   UNL     1       4.037   4.072  16.639  0.00  0.00    +0.000 C 
ATOM     14  C   UNL     1       5.369   4.381  16.097  0.00  0.00    +0.000 A 
ATOM     15  N   UNL     1       6.486   3.618  15.969  0.00  0.00    +0.000 N 
ATOM     16  N   UNL     1       7.550   4.410  15.712  0.00  0.00    +0.000 NA
ATOM     17  N   UNL     1       7.130   5.675  15.668  0.00  0.00    +0.000 NA
ATOM     18  C   UNL     1       5.789   5.664  15.878  0.00  0.00    +0.000 A 
ATOM     19  C   UNL     1       4.888   6.804  16.179  0.00  0.00    +0.000 C 
ATOM     20  H   UNL     1       6.631   2.626  16.110  0.00  0.00    +0.000 HD
ENDBRANCH   6  11
BRANCH   9  21
ATOM     21  C   UNL     1      -0.577  10.874  20.150  0.00  0.00    +0.000 A 
ATOM     22  C   UNL     1      -1.638  10.881  19.235  0.00  0.00    +0.000 A 
ATOM     23  C   UNL     1      -2.427  12.029  19.080  0.00  0.00    +0.000 A 
ATOM     24  C   UNL     1      -2.134  13.188  19.801  0.00  0.00    +0.000 A 
ATOM     25  C   UNL     1      -1.057  13.194  20.683  0.00  0.00    +0.000 A 
ATOM     26 CL   UNL     1      -0.661  14.634  21.538  0.00  0.00    +0.000 Cl
ATOM     27  C   UNL     1      -0.284  12.044  20.869  0.00  0.00    +0.000 A 
ENDBRANCH   9  21
TORSDOF 2
ENDMDL
MODEL 6
REMARK VINA RESULT:      -8.0      4.001      8.940
REMARK  Name = 
REMARK  3 active torsions:
REMARK  status: ('A' for Active; 'I' for Inactive)
REMARK    1  A    between atoms: C_1  and  C_2
REMARK    2  A    between atoms: C_6  and  C_8
REMARK    3  A    between atoms: N_18  and  C_19
REMARK                            x       y       z     vdW  Elec       q    Type
REMARK                         _______ _______ _______ _____ _____    ______ ____
ROOT
ATOM      1  C   UNL     1       3.833   3.621  19.846  0.00  0.00    +0.000 C 
ATOM      2  C   UNL     1       3.383   4.914  19.265  0.00  0.00    +0.000 A 
ATOM      3  C   UNL     1       2.317   5.712  19.634  0.00  0.00    +0.000 A 
ATOM      4  C   UNL     1       2.461   6.927  18.921  0.00  0.00    +0.000 A 
ATOM      5  N   UNL     1       1.558   7.979  19.076  0.00  0.00    +0.000 N 
ATOM      6  C   UNL     1       1.588   9.204  18.422  0.00  0.00    +0.000 C 
ATOM      7  O   UNL     1       2.409   9.548  17.581  0.00  0.00    +0.000 OA
ATOM      8  N   UNL     1       3.563   6.894  18.166  0.00  0.00    +0.000 NA
ATOM      9  N   UNL     1       4.052   5.624  18.279  0.00  0.00    +0.000 N 
ATOM     10  H   UNL     1       0.836   7.813  19.754  0.00  0.00    +0.000 HD
ENDROOT
BRANCH   6  11
ATOM     11  C   UNL     1       0.474  10.176  18.885  0.00  0.00    +0.000 C 
ATOM     12  C   UNL     1       1.014  11.620  19.302  0.00  0.00    +0.000 C 
ATOM     13  C   UNL     1       0.278  12.845  18.686  0.00  0.00    +0.000 C 
ATOM     14  C   UNL     1      -1.156  12.525  18.728  0.00  0.00    +0.000 A 
ATOM     15  N   UNL     1      -2.199  13.150  19.336  0.00  0.00    +0.000 N 
ATOM     16  N   UNL     1      -3.269  12.327  19.361  0.00  0.00    +0.000 NA
ATOM     17  N   UNL     1      -2.930  11.179  18.772  0.00  0.00    +0.000 NA
ATOM     18  C   UNL     1      -1.643  11.302  18.358  0.00  0.00    +0.000 A 
ATOM     19  C   UNL     1      -0.716  10.244  17.884  0.00  0.00    +0.000 C 
ATOM     20  H   UNL     1      -2.252  14.045  19.805  0.00  0.00    +0.000 HD
ENDBRANCH   6  11
BRANCH   9  21
ATOM     21  C   UNL     1       5.118   5.168  17.446  0.00  0.00    +0.000 A 
ATOM     22  C   UNL     1       6.423   5.102  17.950  0.00  0.00    +0.000 A 
ATOM     23  C   UNL     1       7.466   4.626  17.144  0.00  0.00    +0.000 A 
ATOM     24  C   UNL     1       7.221   4.258  15.820  0.00  0.00    +0.000 A 
ATOM     25  C   UNL     1       5.931   4.359  15.307  0.00  0.00    +0.000 A 
ATOM     26 CL   UNL     1       5.632   3.954  13.660  0.00  0.00    +0.000 Cl
ATOM     27  C   UNL     1       4.878   4.801  16.112  0.00  0.00    +0.000 A 
ENDBRANCH   9  21
TORSDOF 2
ENDMDL
MODEL 7
REMARK VINA RESULT:      -8.0      1.094      1.405
REMARK  Name = 
REMARK  3 active torsions:
REMARK  status: ('A' for Active; 'I' for Inactive)
REMARK    1  A    between atoms: C_1  and  C_2
REMARK    2  A    between atoms: C_6  and  C_8
REMARK    3  A    between atoms: N_18  and  C_19
REMARK                            x       y       z     vdW  Elec       q    Type
REMARK                         _______ _______ _______ _____ _____    ______ ____
ROOT
ATOM      1  C   UNL     1      -1.102  11.049  23.135  0.00  0.00    +0.000 C 
ATOM      2  C   UNL     1      -0.161  10.311  22.251  0.00  0.00    +0.000 A 
ATOM      3  C   UNL     1       0.168   8.969  22.253  0.00  0.00    +0.000 A 
ATOM      4  C   UNL     1       0.928   8.741  21.080  0.00  0.00    +0.000 A 
ATOM      5  N   UNL     1       1.407   7.473  20.752  0.00  0.00    +0.000 N 
ATOM      6  C   UNL     1       2.172   7.134  19.644  0.00  0.00    +0.000 C 
ATOM      7  O   UNL     1       2.569   7.909  18.782  0.00  0.00    +0.000 OA
ATOM      8  N   UNL     1       1.050   9.873  20.380  0.00  0.00    +0.000 NA
ATOM      9  N   UNL     1       0.497  10.851  21.155  0.00  0.00    +0.000 N 
ATOM     10  H   UNL     1       1.136   6.746  21.390  0.00  0.00    +0.000 HD
ENDROOT
BRANCH   6  11
ATOM     11  C   UNL     1       2.473   5.617  19.544  0.00  0.00    +0.000 C 
ATOM     12  C   UNL     1       1.604   4.723  20.542  0.00  0.00    +0.000 C 
ATOM     13  C   UNL     1       0.890   3.484  19.928  0.00  0.00    +0.000 C 
ATOM     14  C   UNL     1       1.852   2.875  18.999  0.00  0.00    +0.000 A 
ATOM     15  N   UNL     1       2.409   1.636  18.965  0.00  0.00    +0.000 N 
ATOM     16  N   UNL     1       3.466   1.635  18.125  0.00  0.00    +0.000 NA
ATOM     17  N   UNL     1       3.595   2.858  17.611  0.00  0.00    +0.000 NA
ATOM     18  C   UNL     1       2.594   3.620  18.123  0.00  0.00    +0.000 A 
ATOM     19  C   UNL     1       2.434   5.094  18.078  0.00  0.00    +0.000 C 
ATOM     20  H   UNL     1       2.204   0.804  19.504  0.00  0.00    +0.000 HD
ENDBRANCH   6  11
BRANCH   9  21
ATOM     21  C   UNL     1       0.630  12.229  20.809  0.00  0.00    +0.000 A 
ATOM     22  C   UNL     1       1.894  12.764  20.530  0.00  0.00    +0.000 A 
ATOM     23  C   UNL     1       2.023  14.110  20.160  0.00  0.00    +0.000 A 
ATOM     24  C   UNL     1       0.900  14.938  20.112  0.00  0.00    +0.000 A 
ATOM     25  C   UNL     1      -0.351  14.416  20.425  0.00  0.00    +0.000 A 
ATOM     26 CL   UNL     1      -1.732  15.444  20.415  0.00  0.00    +0.000 Cl
ATOM     27  C   UNL     1      -0.495  13.068  20.763  0.00  0.00    +0.000 A 
ENDBRANCH   9  21
TORSDOF 2
ENDMDL
MODEL 8
REMARK VINA RESULT:      -7.9      1.120      1.594
REMARK  Name = 
REMARK  3 active torsions:
REMARK  status: ('A' for Active; 'I' for Inactive)
REMARK    1  A    between atoms: C_1  and  C_2
REMARK    2  A    between atoms: C_6  and  C_8
REMARK    3  A    between atoms: N_18  and  C_19
REMARK                            x       y       z     vdW  Elec       q    Type
REMARK                         _______ _______ _______ _____ _____    ______ ____
ROOT
ATOM      1  C   UNL     1      -0.648  11.015  22.290  0.00  0.00    +0.000 C 
ATOM      2  C   UNL     1       0.258  10.361  21.309  0.00  0.00    +0.000 A 
ATOM      3  C   UNL     1       0.701   9.053  21.267  0.00  0.00    +0.000 A 
ATOM      4  C   UNL     1       1.354   8.891  20.021  0.00  0.00    +0.000 A 
ATOM      5  N   UNL     1       1.905   7.669  19.636  0.00  0.00    +0.000 N 
ATOM      6  C   UNL     1       2.580   7.397  18.453  0.00  0.00    +0.000 C 
ATOM      7  O   UNL     1       2.818   8.202  17.562  0.00  0.00    +0.000 OA
ATOM      8  N   UNL     1       1.305  10.028  19.321  0.00  0.00    +0.000 NA
ATOM      9  N   UNL     1       0.752  10.955  20.156  0.00  0.00    +0.000 N 
ATOM     10  H   UNL     1       1.765   6.922  20.293  0.00  0.00    +0.000 HD
ENDROOT
BRANCH   6  11
ATOM     11  C   UNL     1       2.999   5.911  18.311  0.00  0.00    +0.000 C 
ATOM     12  C   UNL     1       4.576   5.698  18.185  0.00  0.00    +0.000 C 
ATOM     13  C   UNL     1       5.213   4.627  19.117  0.00  0.00    +0.000 C 
ATOM     14  C   UNL     1       4.286   3.485  19.122  0.00  0.00    +0.000 A 
ATOM     15  N   UNL     1       4.456   2.187  18.756  0.00  0.00    +0.000 N 
ATOM     16  N   UNL     1       3.253   1.588  18.634  0.00  0.00    +0.000 NA
ATOM     17  N   UNL     1       2.307   2.483  18.923  0.00  0.00    +0.000 NA
ATOM     18  C   UNL     1       2.933   3.643  19.247  0.00  0.00    +0.000 A 
ATOM     19  C   UNL     1       2.353   5.000  19.396  0.00  0.00    +0.000 C 
ATOM     20  H   UNL     1       5.292   1.675  18.503  0.00  0.00    +0.000 HD
ENDBRANCH   6  11
BRANCH   9  21
ATOM     21  C   UNL     1       0.728  12.339  19.809  0.00  0.00    +0.000 A 
ATOM     22  C   UNL     1      -0.257  12.828  18.942  0.00  0.00    +0.000 A 
ATOM     23  C   UNL     1      -0.301  14.192  18.623  0.00  0.00    +0.000 A 
ATOM     24  C   UNL     1       0.663  15.065  19.130  0.00  0.00    +0.000 A 
ATOM     25  C   UNL     1       1.665  14.573  19.962  0.00  0.00    +0.000 A 
ATOM     26 CL   UNL     1       2.885  15.636  20.551  0.00  0.00    +0.000 Cl
ATOM     27  C   UNL     1       1.698  13.221  20.313  0.00  0.00    +0.000 A 
ENDBRANCH   9  21
TORSDOF 2
ENDMDL
MODEL 9
REMARK VINA RESULT:      -7.8      1.495      1.896
REMARK  Name = 
REMARK  3 active torsions:
REMARK  status: ('A' for Active; 'I' for Inactive)
REMARK    1  A    between atoms: C_1  and  C_2
REMARK    2  A    between atoms: C_6  and  C_8
REMARK    3  A    between atoms: N_18  and  C_19
REMARK                            x       y       z     vdW  Elec       q    Type
REMARK                         _______ _______ _______ _____ _____    ______ ____
ROOT
ATOM      1  C   UNL     1      -0.789  10.917  22.913  0.00  0.00    +0.000 C 
ATOM      2  C   UNL     1       0.084  10.144  21.990  0.00  0.00    +0.000 A 
ATOM      3  C   UNL     1       0.506   8.832  22.082  0.00  0.00    +0.000 A 
ATOM      4  C   UNL     1       1.126   8.523  20.847  0.00  0.00    +0.000 A 
ATOM      5  N   UNL     1       1.650   7.257  20.586  0.00  0.00    +0.000 N 
ATOM      6  C   UNL     1       2.292   6.846  19.425  0.00  0.00    +0.000 C 
ATOM      7  O   UNL     1       2.519   7.544  18.445  0.00  0.00    +0.000 OA
ATOM      8  N   UNL     1       1.076   9.577  20.027  0.00  0.00    +0.000 NA
ATOM      9  N   UNL     1       0.557  10.600  20.767  0.00  0.00    +0.000 N 
ATOM     10  H   UNL     1       1.516   6.589  21.324  0.00  0.00    +0.000 HD
ENDROOT
BRANCH   6  11
ATOM     11  C   UNL     1       2.686   5.347  19.438  0.00  0.00    +0.000 C 
ATOM     12  C   UNL     1       1.903   4.468  18.359  0.00  0.00    +0.000 C 
ATOM     13  C   UNL     1       2.766   3.535  17.460  0.00  0.00    +0.000 C 
ATOM     14  C   UNL     1       3.778   2.938  18.342  0.00  0.00    +0.000 A 
ATOM     15  N   UNL     1       4.047   1.642  18.655  0.00  0.00    +0.000 N 
ATOM     16  N   UNL     1       4.850   1.594  19.739  0.00  0.00    +0.000 NA
ATOM     17  N   UNL     1       5.107   2.843  20.127  0.00  0.00    +0.000 NA
ATOM     18  C   UNL     1       4.474   3.675  19.260  0.00  0.00    +0.000 A 
ATOM     19  C   UNL     1       4.227   5.132  19.386  0.00  0.00    +0.000 C 
ATOM     20  H   UNL     1       3.689   0.780  18.265  0.00  0.00    +0.000 HD
ENDBRANCH   6  11
BRANCH   9  21
ATOM     21  C   UNL     1       0.544  11.938  20.271  0.00  0.00    +0.000 A 
ATOM     22  C   UNL     1       1.616  12.410  19.502  0.00  0.00    +0.000 A 
ATOM     23  C   UNL     1       1.591  13.714  18.987  0.00  0.00    +0.000 A 
ATOM     24  C   UNL     1       0.523  14.565  19.275  0.00  0.00    +0.000 A 
ATOM     25  C   UNL     1      -0.524  14.108  20.071  0.00  0.00    +0.000 A 
ATOM     26 CL   UNL     1      -1.820  15.169  20.469  0.00  0.00    +0.000 Cl
ATOM     27  C   UNL     1      -0.525  12.799  20.561  0.00  0.00    +0.000 A 
ENDBRANCH   9  21
TORSDOF 2
ENDMDL
