MODEL 1
REMARK VINA RESULT:      -8.9      0.000      0.000
REMARK  Name = 
REMARK  5 active torsions:
REMARK  status: ('A' for Active; 'I' for Inactive)
REMARK    1  A    between atoms: C_1  and  C_2
REMARK    2  A    between atoms: C_4  and  C_5
REMARK    3  A    between atoms: C_8  and  N_9
REMARK    4  A    between atoms: C_10  and  C_12
REMARK    5  A    between atoms: C_25  and  C_26
REMARK                            x       y       z     vdW  Elec       q    Type
REMARK                         _______ _______ _______ _____ _____    ______ ____
ROOT
ATOM      1  N   UNL     1       1.619   8.165  19.995  0.00  0.00    +0.000 N 
ATOM      2  C   UNL     1       2.093   8.258  18.695  0.00  0.00    +0.000 C 
ATOM      3  O   UNL     1       2.011   9.236  17.962  0.00  0.00    +0.000 OA
ATOM      4  H   UNL     1       1.853   7.340  20.524  0.00  0.00    +0.000 HD
ENDROOT
BRANCH   2   5
ATOM      5  C   UNL     1       2.792   7.052  18.158  0.00  0.00    +0.000 A 
ATOM      6  C   UNL     1       2.246   5.771  18.287  0.00  0.00    +0.000 A 
ATOM      7  C   UNL     1       2.972   4.658  17.873  0.00  0.00    +0.000 A 
ATOM      8  C   UNL     1       4.182   4.814  17.190  0.00  0.00    +0.000 A 
ATOM      9  C   UNL     1       4.903   3.709  16.741  0.00  0.00    +0.000 A 
ATOM     10  C   UNL     1       5.813   3.904  15.722  0.00  0.00    +0.000 A 
ATOM     11  N   UNL     1       6.221   5.122  15.312  0.00  0.00    +0.000 NA
ATOM     12  C   UNL     1       5.691   6.188  15.958  0.00  0.00    +0.000 A 
ATOM     13  C   UNL     1       4.636   6.105  16.871  0.00  0.00    +0.000 A 
ATOM     14  C   UNL     1       3.990   7.219  17.440  0.00  0.00    +0.000 A 
ENDBRANCH   2   5
BRANCH   1  18
ATOM     15  C   UNL     1      -0.738  10.918  22.196  0.00  0.00    +0.000 A 
ATOM     16  C   UNL     1      -0.641  11.020  20.807  0.00  0.00    +0.000 A 
ATOM     17  C   UNL     1       0.133  10.130  20.057  0.00  0.00    +0.000 A 
ATOM     18  C   UNL     1       0.833   9.109  20.687  0.00  0.00    +0.000 A 
ATOM     19  C   UNL     1       0.747   8.997  22.083  0.00  0.00    +0.000 A 
ATOM     20  C   UNL     1      -0.036   9.890  22.834  0.00  0.00    +0.000 A 
BRANCH  15  24
ATOM     21  C   UNL     1      -2.419  15.010  24.341  0.00  0.00    +0.000 C 
ATOM     22  C   UNL     1      -2.375  13.607  23.851  0.00  0.00    +0.000 A 
ATOM     23  N   UNL     1      -1.297  13.160  23.143  0.00  0.00    +0.000 NA
ATOM     24  C   UNL     1      -1.570  11.893  22.897  0.00  0.00    +0.000 A 
ATOM     25  O   UNL     1      -2.781  11.482  23.393  0.00  0.00    +0.000 OA
ATOM     26  C   UNL     1      -3.290  12.594  24.019  0.00  0.00    +0.000 A 
ATOM     27  C   UNL     1      -4.589  12.486  24.696  0.00  0.00    +0.000 C 
ENDBRANCH  15  24
ENDBRANCH   1  18
TORSDOF 3
ENDMDL
MODEL 2
REMARK VINA RESULT:      -8.8      1.271      1.702
REMARK  Name = 
REMARK  5 active torsions:
REMARK  status: ('A' for Active; 'I' for Inactive)
REMARK    1  A    between atoms: C_1  and  C_2
REMARK    2  A    between atoms: C_4  and  C_5
REMARK    3  A    between atoms: C_8  and  N_9
REMARK    4  A    between atoms: C_10  and  C_12
REMARK    5  A    between atoms: C_25  and  C_26
REMARK                            x       y       z     vdW  Elec       q    Type
REMARK                         _______ _______ _______ _____ _____    ______ ____
ROOT
ATOM      1  N   UNL     1       2.085   7.896  19.066  0.00  0.00    +0.000 N 
ATOM      2  C   UNL     1       2.372   6.577  19.383  0.00  0.00    +0.000 C 
ATOM      3  O   UNL     1       1.952   5.957  20.352  0.00  0.00    +0.000 OA
ATOM      4  H   UNL     1       2.408   8.249  18.179  0.00  0.00    +0.000 HD
ENDROOT
BRANCH   2   5
ATOM      5  C   UNL     1       3.258   5.846  18.429  0.00  0.00    +0.000 A 
ATOM      6  C   UNL     1       2.815   4.713  17.739  0.00  0.00    +0.000 A 
ATOM      7  C   UNL     1       3.699   3.991  16.940  0.00  0.00    +0.000 A 
ATOM      8  C   UNL     1       4.989   4.471  16.698  0.00  0.00    +0.000 A 
ATOM      9  C   UNL     1       5.873   3.776  15.875  0.00  0.00    +0.000 A 
ATOM     10  C   UNL     1       6.925   4.477  15.321  0.00  0.00    +0.000 A 
ATOM     11  N   UNL     1       7.287   5.713  15.719  0.00  0.00    +0.000 NA
ATOM     12  C   UNL     1       6.560   6.265  16.720  0.00  0.00    +0.000 A 
ATOM     13  C   UNL     1       5.375   5.718  17.220  0.00  0.00    +0.000 A 
ATOM     14  C   UNL     1       4.543   6.353  18.161  0.00  0.00    +0.000 A 
ENDBRANCH   2   5
BRANCH   1  18
ATOM     15  C   UNL     1      -0.041  10.794  21.316  0.00  0.00    +0.000 A 
ATOM     16  C   UNL     1       0.505   9.672  21.941  0.00  0.00    +0.000 A 
ATOM     17  C   UNL     1       1.206   8.698  21.224  0.00  0.00    +0.000 A 
ATOM     18  C   UNL     1       1.376   8.829  19.852  0.00  0.00    +0.000 A 
ATOM     19  C   UNL     1       0.829   9.949  19.209  0.00  0.00    +0.000 A 
ATOM     20  C   UNL     1       0.130  10.928  19.934  0.00  0.00    +0.000 A 
BRANCH  15  24
ATOM     21  C   UNL     1      -1.258  14.753  23.965  0.00  0.00    +0.000 C 
ATOM     22  C   UNL     1      -1.368  13.421  23.312  0.00  0.00    +0.000 A 
ATOM     23  N   UNL     1      -0.350  12.953  22.533  0.00  0.00    +0.000 NA
ATOM     24  C   UNL     1      -0.759  11.760  22.146  0.00  0.00    +0.000 A 
ATOM     25  O   UNL     1      -2.002  11.420  22.615  0.00  0.00    +0.000 OA
ATOM     26  C   UNL     1      -2.384  12.497  23.378  0.00  0.00    +0.000 A 
ATOM     27  C   UNL     1      -3.681  12.445  24.066  0.00  0.00    +0.000 C 
ENDBRANCH  15  24
ENDBRANCH   1  18
TORSDOF 3
ENDMDL
MODEL 3
REMARK VINA RESULT:      -8.7      7.751     10.726
REMARK  Name = 
REMARK  5 active torsions:
REMARK  status: ('A' for Active; 'I' for Inactive)
REMARK    1  A    between atoms: C_1  and  C_2
REMARK    2  A    between atoms: C_4  and  C_5
REMARK    3  A    between atoms: C_8  and  N_9
REMARK    4  A    between atoms: C_10  and  C_12
REMARK    5  A    between atoms: C_25  and  C_26
REMARK                            x       y       z     vdW  Elec       q    Type
REMARK                         _______ _______ _______ _____ _____    ______ ____
ROOT
ATOM      1  N   UNL     1       8.560   9.364  17.710  0.00  0.00    +0.000 N 
ATOM      2  C   UNL     1       9.033  10.195  18.715  0.00  0.00    +0.000 C 
ATOM      3  O   UNL     1       8.964   9.986  19.920  0.00  0.00    +0.000 OA
ATOM      4  H   UNL     1       8.783   9.603  16.757  0.00  0.00    +0.000 HD
ENDROOT
BRANCH   2   5
ATOM      5  C   UNL     1       9.711  11.449  18.271  0.00  0.00    +0.000 A 
ATOM      6  C   UNL     1      10.933  11.420  17.592  0.00  0.00    +0.000 A 
ATOM      7  C   UNL     1      11.592  12.608  17.288  0.00  0.00    +0.000 A 
ATOM      8  C   UNL     1      10.973  13.841  17.519  0.00  0.00    +0.000 A 
ATOM      9  C   UNL     1      11.608  15.037  17.190  0.00  0.00    +0.000 A 
ATOM     10  C   UNL     1      10.821  16.158  17.019  0.00  0.00    +0.000 A 
ATOM     11  N   UNL     1       9.526  16.221  17.388  0.00  0.00    +0.000 NA
ATOM     12  C   UNL     1       9.003  15.109  17.957  0.00  0.00    +0.000 A 
ATOM     13  C   UNL     1       9.657  13.875  18.010  0.00  0.00    +0.000 A 
ATOM     14  C   UNL     1       9.068  12.683  18.473  0.00  0.00    +0.000 A 
ENDBRANCH   2   5
BRANCH   1  18
ATOM     15  C   UNL     1       6.132   5.911  18.112  0.00  0.00    +0.000 A 
ATOM     16  C   UNL     1       7.373   5.982  18.747  0.00  0.00    +0.000 A 
ATOM     17  C   UNL     1       8.197   7.106  18.627  0.00  0.00    +0.000 A 
ATOM     18  C   UNL     1       7.791   8.191  17.862  0.00  0.00    +0.000 A 
ATOM     19  C   UNL     1       6.548   8.132  17.216  0.00  0.00    +0.000 A 
ATOM     20  C   UNL     1       5.720   7.004  17.342  0.00  0.00    +0.000 A 
BRANCH  15  24
ATOM     21  C   UNL     1       2.869   2.279  17.538  0.00  0.00    +0.000 C 
ATOM     22  C   UNL     1       3.960   3.095  18.133  0.00  0.00    +0.000 A 
ATOM     23  N   UNL     1       4.412   4.211  17.490  0.00  0.00    +0.000 NA
ATOM     24  C   UNL     1       5.339   4.697  18.293  0.00  0.00    +0.000 A 
ATOM     25  O   UNL     1       5.535   3.953  19.428  0.00  0.00    +0.000 OA
ATOM     26  C   UNL     1       4.631   2.924  19.322  0.00  0.00    +0.000 A 
ATOM     27  C   UNL     1       4.555   1.940  20.410  0.00  0.00    +0.000 C 
ENDBRANCH  15  24
ENDBRANCH   1  18
TORSDOF 3
ENDMDL
MODEL 4
REMARK VINA RESULT:      -8.7      1.443      2.106
REMARK  Name = 
REMARK  5 active torsions:
REMARK  status: ('A' for Active; 'I' for Inactive)
REMARK    1  A    between atoms: C_1  and  C_2
REMARK    2  A    between atoms: C_4  and  C_5
REMARK    3  A    between atoms: C_8  and  N_9
REMARK    4  A    between atoms: C_10  and  C_12
REMARK    5  A    between atoms: C_25  and  C_26
REMARK                            x       y       z     vdW  Elec       q    Type
REMARK                         _______ _______ _______ _____ _____    ______ ____
ROOT
ATOM      1  N   UNL     1       2.113   7.841  19.089  0.00  0.00    +0.000 N 
ATOM      2  C   UNL     1       2.351   6.503  19.365  0.00  0.00    +0.000 C 
ATOM      3  O   UNL     1       1.868   5.857  20.287  0.00  0.00    +0.000 OA
ATOM      4  H   UNL     1       2.488   8.219  18.233  0.00  0.00    +0.000 HD
ENDROOT
BRANCH   2   5
ATOM      5  C   UNL     1       3.266   5.787  18.427  0.00  0.00    +0.000 A 
ATOM      6  C   UNL     1       2.872   4.615  17.772  0.00  0.00    +0.000 A 
ATOM      7  C   UNL     1       3.784   3.913  16.989  0.00  0.00    +0.000 A 
ATOM      8  C   UNL     1       5.050   4.445  16.725  0.00  0.00    +0.000 A 
ATOM      9  C   UNL     1       5.961   3.768  15.917  0.00  0.00    +0.000 A 
ATOM     10  C   UNL     1       6.976   4.501  15.336  0.00  0.00    +0.000 A 
ATOM     11  N   UNL     1       7.283   5.763  15.697  0.00  0.00    +0.000 NA
ATOM     12  C   UNL     1       6.536   6.309  16.687  0.00  0.00    +0.000 A 
ATOM     13  C   UNL     1       5.380   5.722  17.209  0.00  0.00    +0.000 A 
ATOM     14  C   UNL     1       4.524   6.345  18.137  0.00  0.00    +0.000 A 
ENDBRANCH   2   5
BRANCH   1  18
ATOM     15  C   UNL     1      -0.051  10.703  21.348  0.00  0.00    +0.000 A 
ATOM     16  C   UNL     1       0.428   9.540  21.951  0.00  0.00    +0.000 A 
ATOM     17  C   UNL     1       1.139   8.576  21.230  0.00  0.00    +0.000 A 
ATOM     18  C   UNL     1       1.389   8.760  19.876  0.00  0.00    +0.000 A 
ATOM     19  C   UNL     1       0.910   9.923  19.255  0.00  0.00    +0.000 A 
ATOM     20  C   UNL     1       0.200  10.892  19.984  0.00  0.00    +0.000 A 
BRANCH  15  24
ATOM     21  C   UNL     1      -3.473  12.879  24.128  0.00  0.00    +0.000 C 
ATOM     22  C   UNL     1      -2.205  12.674  23.379  0.00  0.00    +0.000 A 
ATOM     23  N   UNL     1      -1.958  11.484  22.760  0.00  0.00    +0.000 NA
ATOM     24  C   UNL     1      -0.785  11.655  22.180  0.00  0.00    +0.000 A 
ATOM     25  O   UNL     1      -0.235  12.892  22.396  0.00  0.00    +0.000 OA
ATOM     26  C   UNL     1      -1.166  13.550  23.164  0.00  0.00    +0.000 A 
ATOM     27  C   UNL     1      -0.898  14.939  23.555  0.00  0.00    +0.000 C 
ENDBRANCH  15  24
ENDBRANCH   1  18
TORSDOF 3
ENDMDL
MODEL 5
REMARK VINA RESULT:      -8.7      0.694      1.204
REMARK  Name = 
REMARK  5 active torsions:
REMARK  status: ('A' for Active; 'I' for Inactive)
REMARK    1  A    between atoms: C_1  and  C_2
REMARK    2  A    between atoms: C_4  and  C_5
REMARK    3  A    between atoms: C_8  and  N_9
REMARK    4  A    between atoms: C_10  and  C_12
REMARK    5  A    between atoms: C_25  and  C_26
REMARK                            x       y       z     vdW  Elec       q    Type
REMARK                         _______ _______ _______ _____ _____    ______ ____
ROOT
ATOM      1  N   UNL     1       1.743   8.250  19.936  0.00  0.00    +0.000 N 
ATOM      2  C   UNL     1       1.992   8.244  18.571  0.00  0.00    +0.000 C 
ATOM      3  O   UNL     1       1.658   9.108  17.770  0.00  0.00    +0.000 OA
ATOM      4  H   UNL     1       2.172   7.531  20.496  0.00  0.00    +0.000 HD
ENDROOT
BRANCH   2   5
ATOM      5  C   UNL     1       2.765   7.079  18.046  0.00  0.00    +0.000 A 
ATOM      6  C   UNL     1       2.277   5.773  18.142  0.00  0.00    +0.000 A 
ATOM      7  C   UNL     1       3.069   4.700  17.741  0.00  0.00    +0.000 A 
ATOM      8  C   UNL     1       4.292   4.922  17.101  0.00  0.00    +0.000 A 
ATOM      9  C   UNL     1       5.080   3.858  16.665  0.00  0.00    +0.000 A 
ATOM     10  C   UNL     1       6.013   4.109  15.680  0.00  0.00    +0.000 A 
ATOM     11  N   UNL     1       6.376   5.349  15.297  0.00  0.00    +0.000 NA
ATOM     12  C   UNL     1       5.774   6.381  15.936  0.00  0.00    +0.000 A 
ATOM     13  C   UNL     1       4.695   6.237  16.812  0.00  0.00    +0.000 A 
ATOM     14  C   UNL     1       3.977   7.311  17.371  0.00  0.00    +0.000 A 
ENDBRANCH   2   5
BRANCH   1  18
ATOM     15  C   UNL     1      -0.680  10.896  22.196  0.00  0.00    +0.000 A 
ATOM     16  C   UNL     1      -0.303  11.220  20.892  0.00  0.00    +0.000 A 
ATOM     17  C   UNL     1       0.500  10.369  20.126  0.00  0.00    +0.000 A 
ATOM     18  C   UNL     1       0.946   9.165  20.654  0.00  0.00    +0.000 A 
ATOM     19  C   UNL     1       0.577   8.828  21.965  0.00  0.00    +0.000 A 
ATOM     20  C   UNL     1      -0.234   9.682  22.731  0.00  0.00    +0.000 A 
BRANCH  15  24
ATOM     21  C   UNL     1      -4.485  13.131  24.363  0.00  0.00    +0.000 C 
ATOM     22  C   UNL     1      -3.102  12.888  23.873  0.00  0.00    +0.000 A 
ATOM     23  N   UNL     1      -2.794  11.718  23.242  0.00  0.00    +0.000 NA
ATOM     24  C   UNL     1      -1.520  11.846  22.922  0.00  0.00    +0.000 A 
ATOM     25  O   UNL     1      -0.965  13.034  23.323  0.00  0.00    +0.000 OA
ATOM     26  C   UNL     1      -1.999  13.707  23.928  0.00  0.00    +0.000 A 
ATOM     27  C   UNL     1      -1.747  15.055  24.453  0.00  0.00    +0.000 C 
ENDBRANCH  15  24
ENDBRANCH   1  18
TORSDOF 3
ENDMDL
MODEL 6
REMARK VINA RESULT:      -8.6      1.362      1.753
REMARK  Name = 
REMARK  5 active torsions:
REMARK  status: ('A' for Active; 'I' for Inactive)
REMARK    1  A    between atoms: C_1  and  C_2
REMARK    2  A    between atoms: C_4  and  C_5
REMARK    3  A    between atoms: C_8  and  N_9
REMARK    4  A    between atoms: C_10  and  C_12
REMARK    5  A    between atoms: C_25  and  C_26
REMARK                            x       y       z     vdW  Elec       q    Type
REMARK                         _______ _______ _______ _____ _____    ______ ____
ROOT
ATOM      1  N   UNL     1       1.987   7.892  19.432  0.00  0.00    +0.000 N 
ATOM      2  C   UNL     1       2.218   6.560  19.740  0.00  0.00    +0.000 C 
ATOM      3  O   UNL     1       1.721   5.934  20.669  0.00  0.00    +0.000 OA
ATOM      4  H   UNL     1       2.374   8.251  18.574  0.00  0.00    +0.000 HD
ENDROOT
BRANCH   2   5
ATOM      5  C   UNL     1       3.143   5.822  18.829  0.00  0.00    +0.000 A 
ATOM      6  C   UNL     1       3.246   4.428  18.863  0.00  0.00    +0.000 A 
ATOM      7  C   UNL     1       4.195   3.778  18.078  0.00  0.00    +0.000 A 
ATOM      8  C   UNL     1       4.948   4.492  17.140  0.00  0.00    +0.000 A 
ATOM      9  C   UNL     1       5.878   3.849  16.325  0.00  0.00    +0.000 A 
ATOM     10  C   UNL     1       6.253   4.479  15.155  0.00  0.00    +0.000 A 
ATOM     11  N   UNL     1       5.969   5.767  14.879  0.00  0.00    +0.000 NA
ATOM     12  C   UNL     1       5.281   6.452  15.824  0.00  0.00    +0.000 A 
ATOM     13  C   UNL     1       4.703   5.862  16.952  0.00  0.00    +0.000 A 
ATOM     14  C   UNL     1       3.871   6.540  17.863  0.00  0.00    +0.000 A 
ENDBRANCH   2   5
BRANCH   1  18
ATOM     15  C   UNL     1      -0.205  10.621  21.825  0.00  0.00    +0.000 A 
ATOM     16  C   UNL     1      -0.170  10.765  20.438  0.00  0.00    +0.000 A 
ATOM     17  C   UNL     1       0.549   9.884  19.625  0.00  0.00    +0.000 A 
ATOM     18  C   UNL     1       1.255   8.830  20.190  0.00  0.00    +0.000 A 
ATOM     19  C   UNL     1       1.232   8.675  21.583  0.00  0.00    +0.000 A 
ATOM     20  C   UNL     1       0.504   9.559  22.398  0.00  0.00    +0.000 A 
BRANCH  15  24
ATOM     21  C   UNL     1      -3.777  12.865  24.351  0.00  0.00    +0.000 C 
ATOM     22  C   UNL     1      -2.466  12.639  23.687  0.00  0.00    +0.000 A 
ATOM     23  N   UNL     1      -2.191  11.437  23.101  0.00  0.00    +0.000 NA
ATOM     24  C   UNL     1      -0.982  11.590  22.596  0.00  0.00    +0.000 A 
ATOM     25  O   UNL     1      -0.436  12.826  22.829  0.00  0.00    +0.000 OA
ATOM     26  C   UNL     1      -1.407  13.503  23.526  0.00  0.00    +0.000 A 
ATOM     27  C   UNL     1      -1.152  14.896  23.914  0.00  0.00    +0.000 C 
ENDBRANCH  15  24
ENDBRANCH   1  18
TORSDOF 3
ENDMDL
MODEL 7
REMARK VINA RESULT:      -8.5      1.196      1.540
REMARK  Name = 
REMARK  5 active torsions:
REMARK  status: ('A' for Active; 'I' for Inactive)
REMARK    1  A    between atoms: C_1  and  C_2
REMARK    2  A    between atoms: C_4  and  C_5
REMARK    3  A    between atoms: C_8  and  N_9
REMARK    4  A    between atoms: C_10  and  C_12
REMARK    5  A    between atoms: C_25  and  C_26
REMARK                            x       y       z     vdW  Elec       q    Type
REMARK                         _______ _______ _______ _____ _____    ______ ____
ROOT
ATOM      1  N   UNL     1       1.804   8.202  19.899  0.00  0.00    +0.000 N 
ATOM      2  C   UNL     1       1.969   6.843  20.120  0.00  0.00    +0.000 C 
ATOM      3  O   UNL     1       1.340   6.158  20.918  0.00  0.00    +0.000 OA
ATOM      4  H   UNL     1       2.310   8.619  19.133  0.00  0.00    +0.000 HD
ENDROOT
BRANCH   2   5
ATOM      5  C   UNL     1       2.994   6.155  19.281  0.00  0.00    +0.000 A 
ATOM      6  C   UNL     1       3.354   4.823  19.509  0.00  0.00    +0.000 A 
ATOM      7  C   UNL     1       4.390   4.245  18.779  0.00  0.00    +0.000 A 
ATOM      8  C   UNL     1       4.977   4.934  17.713  0.00  0.00    +0.000 A 
ATOM      9  C   UNL     1       5.993   4.354  16.955  0.00  0.00    +0.000 A 
ATOM     10  C   UNL     1       6.219   4.859  15.690  0.00  0.00    +0.000 A 
ATOM     11  N   UNL     1       5.696   6.019  15.247  0.00  0.00    +0.000 NA
ATOM     12  C   UNL     1       4.913   6.702  16.116  0.00  0.00    +0.000 A 
ATOM     13  C   UNL     1       4.478   6.194  17.344  0.00  0.00    +0.000 A 
ATOM     14  C   UNL     1       3.555   6.840  18.188  0.00  0.00    +0.000 A 
ENDBRANCH   2   5
BRANCH   1  18
ATOM     15  C   UNL     1      -0.648  10.968  21.976  0.00  0.00    +0.000 A 
ATOM     16  C   UNL     1       0.100  10.020  22.675  0.00  0.00    +0.000 A 
ATOM     17  C   UNL     1       0.912   9.092  22.016  0.00  0.00    +0.000 A 
ATOM     18  C   UNL     1       0.994   9.095  20.630  0.00  0.00    +0.000 A 
ATOM     19  C   UNL     1       0.245  10.039  19.914  0.00  0.00    +0.000 A 
ATOM     20  C   UNL     1      -0.567  10.974  20.579  0.00  0.00    +0.000 A 
BRANCH  15  24
ATOM     21  C   UNL     1      -2.305  14.925  24.377  0.00  0.00    +0.000 C 
ATOM     22  C   UNL     1      -2.264  13.550  23.811  0.00  0.00    +0.000 A 
ATOM     23  N   UNL     1      -1.200  13.151  23.056  0.00  0.00    +0.000 NA
ATOM     24  C   UNL     1      -1.470  11.897  22.748  0.00  0.00    +0.000 A 
ATOM     25  O   UNL     1      -2.667  11.450  23.248  0.00  0.00    +0.000 OA
ATOM     26  C   UNL     1      -3.168  12.523  23.943  0.00  0.00    +0.000 A 
ATOM     27  C   UNL     1      -4.451  12.369  24.643  0.00  0.00    +0.000 C 
ENDBRANCH  15  24
ENDBRANCH   1  18
TORSDOF 3
ENDMDL
MODEL 8
REMARK VINA RESULT:      -8.4      7.685     10.734
REMARK  Name = 
REMARK  5 active torsions:
REMARK  status: ('A' for Active; 'I' for Inactive)
REMARK    1  A    between atoms: C_1  and  C_2
REMARK    2  A    between atoms: C_4  and  C_5
REMARK    3  A    between atoms: C_8  and  N_9
REMARK    4  A    between atoms: C_10  and  C_12
REMARK    5  A    between atoms: C_25  and  C_26
REMARK                            x       y       z     vdW  Elec       q    Type
REMARK                         _______ _______ _______ _____ _____    ______ ____
ROOT
ATOM      1  N   UNL     1       8.580   9.471  17.720  0.00  0.00    +0.000 N 
ATOM      2  C   UNL     1       9.099  10.294  18.708  0.00  0.00    +0.000 C 
ATOM      3  O   UNL     1       9.084  10.076  19.914  0.00  0.00    +0.000 OA
ATOM      4  H   UNL     1       8.761   9.717  16.760  0.00  0.00    +0.000 HD
ENDROOT
BRANCH   2   5
ATOM      5  C   UNL     1       9.761  11.549  18.244  0.00  0.00    +0.000 A 
ATOM      6  C   UNL     1      10.964  11.522  17.531  0.00  0.00    +0.000 A 
ATOM      7  C   UNL     1      11.610  12.713  17.207  0.00  0.00    +0.000 A 
ATOM      8  C   UNL     1      10.995  13.944  17.453  0.00  0.00    +0.000 A 
ATOM      9  C   UNL     1      11.617  15.141  17.104  0.00  0.00    +0.000 A 
ATOM     10  C   UNL     1      10.821  16.259  16.953  0.00  0.00    +0.000 A 
ATOM     11  N   UNL     1       9.537  16.320  17.359  0.00  0.00    +0.000 NA
ATOM     12  C   UNL     1       9.034  15.207  17.944  0.00  0.00    +0.000 A 
ATOM     13  C   UNL     1       9.693  13.975  17.980  0.00  0.00    +0.000 A 
ATOM     14  C   UNL     1       9.121  12.782  18.463  0.00  0.00    +0.000 A 
ENDBRANCH   2   5
BRANCH   1  18
ATOM     15  C   UNL     1       6.163   6.021  18.202  0.00  0.00    +0.000 A 
ATOM     16  C   UNL     1       7.417   6.098  18.809  0.00  0.00    +0.000 A 
ATOM     17  C   UNL     1       8.238   7.220  18.662  0.00  0.00    +0.000 A 
ATOM     18  C   UNL     1       7.815   8.300  17.898  0.00  0.00    +0.000 A 
ATOM     19  C   UNL     1       6.558   8.236  17.280  0.00  0.00    +0.000 A 
ATOM     20  C   UNL     1       5.733   7.108  17.433  0.00  0.00    +0.000 A 
BRANCH  15  24
ATOM     21  C   UNL     1       4.460   1.735  19.905  0.00  0.00    +0.000 C 
ATOM     22  C   UNL     1       4.574   2.960  19.070  0.00  0.00    +0.000 A 
ATOM     23  N   UNL     1       5.538   3.888  19.340  0.00  0.00    +0.000 NA
ATOM     24  C   UNL     1       5.374   4.808  18.410  0.00  0.00    +0.000 A 
ATOM     25  O   UNL     1       4.341   4.546  17.546  0.00  0.00    +0.000 OA
ATOM     26  C   UNL     1       3.836   3.343  17.974  0.00  0.00    +0.000 A 
ATOM     27  C   UNL     1       2.717   2.748  17.233  0.00  0.00    +0.000 C 
ENDBRANCH  15  24
ENDBRANCH   1  18
TORSDOF 3
ENDMDL
MODEL 9
REMARK VINA RESULT:      -8.4      1.522      2.021
REMARK  Name = 
REMARK  5 active torsions:
REMARK  status: ('A' for Active; 'I' for Inactive)
REMARK    1  A    between atoms: C_1  and  C_2
REMARK    2  A    between atoms: C_4  and  C_5
REMARK    3  A    between atoms: C_8  and  N_9
REMARK    4  A    between atoms: C_10  and  C_12
REMARK    5  A    between atoms: C_25  and  C_26
REMARK                            x       y       z     vdW  Elec       q    Type
REMARK                         _______ _______ _______ _____ _____    ______ ____
ROOT
ATOM      1  N   UNL     1       2.067   8.103  19.596  0.00  0.00    +0.000 N 
ATOM      2  C   UNL     1       2.275   6.756  19.852  0.00  0.00    +0.000 C 
ATOM      3  O   UNL     1       1.619   6.053  20.611  0.00  0.00    +0.000 OA
ATOM      4  H   UNL     1       2.610   8.533  18.864  0.00  0.00    +0.000 HD
ENDROOT
BRANCH   2   5
ATOM      5  C   UNL     1       3.393   6.106  19.104  0.00  0.00    +0.000 A 
ATOM      6  C   UNL     1       3.968   4.909  19.542  0.00  0.00    +0.000 A 
ATOM      7  C   UNL     1       5.079   4.387  18.884  0.00  0.00    +0.000 A 
ATOM      8  C   UNL     1       5.536   4.965  17.695  0.00  0.00    +0.000 A 
ATOM      9  C   UNL     1       6.626   4.433  17.009  0.00  0.00    +0.000 A 
ATOM     10  C   UNL     1       6.756   4.739  15.670  0.00  0.00    +0.000 A 
ATOM     11  N   UNL     1       6.046   5.706  15.055  0.00  0.00    +0.000 NA
ATOM     12  C   UNL     1       5.169   6.395  15.824  0.00  0.00    +0.000 A 
ATOM     13  C   UNL     1       4.834   6.045  17.135  0.00  0.00    +0.000 A 
ATOM     14  C   UNL     1       3.824   6.672  17.891  0.00  0.00    +0.000 A 
ENDBRANCH   2   5
BRANCH   1  18
ATOM     15  C   UNL     1      -0.662  10.778  21.434  0.00  0.00    +0.000 A 
ATOM     16  C   UNL     1       0.077   9.879  22.205  0.00  0.00    +0.000 A 
ATOM     17  C   UNL     1       0.980   8.982  21.625  0.00  0.00    +0.000 A 
ATOM     18  C   UNL     1       1.163   8.966  20.248  0.00  0.00    +0.000 A 
ATOM     19  C   UNL     1       0.423   9.861  19.461  0.00  0.00    +0.000 A 
ATOM     20  C   UNL     1      -0.479  10.765  20.047  0.00  0.00    +0.000 A 
BRANCH  15  24
ATOM     21  C   UNL     1      -3.906  12.692  24.593  0.00  0.00    +0.000 C 
ATOM     22  C   UNL     1      -2.986  12.584  23.430  0.00  0.00    +0.000 A 
ATOM     23  N   UNL     1      -2.252  11.449  23.239  0.00  0.00    +0.000 NA
ATOM     24  C   UNL     1      -1.583  11.678  22.126  0.00  0.00    +0.000 A 
ATOM     25  O   UNL     1      -1.824  12.911  21.577  0.00  0.00    +0.000 OA
ATOM     26  C   UNL     1      -2.742  13.487  22.422  0.00  0.00    +0.000 A 
ATOM     27  C   UNL     1      -3.247  14.828  22.101  0.00  0.00    +0.000 C 
ENDBRANCH  15  24
ENDBRANCH   1  18
TORSDOF 3
ENDMDL
