MODEL 1
REMARK VINA RESULT:      -8.2      0.000      0.000
REMARK  Name = 
REMARK  6 active torsions:
REMARK  status: ('A' for Active; 'I' for Inactive)
REMARK    1  A    between atoms: C_1  and  C_2
REMARK    2  A    between atoms: C_6  and  N_7
REMARK    3  A    between atoms: C_8  and  C_10
REMARK    4  A    between atoms: C_14  and  S_15
REMARK    5  A    between atoms: S_15  and  N_18
REMARK    6  A    between atoms: C_26  and  O_27
REMARK                            x       y       z     vdW  Elec       q    Type
REMARK                         _______ _______ _______ _____ _____    ______ ____
ROOT
ATOM      1  C   UNL     1       6.987   6.992  17.369  0.00  0.00    +0.000 A 
ATOM      2  C   UNL     1       7.475   6.391  16.192  0.00  0.00    +0.000 A 
ATOM      3  C   UNL     1       6.806   5.334  15.596  0.00  0.00    +0.000 A 
ATOM      4  C   UNL     1       5.618   4.896  16.157  0.00  0.00    +0.000 A 
ATOM      5  C   UNL     1       5.078   5.552  17.279  0.00  0.00    +0.000 A 
ATOM      6  C   UNL     1       5.747   6.616  17.894  0.00  0.00    +0.000 A 
ENDROOT
BRANCH   1   8
ATOM      7  N   UNL     1       8.060   9.186  17.699  0.00  0.00    +0.000 N 
ATOM      8  C   UNL     1       7.962   7.858  18.073  0.00  0.00    +0.000 C 
ATOM      9  O   UNL     1       8.609   7.302  18.955  0.00  0.00    +0.000 OA
ATOM     10  H   UNL     1       7.563   9.525  16.890  0.00  0.00    +0.000 HD
BRANCH   7  16
ATOM     11  C   UNL     1      11.381  12.600  17.439  0.00  0.00    +0.000 C 
ATOM     12  C   UNL     1      10.523  11.732  18.305  0.00  0.00    +0.000 A 
ATOM     13  N   UNL     1      10.587  11.839  19.633  0.00  0.00    +0.000 NA
ATOM     14  C   UNL     1       9.778  11.021  20.329  0.00  0.00    +0.000 A 
ATOM     15  C   UNL     1       8.918  10.106  19.750  0.00  0.00    +0.000 A 
ATOM     16  C   UNL     1       8.921  10.073  18.379  0.00  0.00    +0.000 A 
ATOM     17  N   UNL     1       9.729  10.868  17.669  0.00  0.00    +0.000 NA
ENDBRANCH   7  16
ENDBRANCH   1   8
BRANCH   5  18
ATOM     18  S   UNL     1       3.417   5.102  17.759  0.00  0.00    +0.000 S 
ATOM     19  O   UNL     1       2.650   6.333  17.777  0.00  0.00    +0.000 OA
ATOM     20  O   UNL     1       3.086   3.988  16.895  0.00  0.00    +0.000 OA
BRANCH  18  21
ATOM     21  N   UNL     1       3.585   4.552  19.351  0.00  0.00    +0.000 NA
ATOM     22  C   UNL     1       4.391   3.340  19.593  0.00  0.00    +0.000 C 
ATOM     23  C   UNL     1       3.538   2.470  20.497  0.00  0.00    +0.000 C 
ATOM     24  C   UNL     1       2.441   1.700  19.728  0.00  0.00    +0.000 C 
ATOM     25  C   UNL     1       1.140   2.427  20.134  0.00  0.00    +0.000 C 
ATOM     26  C   UNL     1       1.429   2.681  21.612  0.00  0.00    +0.000 C 
ATOM     27  C   UNL     1       2.719   3.462  21.330  0.00  0.00    +0.000 C 
ATOM     28  C   UNL     1       2.370   4.515  20.237  0.00  0.00    +0.000 C 
ATOM     29  C   UNL     1       1.066   3.895  19.669  0.00  0.00    +0.000 C 
BRANCH  29  30
ATOM     30  O   UNL     1       0.782   4.073  18.313  0.00  0.00    +0.000 OA
ATOM     31  H   UNL     1       0.133   3.409  18.029  0.00  0.00    +0.000 HD
ENDBRANCH  29  30
ENDBRANCH  18  21
ENDBRANCH   5  18
TORSDOF 5
ENDMDL
MODEL 2
REMARK VINA RESULT:      -7.9      0.600      1.264
REMARK  Name = 
REMARK  6 active torsions:
REMARK  status: ('A' for Active; 'I' for Inactive)
REMARK    1  A    between atoms: C_1  and  C_2
REMARK    2  A    between atoms: C_6  and  N_7
REMARK    3  A    between atoms: C_8  and  C_10
REMARK    4  A    between atoms: C_14  and  S_15
REMARK    5  A    between atoms: S_15  and  N_18
REMARK    6  A    between atoms: C_26  and  O_27
REMARK                            x       y       z     vdW  Elec       q    Type
REMARK                         _______ _______ _______ _____ _____    ______ ____
ROOT
ATOM      1  C   UNL     1       7.064   7.042  17.418  0.00  0.00    +0.000 A 
ATOM      2  C   UNL     1       7.592   6.399  16.282  0.00  0.00    +0.000 A 
ATOM      3  C   UNL     1       6.947   5.316  15.706  0.00  0.00    +0.000 A 
ATOM      4  C   UNL     1       5.743   4.893  16.246  0.00  0.00    +0.000 A 
ATOM      5  C   UNL     1       5.165   5.589  17.323  0.00  0.00    +0.000 A 
ATOM      6  C   UNL     1       5.809   6.679  17.918  0.00  0.00    +0.000 A 
ENDROOT
BRANCH   1   8
ATOM      7  N   UNL     1       8.072   9.268  17.736  0.00  0.00    +0.000 N 
ATOM      8  C   UNL     1       8.011   7.940  18.119  0.00  0.00    +0.000 C 
ATOM      9  O   UNL     1       8.672   7.409  19.005  0.00  0.00    +0.000 OA
ATOM     10  H   UNL     1       7.568   9.587  16.924  0.00  0.00    +0.000 HD
BRANCH   7  16
ATOM     11  C   UNL     1       9.088  11.597  21.773  0.00  0.00    +0.000 C 
ATOM     12  C   UNL     1       9.441  11.326  20.344  0.00  0.00    +0.000 A 
ATOM     13  N   UNL     1      10.500  11.922  19.793  0.00  0.00    +0.000 NA
ATOM     14  C   UNL     1      10.742  11.617  18.505  0.00  0.00    +0.000 A 
ATOM     15  C   UNL     1       9.968  10.749  17.757  0.00  0.00    +0.000 A 
ATOM     16  C   UNL     1       8.906  10.184  18.413  0.00  0.00    +0.000 A 
ATOM     17  N   UNL     1       8.639  10.485  19.689  0.00  0.00    +0.000 NA
ENDBRANCH   7  16
ENDBRANCH   1   8
BRANCH   5  18
ATOM     18  S   UNL     1       3.491   5.148  17.768  0.00  0.00    +0.000 S 
ATOM     19  O   UNL     1       2.737   6.386  17.792  0.00  0.00    +0.000 OA
ATOM     20  O   UNL     1       3.164   4.051  16.880  0.00  0.00    +0.000 OA
BRANCH  18  21
ATOM     21  N   UNL     1       3.626   4.572  19.354  0.00  0.00    +0.000 NA
ATOM     22  C   UNL     1       4.418   3.349  19.591  0.00  0.00    +0.000 C 
ATOM     23  C   UNL     1       3.541   2.472  20.465  0.00  0.00    +0.000 C 
ATOM     24  C   UNL     1       2.451   1.725  19.665  0.00  0.00    +0.000 C 
ATOM     25  C   UNL     1       1.150   2.456  20.059  0.00  0.00    +0.000 C 
ATOM     26  C   UNL     1       1.415   2.684  21.546  0.00  0.00    +0.000 C 
ATOM     27  C   UNL     1       2.715   3.458  21.300  0.00  0.00    +0.000 C 
ATOM     28  C   UNL     1       2.395   4.532  20.217  0.00  0.00    +0.000 C 
ATOM     29  C   UNL     1       1.096   3.932  19.617  0.00  0.00    +0.000 C 
BRANCH  29  30
ATOM     30  O   UNL     1       0.839   4.134  18.258  0.00  0.00    +0.000 OA
ATOM     31  H   UNL     1       0.173   4.834  18.158  0.00  0.00    +0.000 HD
ENDBRANCH  29  30
ENDBRANCH  18  21
ENDBRANCH   5  18
TORSDOF 5
ENDMDL
MODEL 3
REMARK VINA RESULT:      -7.8      5.966      8.434
REMARK  Name = 
REMARK  6 active torsions:
REMARK  status: ('A' for Active; 'I' for Inactive)
REMARK    1  A    between atoms: C_1  and  C_2
REMARK    2  A    between atoms: C_6  and  N_7
REMARK    3  A    between atoms: C_8  and  C_10
REMARK    4  A    between atoms: C_14  and  S_15
REMARK    5  A    between atoms: S_15  and  N_18
REMARK    6  A    between atoms: C_26  and  O_27
REMARK                            x       y       z     vdW  Elec       q    Type
REMARK                         _______ _______ _______ _____ _____    ______ ____
ROOT
ATOM      1  C   UNL     1       2.540   7.486  18.850  0.00  0.00    +0.000 A 
ATOM      2  C   UNL     1       2.237   6.749  20.011  0.00  0.00    +0.000 A 
ATOM      3  C   UNL     1       1.388   7.255  20.982  0.00  0.00    +0.000 A 
ATOM      4  C   UNL     1       0.803   8.494  20.775  0.00  0.00    +0.000 A 
ATOM      5  C   UNL     1       1.028   9.194  19.575  0.00  0.00    +0.000 A 
ATOM      6  C   UNL     1       1.888   8.696  18.590  0.00  0.00    +0.000 A 
ENDROOT
BRANCH   1   8
ATOM      7  N   UNL     1       4.381   5.875  18.554  0.00  0.00    +0.000 N 
ATOM      8  C   UNL     1       3.704   6.986  18.083  0.00  0.00    +0.000 C 
ATOM      9  O   UNL     1       3.968   7.620  17.067  0.00  0.00    +0.000 OA
ATOM     10  H   UNL     1       4.156   5.487  19.457  0.00  0.00    +0.000 HD
BRANCH   7  16
ATOM     11  C   UNL     1       5.967   4.018  14.457  0.00  0.00    +0.000 C 
ATOM     12  C   UNL     1       6.269   4.418  15.867  0.00  0.00    +0.000 A 
ATOM     13  N   UNL     1       7.498   4.253  16.359  0.00  0.00    +0.000 NA
ATOM     14  C   UNL     1       7.678   4.643  17.634  0.00  0.00    +0.000 A 
ATOM     15  C   UNL     1       6.681   5.182  18.427  0.00  0.00    +0.000 A 
ATOM     16  C   UNL     1       5.454   5.315  17.830  0.00  0.00    +0.000 A 
ATOM     17  N   UNL     1       5.251   4.919  16.568  0.00  0.00    +0.000 NA
ENDBRANCH   7  16
ENDBRANCH   1   8
BRANCH   5  18
ATOM     18  S   UNL     1       0.019  10.638  19.278  0.00  0.00    +0.000 S 
ATOM     19  O   UNL     1      -0.530  10.485  17.945  0.00  0.00    +0.000 OA
ATOM     20  O   UNL     1      -0.813  10.740  20.459  0.00  0.00    +0.000 OA
BRANCH  18  21
ATOM     21  N   UNL     1       1.129  11.916  19.256  0.00  0.00    +0.000 NA
ATOM     22  C   UNL     1       1.713  12.360  20.537  0.00  0.00    +0.000 C 
ATOM     23  C   UNL     1       1.572  13.871  20.535  0.00  0.00    +0.000 C 
ATOM     24  C   UNL     1       0.150  14.341  20.912  0.00  0.00    +0.000 C 
ATOM     25  C   UNL     1      -0.430  14.844  19.573  0.00  0.00    +0.000 C 
ATOM     26  C   UNL     1       0.803  15.533  18.992  0.00  0.00    +0.000 C 
ATOM     27  C   UNL     1       1.666  14.268  19.057  0.00  0.00    +0.000 C 
ATOM     28  C   UNL     1       0.826  13.124  18.413  0.00  0.00    +0.000 C 
ATOM     29  C   UNL     1      -0.592  13.746  18.503  0.00  0.00    +0.000 C 
BRANCH  29  30
ATOM     30  O   UNL     1      -1.681  12.890  18.692  0.00  0.00    +0.000 OA
ATOM     31  H   UNL     1      -2.192  13.186  19.463  0.00  0.00    +0.000 HD
ENDBRANCH  29  30
ENDBRANCH  18  21
ENDBRANCH   5  18
TORSDOF 5
ENDMDL
MODEL 4
REMARK VINA RESULT:      -7.7      1.382      1.755
REMARK  Name = 
REMARK  6 active torsions:
REMARK  status: ('A' for Active; 'I' for Inactive)
REMARK    1  A    between atoms: C_1  and  C_2
REMARK    2  A    between atoms: C_6  and  N_7
REMARK    3  A    between atoms: C_8  and  C_10
REMARK    4  A    between atoms: C_14  and  S_15
REMARK    5  A    between atoms: S_15  and  N_18
REMARK    6  A    between atoms: C_26  and  O_27
REMARK                            x       y       z     vdW  Elec       q    Type
REMARK                         _______ _______ _______ _____ _____    ______ ____
ROOT
ATOM      1  C   UNL     1       6.863   7.154  17.623  0.00  0.00    +0.000 A 
ATOM      2  C   UNL     1       6.525   7.463  16.291  0.00  0.00    +0.000 A 
ATOM      3  C   UNL     1       5.764   6.594  15.524  0.00  0.00    +0.000 A 
ATOM      4  C   UNL     1       5.303   5.423  16.102  0.00  0.00    +0.000 A 
ATOM      5  C   UNL     1       5.559   5.153  17.460  0.00  0.00    +0.000 A 
ATOM      6  C   UNL     1       6.331   6.019  18.243  0.00  0.00    +0.000 A 
ENDROOT
BRANCH   1   8
ATOM      7  N   UNL     1       7.994   9.330  17.866  0.00  0.00    +0.000 N 
ATOM      8  C   UNL     1       7.944   7.988  18.197  0.00  0.00    +0.000 C 
ATOM      9  O   UNL     1       8.718   7.394  18.941  0.00  0.00    +0.000 OA
ATOM     10  H   UNL     1       7.379   9.703  17.161  0.00  0.00    +0.000 HD
BRANCH   7  16
ATOM     11  C   UNL     1      11.422  12.579  17.198  0.00  0.00    +0.000 C 
ATOM     12  C   UNL     1      10.619  11.765  18.164  0.00  0.00    +0.000 A 
ATOM     13  N   UNL     1      10.826  11.890  19.476  0.00  0.00    +0.000 NA
ATOM     14  C   UNL     1      10.057  11.121  20.268  0.00  0.00    +0.000 A 
ATOM     15  C   UNL     1       9.102  10.239  19.799  0.00  0.00    +0.000 A 
ATOM     16  C   UNL     1       8.960  10.185  18.436  0.00  0.00    +0.000 A 
ATOM     17  N   UNL     1       9.726  10.931  17.630  0.00  0.00    +0.000 NA
ENDBRANCH   7  16
ENDBRANCH   1   8
BRANCH   5  18
ATOM     18  S   UNL     1       4.695   3.769  18.188  0.00  0.00    +0.000 S 
ATOM     19  O   UNL     1       4.431   2.840  17.107  0.00  0.00    +0.000 OA
ATOM     20  O   UNL     1       5.497   3.418  19.342  0.00  0.00    +0.000 OA
BRANCH  18  21
ATOM     21  N   UNL     1       3.223   4.429  18.700  0.00  0.00    +0.000 NA
ATOM     22  C   UNL     1       3.219   5.287  19.901  0.00  0.00    +0.000 C 
ATOM     23  C   UNL     1       2.080   4.767  20.757  0.00  0.00    +0.000 C 
ATOM     24  C   UNL     1       2.457   3.497  21.552  0.00  0.00    +0.000 C 
ATOM     25  C   UNL     1       1.683   2.375  20.826  0.00  0.00    +0.000 C 
ATOM     26  C   UNL     1       0.372   3.103  20.537  0.00  0.00    +0.000 C 
ATOM     27  C   UNL     1       1.053   4.231  19.753  0.00  0.00    +0.000 C 
ATOM     28  C   UNL     1       2.005   3.547  18.727  0.00  0.00    +0.000 C 
ATOM     29  C   UNL     1       2.130   2.140  19.369  0.00  0.00    +0.000 C 
BRANCH  29  30
ATOM     30  O   UNL     1       3.336   1.449  19.224  0.00  0.00    +0.000 OA
ATOM     31  H   UNL     1       3.162   0.578  18.832  0.00  0.00    +0.000 HD
ENDBRANCH  29  30
ENDBRANCH  18  21
ENDBRANCH   5  18
TORSDOF 5
ENDMDL
MODEL 5
REMARK VINA RESULT:      -7.7      5.962      7.741
REMARK  Name = 
REMARK  6 active torsions:
REMARK  status: ('A' for Active; 'I' for Inactive)
REMARK    1  A    between atoms: C_1  and  C_2
REMARK    2  A    between atoms: C_6  and  N_7
REMARK    3  A    between atoms: C_8  and  C_10
REMARK    4  A    between atoms: C_14  and  S_15
REMARK    5  A    between atoms: S_15  and  N_18
REMARK    6  A    between atoms: C_26  and  O_27
REMARK                            x       y       z     vdW  Elec       q    Type
REMARK                         _______ _______ _______ _____ _____    ______ ____
ROOT
ATOM      1  C   UNL     1       0.964   9.255  20.215  0.00  0.00    +0.000 A 
ATOM      2  C   UNL     1       0.789   9.667  18.879  0.00  0.00    +0.000 A 
ATOM      3  C   UNL     1       1.445   9.028  17.839  0.00  0.00    +0.000 A 
ATOM      4  C   UNL     1       2.254   7.942  18.128  0.00  0.00    +0.000 A 
ATOM      5  C   UNL     1       2.359   7.467  19.449  0.00  0.00    +0.000 A 
ATOM      6  C   UNL     1       1.708   8.108  20.509  0.00  0.00    +0.000 A 
ENDROOT
BRANCH   1   8
ATOM      7  N   UNL     1      -0.273  11.300  20.814  0.00  0.00    +0.000 N 
ATOM      8  C   UNL     1       0.488  10.223  21.230  0.00  0.00    +0.000 C 
ATOM      9  O   UNL     1       0.820   9.970  22.384  0.00  0.00    +0.000 OA
ATOM     10  H   UNL     1      -0.402  11.483  19.832  0.00  0.00    +0.000 HD
BRANCH   7  16
ATOM     11  C   UNL     1      -3.698  12.319  23.974  0.00  0.00    +0.000 C 
ATOM     12  C   UNL     1      -2.439  12.749  23.288  0.00  0.00    +0.000 A 
ATOM     13  N   UNL     1      -1.885  13.926  23.584  0.00  0.00    +0.000 NA
ATOM     14  C   UNL     1      -0.754  14.228  22.920  0.00  0.00    +0.000 A 
ATOM     15  C   UNL     1      -0.168  13.404  21.976  0.00  0.00    +0.000 A 
ATOM     16  C   UNL     1      -0.810  12.215  21.744  0.00  0.00    +0.000 A 
ATOM     17  N   UNL     1      -1.943  11.903  22.384  0.00  0.00    +0.000 NA
ENDBRANCH   7  16
ENDBRANCH   1   8
BRANCH   5  18
ATOM     18  S   UNL     1       3.194   5.905  19.685  0.00  0.00    +0.000 S 
ATOM     19  O   UNL     1       4.608   6.166  19.502  0.00  0.00    +0.000 OA
ATOM     20  O   UNL     1       2.648   5.394  20.925  0.00  0.00    +0.000 OA
BRANCH  18  21
ATOM     21  N   UNL     1       2.653   4.952  18.394  0.00  0.00    +0.000 NA
ATOM     22  C   UNL     1       1.299   4.368  18.472  0.00  0.00    +0.000 C 
ATOM     23  C   UNL     1       1.476   2.907  18.102  0.00  0.00    +0.000 C 
ATOM     24  C   UNL     1       2.014   2.053  19.271  0.00  0.00    +0.000 C 
ATOM     25  C   UNL     1       3.472   1.755  18.858  0.00  0.00    +0.000 C 
ATOM     26  C   UNL     1       3.280   1.517  17.362  0.00  0.00    +0.000 C 
ATOM     27  C   UNL     1       2.653   2.895  17.120  0.00  0.00    +0.000 C 
ATOM     28  C   UNL     1       3.590   3.935  17.802  0.00  0.00    +0.000 C 
ATOM     29  C   UNL     1       4.370   3.005  18.768  0.00  0.00    +0.000 C 
BRANCH  29  30
ATOM     30  O   UNL     1       4.787   3.524  19.996  0.00  0.00    +0.000 OA
ATOM     31  H   UNL     1       5.757   3.581  20.009  0.00  0.00    +0.000 HD
ENDBRANCH  29  30
ENDBRANCH  18  21
ENDBRANCH   5  18
TORSDOF 5
ENDMDL
MODEL 6
REMARK VINA RESULT:      -7.7      5.888      8.148
REMARK  Name = 
REMARK  6 active torsions:
REMARK  status: ('A' for Active; 'I' for Inactive)
REMARK    1  A    between atoms: C_1  and  C_2
REMARK    2  A    between atoms: C_6  and  N_7
REMARK    3  A    between atoms: C_8  and  C_10
REMARK    4  A    between atoms: C_14  and  S_15
REMARK    5  A    between atoms: S_15  and  N_18
REMARK    6  A    between atoms: C_26  and  O_27
REMARK                            x       y       z     vdW  Elec       q    Type
REMARK                         _______ _______ _______ _____ _____    ______ ____
ROOT
ATOM      1  C   UNL     1       2.513   6.797  19.202  0.00  0.00    +0.000 A 
ATOM      2  C   UNL     1       1.920   6.336  20.393  0.00  0.00    +0.000 A 
ATOM      3  C   UNL     1       1.161   7.178  21.190  0.00  0.00    +0.000 A 
ATOM      4  C   UNL     1       0.958   8.484  20.776  0.00  0.00    +0.000 A 
ATOM      5  C   UNL     1       1.470   8.925  19.541  0.00  0.00    +0.000 A 
ATOM      6  C   UNL     1       2.244   8.086  18.731  0.00  0.00    +0.000 A 
ENDROOT
BRANCH   1   8
ATOM      7  N   UNL     1       4.560   6.466  17.869  0.00  0.00    +0.000 N 
ATOM      8  C   UNL     1       3.559   5.908  18.644  0.00  0.00    +0.000 C 
ATOM      9  O   UNL     1       3.440   4.722  18.933  0.00  0.00    +0.000 OA
ATOM     10  H   UNL     1       4.512   7.435  17.597  0.00  0.00    +0.000 HD
BRANCH   7  16
ATOM     11  C   UNL     1       6.440   4.077  14.194  0.00  0.00    +0.000 C 
ATOM     12  C   UNL     1       6.571   4.517  15.618  0.00  0.00    +0.000 A 
ATOM     13  N   UNL     1       7.650   4.178  16.326  0.00  0.00    +0.000 NA
ATOM     14  C   UNL     1       7.683   4.620  17.596  0.00  0.00    +0.000 A 
ATOM     15  C   UNL     1       6.683   5.378  18.178  0.00  0.00    +0.000 A 
ATOM     16  C   UNL     1       5.618   5.678  17.369  0.00  0.00    +0.000 A 
ATOM     17  N   UNL     1       5.559   5.236  16.107  0.00  0.00    +0.000 NA
ENDBRANCH   7  16
ENDBRANCH   1   8
BRANCH   5  18
ATOM     18  S   UNL     1       0.926  10.525  18.962  0.00  0.00    +0.000 S 
ATOM     19  O   UNL     1       1.977  11.025  18.098  0.00  0.00    +0.000 OA
ATOM     20  O   UNL     1      -0.425  10.294  18.496  0.00  0.00    +0.000 OA
BRANCH  18  21
ATOM     21  N   UNL     1       0.887  11.476  20.363  0.00  0.00    +0.000 NA
ATOM     22  C   UNL     1      -0.194  11.241  21.340  0.00  0.00    +0.000 C 
ATOM     23  C   UNL     1      -0.749  12.616  21.657  0.00  0.00    +0.000 C 
ATOM     24  C   UNL     1      -1.717  13.138  20.572  0.00  0.00    +0.000 C 
ATOM     25  C   UNL     1      -0.902  14.243  19.864  0.00  0.00    +0.000 C 
ATOM     26  C   UNL     1      -0.210  14.875  21.071  0.00  0.00    +0.000 C 
ATOM     27  C   UNL     1       0.449  13.562  21.509  0.00  0.00    +0.000 C 
ATOM     28  C   UNL     1       1.119  12.956  20.240  0.00  0.00    +0.000 C 
ATOM     29  C   UNL     1       0.355  13.731  19.133  0.00  0.00    +0.000 C 
BRANCH  29  30
ATOM     30  O   UNL     1       0.112  13.085  17.919  0.00  0.00    +0.000 OA
ATOM     31  H   UNL     1      -0.218  13.729  17.271  0.00  0.00    +0.000 HD
ENDBRANCH  29  30
ENDBRANCH  18  21
ENDBRANCH   5  18
TORSDOF 5
ENDMDL
MODEL 7
REMARK VINA RESULT:      -7.7      6.756      9.624
REMARK  Name = 
REMARK  6 active torsions:
REMARK  status: ('A' for Active; 'I' for Inactive)
REMARK    1  A    between atoms: C_1  and  C_2
REMARK    2  A    between atoms: C_6  and  N_7
REMARK    3  A    between atoms: C_8  and  C_10
REMARK    4  A    between atoms: C_14  and  S_15
REMARK    5  A    between atoms: S_15  and  N_18
REMARK    6  A    between atoms: C_26  and  O_27
REMARK                            x       y       z     vdW  Elec       q    Type
REMARK                         _______ _______ _______ _____ _____    ______ ____
ROOT
ATOM      1  C   UNL     1       1.862   7.939  19.560  0.00  0.00    +0.000 A 
ATOM      2  C   UNL     1       2.153   8.512  18.307  0.00  0.00    +0.000 A 
ATOM      3  C   UNL     1       1.778   9.812  18.008  0.00  0.00    +0.000 A 
ATOM      4  C   UNL     1       1.140  10.563  18.981  0.00  0.00    +0.000 A 
ATOM      5  C   UNL     1       0.929  10.028  20.266  0.00  0.00    +0.000 A 
ATOM      6  C   UNL     1       1.297   8.714  20.578  0.00  0.00    +0.000 A 
ENDROOT
BRANCH   1   8
ATOM      7  N   UNL     1       2.501   5.804  18.508  0.00  0.00    +0.000 N 
ATOM      8  C   UNL     1       2.006   6.466  19.618  0.00  0.00    +0.000 C 
ATOM      9  O   UNL     1       1.668   5.952  20.679  0.00  0.00    +0.000 OA
ATOM     10  H   UNL     1       2.650   6.301  17.644  0.00  0.00    +0.000 HD
BRANCH   7  16
ATOM     11  C   UNL     1       4.725   2.093  20.515  0.00  0.00    +0.000 C 
ATOM     12  C   UNL     1       3.770   2.584  19.473  0.00  0.00    +0.000 A 
ATOM     13  N   UNL     1       3.176   1.719  18.650  0.00  0.00    +0.000 NA
ATOM     14  C   UNL     1       2.331   2.250  17.748  0.00  0.00    +0.000 A 
ATOM     15  C   UNL     1       2.068   3.604  17.638  0.00  0.00    +0.000 A 
ATOM     16  C   UNL     1       2.724   4.411  18.530  0.00  0.00    +0.000 A 
ATOM     17  N   UNL     1       3.579   3.904  19.426  0.00  0.00    +0.000 NA
ENDBRANCH   7  16
ENDBRANCH   1   8
BRANCH   5  18
ATOM     18  S   UNL     1       0.359  11.154  21.530  0.00  0.00    +0.000 S 
ATOM     19  O   UNL     1       0.427  10.429  22.783  0.00  0.00    +0.000 OA
ATOM     20  O   UNL     1       1.110  12.369  21.288  0.00  0.00    +0.000 OA
BRANCH  18  21
ATOM     21  N   UNL     1      -1.270  11.410  21.146  0.00  0.00    +0.000 NA
ATOM     22  C   UNL     1      -1.594  12.087  19.875  0.00  0.00    +0.000 C 
ATOM     23  C   UNL     1      -2.600  13.161  20.242  0.00  0.00    +0.000 C 
ATOM     24  C   UNL     1      -1.941  14.418  20.853  0.00  0.00    +0.000 C 
ATOM     25  C   UNL     1      -2.323  14.335  22.346  0.00  0.00    +0.000 C 
ATOM     26  C   UNL     1      -3.762  13.837  22.225  0.00  0.00    +0.000 C 
ATOM     27  C   UNL     1      -3.368  12.582  21.437  0.00  0.00    +0.000 C 
ATOM     28  C   UNL     1      -2.196  11.916  22.218  0.00  0.00    +0.000 C 
ATOM     29  C   UNL     1      -1.730  13.118  23.083  0.00  0.00    +0.000 C 
BRANCH  29  30
ATOM     30  O   UNL     1      -0.373  13.220  23.400  0.00  0.00    +0.000 OA
ATOM     31  H   UNL     1       0.136  12.621  22.830  0.00  0.00    +0.000 HD
ENDBRANCH  29  30
ENDBRANCH  18  21
ENDBRANCH   5  18
TORSDOF 5
ENDMDL
MODEL 8
REMARK VINA RESULT:      -7.7      4.121      6.708
REMARK  Name = 
REMARK  6 active torsions:
REMARK  status: ('A' for Active; 'I' for Inactive)
REMARK    1  A    between atoms: C_1  and  C_2
REMARK    2  A    between atoms: C_6  and  N_7
REMARK    3  A    between atoms: C_8  and  C_10
REMARK    4  A    between atoms: C_14  and  S_15
REMARK    5  A    between atoms: S_15  and  N_18
REMARK    6  A    between atoms: C_26  and  O_27
REMARK                            x       y       z     vdW  Elec       q    Type
REMARK                         _______ _______ _______ _____ _____    ______ ____
ROOT
ATOM      1  C   UNL     1       1.970   6.836  19.887  0.00  0.00    +0.000 A 
ATOM      2  C   UNL     1       1.491   6.060  20.960  0.00  0.00    +0.000 A 
ATOM      3  C   UNL     1       1.526   4.675  20.916  0.00  0.00    +0.000 A 
ATOM      4  C   UNL     1       2.079   4.057  19.807  0.00  0.00    +0.000 A 
ATOM      5  C   UNL     1       2.644   4.827  18.773  0.00  0.00    +0.000 A 
ATOM      6  C   UNL     1       2.608   6.226  18.802  0.00  0.00    +0.000 A 
ENDROOT
BRANCH   1   8
ATOM      7  N   UNL     1       1.411   8.934  18.722  0.00  0.00    +0.000 N 
ATOM      8  C   UNL     1       1.561   8.260  19.920  0.00  0.00    +0.000 C 
ATOM      9  O   UNL     1       1.384   8.723  21.041  0.00  0.00    +0.000 OA
ATOM     10  H   UNL     1       1.685   8.499  17.855  0.00  0.00    +0.000 HD
BRANCH   7  16
ATOM     11  C   UNL     1       2.498  13.569  18.433  0.00  0.00    +0.000 C 
ATOM     12  C   UNL     1       1.434  12.523  18.544  0.00  0.00    +0.000 A 
ATOM     13  N   UNL     1       0.149  12.878  18.588  0.00  0.00    +0.000 NA
ATOM     14  C   UNL     1      -0.737  11.870  18.686  0.00  0.00    +0.000 A 
ATOM     15  C   UNL     1      -0.385  10.534  18.746  0.00  0.00    +0.000 A 
ATOM     16  C   UNL     1       0.958  10.270  18.690  0.00  0.00    +0.000 A 
ATOM     17  N   UNL     1       1.856  11.259  18.607  0.00  0.00    +0.000 NA
ENDBRANCH   7  16
ENDBRANCH   1   8
BRANCH   5  18
ATOM     18  S   UNL     1       3.578   3.951  17.526  0.00  0.00    +0.000 S 
ATOM     19  O   UNL     1       4.438   3.026  18.237  0.00  0.00    +0.000 OA
ATOM     20  O   UNL     1       2.577   3.514  16.575  0.00  0.00    +0.000 OA
BRANCH  18  21
ATOM     21  N   UNL     1       4.544   5.149  16.821  0.00  0.00    +0.000 NA
ATOM     22  C   UNL     1       5.403   4.776  15.680  0.00  0.00    +0.000 C 
ATOM     23  C   UNL     1       6.769   5.347  16.009  0.00  0.00    +0.000 C 
ATOM     24  C   UNL     1       7.560   4.474  17.009  0.00  0.00    +0.000 C 
ATOM     25  C   UNL     1       7.520   5.298  18.314  0.00  0.00    +0.000 C 
ATOM     26  C   UNL     1       7.705   6.703  17.746  0.00  0.00    +0.000 C 
ATOM     27  C   UNL     1       6.477   6.606  16.833  0.00  0.00    +0.000 C 
ATOM     28  C   UNL     1       5.305   6.086  17.719  0.00  0.00    +0.000 C 
ATOM     29  C   UNL     1       6.107   5.482  18.902  0.00  0.00    +0.000 C 
BRANCH  29  30
ATOM     30  O   UNL     1       5.585   4.361  19.552  0.00  0.00    +0.000 OA
ATOM     31  H   UNL     1       5.522   3.624  18.923  0.00  0.00    +0.000 HD
ENDBRANCH  29  30
ENDBRANCH  18  21
ENDBRANCH   5  18
TORSDOF 5
ENDMDL
MODEL 9
REMARK VINA RESULT:      -7.7      1.455      2.007
REMARK  Name = 
REMARK  6 active torsions:
REMARK  status: ('A' for Active; 'I' for Inactive)
REMARK    1  A    between atoms: C_1  and  C_2
REMARK    2  A    between atoms: C_6  and  N_7
REMARK    3  A    between atoms: C_8  and  C_10
REMARK    4  A    between atoms: C_14  and  S_15
REMARK    5  A    between atoms: S_15  and  N_18
REMARK    6  A    between atoms: C_26  and  O_27
REMARK                            x       y       z     vdW  Elec       q    Type
REMARK                         _______ _______ _______ _____ _____    ______ ____
ROOT
ATOM      1  C   UNL     1       7.591   7.517  18.179  0.00  0.00    +0.000 A 
ATOM      2  C   UNL     1       8.462   6.637  18.850  0.00  0.00    +0.000 A 
ATOM      3  C   UNL     1       8.032   5.393  19.283  0.00  0.00    +0.000 A 
ATOM      4  C   UNL     1       6.730   5.006  19.012  0.00  0.00    +0.000 A 
ATOM      5  C   UNL     1       5.883   5.842  18.261  0.00  0.00    +0.000 A 
ATOM      6  C   UNL     1       6.303   7.103  17.824  0.00  0.00    +0.000 A 
ENDROOT
BRANCH   1   8
ATOM      7  N   UNL     1       8.990   9.365  19.016  0.00  0.00    +0.000 N 
ATOM      8  C   UNL     1       8.072   8.915  18.084  0.00  0.00    +0.000 C 
ATOM      9  O   UNL     1       7.601   9.565  17.157  0.00  0.00    +0.000 OA
ATOM     10  H   UNL     1       9.236   8.790  19.807  0.00  0.00    +0.000 HD
BRANCH   7  16
ATOM     11  C   UNL     1       9.760  13.570  21.131  0.00  0.00    +0.000 C 
ATOM     12  C   UNL     1       9.938  12.711  19.919  0.00  0.00    +0.000 A 
ATOM     13  N   UNL     1      10.595  13.181  18.857  0.00  0.00    +0.000 NA
ATOM     14  C   UNL     1      10.708  12.338  17.815  0.00  0.00    +0.000 A 
ATOM     15  C   UNL     1      10.189  11.056  17.796  0.00  0.00    +0.000 A 
ATOM     16  C   UNL     1       9.534  10.664  18.935  0.00  0.00    +0.000 A 
ATOM     17  N   UNL     1       9.398  11.492  19.977  0.00  0.00    +0.000 NA
ENDBRANCH   7  16
ENDBRANCH   1   8
BRANCH   5  18
ATOM     18  S   UNL     1       4.327   5.147  17.723  0.00  0.00    +0.000 S 
ATOM     19  O   UNL     1       3.599   6.226  17.083  0.00  0.00    +0.000 OA
ATOM     20  O   UNL     1       4.702   3.935  17.025  0.00  0.00    +0.000 OA
BRANCH  18  21
ATOM     21  N   UNL     1       3.535   4.748  19.165  0.00  0.00    +0.000 NA
ATOM     22  C   UNL     1       4.076   3.641  19.979  0.00  0.00    +0.000 C 
ATOM     23  C   UNL     1       2.878   2.771  20.310  0.00  0.00    +0.000 C 
ATOM     24  C   UNL     1       2.471   1.841  19.145  0.00  0.00    +0.000 C 
ATOM     25  C   UNL     1       1.162   2.472  18.622  0.00  0.00    +0.000 C 
ATOM     26  C   UNL     1       0.513   2.872  19.945  0.00  0.00    +0.000 C 
ATOM     27  C   UNL     1       1.697   3.746  20.378  0.00  0.00    +0.000 C 
ATOM     28  C   UNL     1       2.034   4.669  19.169  0.00  0.00    +0.000 C 
ATOM     29  C   UNL     1       1.336   3.883  18.026  0.00  0.00    +0.000 C 
BRANCH  29  30
ATOM     30  O   UNL     1       1.907   3.923  16.751  0.00  0.00    +0.000 OA
ATOM     31  H   UNL     1       2.197   4.829  16.556  0.00  0.00    +0.000 HD
ENDBRANCH  29  30
ENDBRANCH  18  21
ENDBRANCH   5  18
TORSDOF 5
ENDMDL
