MODEL 1
REMARK VINA RESULT:      -8.9      0.000      0.000
REMARK  Name = 
REMARK  6 active torsions:
REMARK  status: ('A' for Active; 'I' for Inactive)
REMARK    1  A    between atoms: C_1  and  N_2
REMARK    2  A    between atoms: C_6  and  C_7
REMARK    3  A    between atoms: C_7  and  C_8
REMARK    4  A    between atoms: C_8  and  C_9
REMARK    5  A    between atoms: C_13  and  N_14
REMARK    6  A    between atoms: C_19  and  O_20
REMARK                            x       y       z     vdW  Elec       q    Type
REMARK                         _______ _______ _______ _____ _____    ______ ____
ROOT
ATOM      1  C   UNL     1       4.776   6.159  17.847  0.00  0.00    +0.000 A 
ATOM      2  C   UNL     1       4.250   7.367  17.340  0.00  0.00    +0.000 A 
ATOM      3  C   UNL     1       2.962   7.801  17.643  0.00  0.00    +0.000 A 
ATOM      4  C   UNL     1       2.109   6.974  18.351  0.00  0.00    +0.000 A 
ATOM      5  C   UNL     1       2.488   5.646  18.579  0.00  0.00    +0.000 A 
ATOM      6  C   UNL     1       3.852   5.316  18.499  0.00  0.00    +0.000 A 
ENDROOT
BRANCH   5   7
ATOM      7  N   UNL     1       1.511   4.567  18.383  0.00  0.00    +0.000 N 
ATOM      8  C   UNL     1       0.959   4.145  19.700  0.00  0.00    +0.000 C 
ATOM      9  C   UNL     1       1.957   3.122  20.120  0.00  0.00    +0.000 A 
ATOM     10  C   UNL     1       2.581   2.935  21.327  0.00  0.00    +0.000 A 
ATOM     11  N   UNL     1       3.733   2.218  21.425  0.00  0.00    +0.000 NA
ATOM     12  C   UNL     1       4.231   1.704  20.276  0.00  0.00    +0.000 A 
ATOM     13  C   UNL     1       3.672   1.805  19.024  0.00  0.00    +0.000 A 
ATOM     14  C   UNL     1       2.515   2.546  18.989  0.00  0.00    +0.000 A 
ATOM     15  C   UNL     1       2.079   3.379  17.851  0.00  0.00    +0.000 C 
ATOM     16  O   UNL     1       2.333   3.136  16.684  0.00  0.00    +0.000 OA
BRANCH  12  17
ATOM     17  O   UNL     1       5.488   1.205  20.413  0.00  0.00    +0.000 OA
ATOM     18  H   UNL     1       5.988   1.884  19.922  0.00  0.00    +0.000 HD
ENDBRANCH  12  17
ENDBRANCH   5   7
BRANCH   1  19
ATOM     19  C   UNL     1       6.333   5.778  17.705  0.00  0.00    +0.000 C 
ATOM     20  C   UNL     1       7.364   6.903  17.434  0.00  0.00    +0.000 C 
ATOM     21  O   UNL     1       8.061   6.644  18.674  0.00  0.00    +0.000 OA
ATOM     22  C   UNL     1       7.049   5.703  19.083  0.00  0.00    +0.000 C 
BRANCH  19  23
ATOM     23  C   UNL     1       6.617   4.511  16.865  0.00  0.00    +0.000 C 
BRANCH  23  29
ATOM     24  C   UNL     1       5.072   3.565  14.265  0.00  0.00    +0.000 C 
ATOM     25  N   UNL     1       6.269   4.354  14.328  0.00  0.00    +0.000 N 
ATOM     26  C   UNL     1       6.899   4.909  13.254  0.00  0.00    +0.000 A 
ATOM     27  N   UNL     1       7.955   5.570  13.654  0.00  0.00    +0.000 NA
ATOM     28  N   UNL     1       8.016   5.454  15.019  0.00  0.00    +0.000 NA
ATOM     29  C   UNL     1       6.994   4.737  15.435  0.00  0.00    +0.000 A 
ENDBRANCH  23  29
ENDBRANCH  19  23
ENDBRANCH   1  19
TORSDOF 5
ENDMDL
MODEL 2
REMARK VINA RESULT:      -8.6      0.798      1.337
REMARK  Name = 
REMARK  6 active torsions:
REMARK  status: ('A' for Active; 'I' for Inactive)
REMARK    1  A    between atoms: C_1  and  N_2
REMARK    2  A    between atoms: C_6  and  C_7
REMARK    3  A    between atoms: C_7  and  C_8
REMARK    4  A    between atoms: C_8  and  C_9
REMARK    5  A    between atoms: C_13  and  N_14
REMARK    6  A    between atoms: C_19  and  O_20
REMARK                            x       y       z     vdW  Elec       q    Type
REMARK                         _______ _______ _______ _____ _____    ______ ____
ROOT
ATOM      1  C   UNL     1       4.834   6.205  17.691  0.00  0.00    +0.000 A 
ATOM      2  C   UNL     1       4.288   7.447  17.303  0.00  0.00    +0.000 A 
ATOM      3  C   UNL     1       3.031   7.871  17.727  0.00  0.00    +0.000 A 
ATOM      4  C   UNL     1       2.222   7.007  18.442  0.00  0.00    +0.000 A 
ATOM      5  C   UNL     1       2.600   5.663  18.555  0.00  0.00    +0.000 A 
ATOM      6  C   UNL     1       3.950   5.328  18.353  0.00  0.00    +0.000 A 
ENDROOT
BRANCH   5   7
ATOM      7  N   UNL     1       1.598   4.607  18.363  0.00  0.00    +0.000 N 
ATOM      8  C   UNL     1       1.044   4.195  19.682  0.00  0.00    +0.000 C 
ATOM      9  C   UNL     1       2.022   3.149  20.095  0.00  0.00    +0.000 A 
ATOM     10  C   UNL     1       2.648   2.946  21.298  0.00  0.00    +0.000 A 
ATOM     11  N   UNL     1       3.784   2.203  21.387  0.00  0.00    +0.000 NA
ATOM     12  C   UNL     1       4.264   1.680  20.235  0.00  0.00    +0.000 A 
ATOM     13  C   UNL     1       3.700   1.796  18.986  0.00  0.00    +0.000 A 
ATOM     14  C   UNL     1       2.559   2.563  18.959  0.00  0.00    +0.000 A 
ATOM     15  C   UNL     1       2.136   3.407  17.826  0.00  0.00    +0.000 C 
ATOM     16  O   UNL     1       2.377   3.161  16.657  0.00  0.00    +0.000 OA
BRANCH  12  17
ATOM     17  O   UNL     1       5.510   1.153  20.364  0.00  0.00    +0.000 OA
ATOM     18  H   UNL     1       6.025   1.974  20.475  0.00  0.00    +0.000 HD
ENDBRANCH  12  17
ENDBRANCH   5   7
BRANCH   1  19
ATOM     19  C   UNL     1       6.372   5.822  17.409  0.00  0.00    +0.000 C 
ATOM     20  C   UNL     1       7.444   6.179  18.469  0.00  0.00    +0.000 C 
ATOM     21  O   UNL     1       7.791   4.789  18.672  0.00  0.00    +0.000 OA
ATOM     22  C   UNL     1       6.701   4.362  17.832  0.00  0.00    +0.000 C 
BRANCH  19  23
ATOM     23  C   UNL     1       6.858   6.104  15.969  0.00  0.00    +0.000 C 
BRANCH  23  29
ATOM     24  C   UNL     1       8.195   5.445  13.172  0.00  0.00    +0.000 C 
ATOM     25  N   UNL     1       7.005   4.866  13.726  0.00  0.00    +0.000 N 
ATOM     26  C   UNL     1       6.291   3.851  13.161  0.00  0.00    +0.000 A 
ATOM     27  N   UNL     1       5.269   3.554  13.921  0.00  0.00    +0.000 NA
ATOM     28  N   UNL     1       5.315   4.383  15.012  0.00  0.00    +0.000 NA
ATOM     29  C   UNL     1       6.369   5.165  14.911  0.00  0.00    +0.000 A 
ENDBRANCH  23  29
ENDBRANCH  19  23
ENDBRANCH   1  19
TORSDOF 5
ENDMDL
MODEL 3
REMARK VINA RESULT:      -8.6      1.917      2.968
REMARK  Name = 
REMARK  6 active torsions:
REMARK  status: ('A' for Active; 'I' for Inactive)
REMARK    1  A    between atoms: C_1  and  N_2
REMARK    2  A    between atoms: C_6  and  C_7
REMARK    3  A    between atoms: C_7  and  C_8
REMARK    4  A    between atoms: C_8  and  C_9
REMARK    5  A    between atoms: C_13  and  N_14
REMARK    6  A    between atoms: C_19  and  O_20
REMARK                            x       y       z     vdW  Elec       q    Type
REMARK                         _______ _______ _______ _____ _____    ______ ____
ROOT
ATOM      1  C   UNL     1       4.543   5.728  17.057  0.00  0.00    +0.000 A 
ATOM      2  C   UNL     1       4.218   7.059  16.721  0.00  0.00    +0.000 A 
ATOM      3  C   UNL     1       3.410   7.854  17.530  0.00  0.00    +0.000 A 
ATOM      4  C   UNL     1       2.788   7.298  18.633  0.00  0.00    +0.000 A 
ATOM      5  C   UNL     1       2.825   5.908  18.803  0.00  0.00    +0.000 A 
ATOM      6  C   UNL     1       3.830   5.181  18.145  0.00  0.00    +0.000 A 
ENDROOT
BRANCH   5   7
ATOM      7  N   UNL     1       1.604   5.191  19.191  0.00  0.00    +0.000 N 
ATOM      8  C   UNL     1       1.767   4.628  20.560  0.00  0.00    +0.000 C 
ATOM      9  C   UNL     1       2.406   3.315  20.260  0.00  0.00    +0.000 A 
ATOM     10  C   UNL     1       3.482   2.698  20.846  0.00  0.00    +0.000 A 
ATOM     11  N   UNL     1       4.164   1.710  20.207  0.00  0.00    +0.000 NA
ATOM     12  C   UNL     1       3.732   1.369  18.971  0.00  0.00    +0.000 A 
ATOM     13  C   UNL     1       2.650   1.900  18.307  0.00  0.00    +0.000 A 
ATOM     14  C   UNL     1       2.006   2.898  19.000  0.00  0.00    +0.000 A 
ATOM     15  C   UNL     1       1.333   4.056  18.382  0.00  0.00    +0.000 C 
ATOM     16  O   UNL     1       0.798   4.037  17.287  0.00  0.00    +0.000 OA
BRANCH  12  17
ATOM     17  O   UNL     1       4.590   0.549  18.309  0.00  0.00    +0.000 OA
ATOM     18  H   UNL     1       4.964   0.059  19.065  0.00  0.00    +0.000 HD
ENDBRANCH  12  17
ENDBRANCH   5   7
BRANCH   1  19
ATOM     19  C   UNL     1       5.667   4.894  16.261  0.00  0.00    +0.000 C 
ATOM     20  C   UNL     1       5.324   3.476  15.738  0.00  0.00    +0.000 C 
ATOM     21  O   UNL     1       5.537   3.868  14.363  0.00  0.00    +0.000 OA
ATOM     22  C   UNL     1       5.698   5.247  14.747  0.00  0.00    +0.000 C 
BRANCH  19  23
ATOM     23  C   UNL     1       7.083   4.964  16.875  0.00  0.00    +0.000 C 
BRANCH  23  29
ATOM     24  C   UNL     1       7.959   5.656  19.841  0.00  0.00    +0.000 C 
ATOM     25  N   UNL     1       7.922   6.543  18.715  0.00  0.00    +0.000 N 
ATOM     26  C   UNL     1       8.353   7.837  18.723  0.00  0.00    +0.000 A 
ATOM     27  N   UNL     1       8.187   8.365  17.537  0.00  0.00    +0.000 NA
ATOM     28  N   UNL     1       7.645   7.398  16.732  0.00  0.00    +0.000 NA
ATOM     29  C   UNL     1       7.499   6.291  17.429  0.00  0.00    +0.000 A 
ENDBRANCH  23  29
ENDBRANCH  19  23
ENDBRANCH   1  19
TORSDOF 5
ENDMDL
MODEL 4
REMARK VINA RESULT:      -8.6      2.152      3.140
REMARK  Name = 
REMARK  6 active torsions:
REMARK  status: ('A' for Active; 'I' for Inactive)
REMARK    1  A    between atoms: C_1  and  N_2
REMARK    2  A    between atoms: C_6  and  C_7
REMARK    3  A    between atoms: C_7  and  C_8
REMARK    4  A    between atoms: C_8  and  C_9
REMARK    5  A    between atoms: C_13  and  N_14
REMARK    6  A    between atoms: C_19  and  O_20
REMARK                            x       y       z     vdW  Elec       q    Type
REMARK                         _______ _______ _______ _____ _____    ______ ____
ROOT
ATOM      1  C   UNL     1       4.553   5.868  16.907  0.00  0.00    +0.000 A 
ATOM      2  C   UNL     1       4.247   7.230  16.699  0.00  0.00    +0.000 A 
ATOM      3  C   UNL     1       3.488   7.968  17.604  0.00  0.00    +0.000 A 
ATOM      4  C   UNL     1       2.895   7.332  18.679  0.00  0.00    +0.000 A 
ATOM      5  C   UNL     1       2.906   5.932  18.728  0.00  0.00    +0.000 A 
ATOM      6  C   UNL     1       3.869   5.244  17.971  0.00  0.00    +0.000 A 
ENDROOT
BRANCH   5   7
ATOM      7  N   UNL     1       1.684   5.209  19.101  0.00  0.00    +0.000 N 
ATOM      8  C   UNL     1       1.877   4.544  20.419  0.00  0.00    +0.000 C 
ATOM      9  C   UNL     1       2.481   3.246  20.006  0.00  0.00    +0.000 A 
ATOM     10  C   UNL     1       3.563   2.571  20.512  0.00  0.00    +0.000 A 
ATOM     11  N   UNL     1       4.207   1.621  19.783  0.00  0.00    +0.000 NA
ATOM     12  C   UNL     1       3.732   1.378  18.539  0.00  0.00    +0.000 A 
ATOM     13  C   UNL     1       2.641   1.974  17.950  0.00  0.00    +0.000 A 
ATOM     14  C   UNL     1       2.037   2.929  18.732  0.00  0.00    +0.000 A 
ATOM     15  C   UNL     1       1.368   4.140  18.220  0.00  0.00    +0.000 C 
ATOM     16  O   UNL     1       0.800   4.209  17.144  0.00  0.00    +0.000 OA
BRANCH  12  17
ATOM     17  O   UNL     1       4.555   0.595  17.794  0.00  0.00    +0.000 OA
ATOM     18  H   UNL     1       3.890   0.110  17.270  0.00  0.00    +0.000 HD
ENDBRANCH  12  17
ENDBRANCH   5   7
BRANCH   1  19
ATOM     19  C   UNL     1       5.626   5.084  15.999  0.00  0.00    +0.000 C 
ATOM     20  C   UNL     1       5.514   3.545  15.859  0.00  0.00    +0.000 C 
ATOM     21  O   UNL     1       5.307   3.631  14.431  0.00  0.00    +0.000 OA
ATOM     22  C   UNL     1       5.225   5.068  14.497  0.00  0.00    +0.000 C 
BRANCH  19  23
ATOM     23  C   UNL     1       7.089   5.549  16.177  0.00  0.00    +0.000 C 
BRANCH  23  29
ATOM     24  C   UNL     1       7.870   8.175  17.770  0.00  0.00    +0.000 C 
ATOM     25  N   UNL     1       7.863   6.828  18.262  0.00  0.00    +0.000 N 
ATOM     26  C   UNL     1       8.114   6.464  19.552  0.00  0.00    +0.000 A 
ATOM     27  N   UNL     1       8.021   5.164  19.670  0.00  0.00    +0.000 NA
ATOM     28  N   UNL     1       7.696   4.664  18.436  0.00  0.00    +0.000 NA
ATOM     29  C   UNL     1       7.581   5.661  17.585  0.00  0.00    +0.000 A 
ENDBRANCH  23  29
ENDBRANCH  19  23
ENDBRANCH   1  19
TORSDOF 5
ENDMDL
MODEL 5
REMARK VINA RESULT:      -8.5      1.218      1.300
REMARK  Name = 
REMARK  6 active torsions:
REMARK  status: ('A' for Active; 'I' for Inactive)
REMARK    1  A    between atoms: C_1  and  N_2
REMARK    2  A    between atoms: C_6  and  C_7
REMARK    3  A    between atoms: C_7  and  C_8
REMARK    4  A    between atoms: C_8  and  C_9
REMARK    5  A    between atoms: C_13  and  N_14
REMARK    6  A    between atoms: C_19  and  O_20
REMARK                            x       y       z     vdW  Elec       q    Type
REMARK                         _______ _______ _______ _____ _____    ______ ____
ROOT
ATOM      1  C   UNL     1       4.609   5.859  17.396  0.00  0.00    +0.000 A 
ATOM      2  C   UNL     1       4.272   7.149  16.932  0.00  0.00    +0.000 A 
ATOM      3  C   UNL     1       3.325   7.945  17.572  0.00  0.00    +0.000 A 
ATOM      4  C   UNL     1       2.584   7.423  18.616  0.00  0.00    +0.000 A 
ATOM      5  C   UNL     1       2.661   6.050  18.881  0.00  0.00    +0.000 A 
ATOM      6  C   UNL     1       3.780   5.340  18.412  0.00  0.00    +0.000 A 
ENDROOT
BRANCH   5   7
ATOM      7  N   UNL     1       1.433   5.291  19.149  0.00  0.00    +0.000 N 
ATOM      8  C   UNL     1       1.516   4.663  20.497  0.00  0.00    +0.000 C 
ATOM      9  C   UNL     1       2.201   3.379  20.178  0.00  0.00    +0.000 A 
ATOM     10  C   UNL     1       3.249   2.754  20.806  0.00  0.00    +0.000 A 
ATOM     11  N   UNL     1       3.994   1.812  20.168  0.00  0.00    +0.000 NA
ATOM     12  C   UNL     1       3.654   1.525  18.890  0.00  0.00    +0.000 A 
ATOM     13  C   UNL     1       2.609   2.068  18.181  0.00  0.00    +0.000 A 
ATOM     14  C   UNL     1       1.897   3.018  18.875  0.00  0.00    +0.000 A 
ATOM     15  C   UNL     1       1.243   4.193  18.269  0.00  0.00    +0.000 C 
ATOM     16  O   UNL     1       0.783   4.218  17.141  0.00  0.00    +0.000 OA
BRANCH  12  17
ATOM     17  O   UNL     1       4.573   0.755  18.250  0.00  0.00    +0.000 OA
ATOM     18  H   UNL     1       4.458   1.086  17.339  0.00  0.00    +0.000 HD
ENDBRANCH  12  17
ENDBRANCH   5   7
BRANCH   1  19
ATOM     19  C   UNL     1       5.867   5.042  16.814  0.00  0.00    +0.000 C 
ATOM     20  C   UNL     1       7.284   5.659  16.927  0.00  0.00    +0.000 C 
ATOM     21  O   UNL     1       7.757   4.568  17.750  0.00  0.00    +0.000 OA
ATOM     22  C   UNL     1       6.429   4.018  17.840  0.00  0.00    +0.000 C 
BRANCH  19  23
ATOM     23  C   UNL     1       5.628   4.376  15.440  0.00  0.00    +0.000 C 
BRANCH  23  29
ATOM     24  C   UNL     1       5.697   3.306  12.457  0.00  0.00    +0.000 C 
ATOM     25  N   UNL     1       6.607   4.228  13.073  0.00  0.00    +0.000 N 
ATOM     26  C   UNL     1       7.621   4.875  12.430  0.00  0.00    +0.000 A 
ATOM     27  N   UNL     1       8.257   5.647  13.274  0.00  0.00    +0.000 NA
ATOM     28  N   UNL     1       7.645   5.513  14.493  0.00  0.00    +0.000 NA
ATOM     29  C   UNL     1       6.638   4.673  14.377  0.00  0.00    +0.000 A 
ENDBRANCH  23  29
ENDBRANCH  19  23
ENDBRANCH   1  19
TORSDOF 5
ENDMDL
MODEL 6
REMARK VINA RESULT:      -8.4      4.066      7.439
REMARK  Name = 
REMARK  6 active torsions:
REMARK  status: ('A' for Active; 'I' for Inactive)
REMARK    1  A    between atoms: C_1  and  N_2
REMARK    2  A    between atoms: C_6  and  C_7
REMARK    3  A    between atoms: C_7  and  C_8
REMARK    4  A    between atoms: C_8  and  C_9
REMARK    5  A    between atoms: C_13  and  N_14
REMARK    6  A    between atoms: C_19  and  O_20
REMARK                            x       y       z     vdW  Elec       q    Type
REMARK                         _______ _______ _______ _____ _____    ______ ____
ROOT
ATOM      1  C   UNL     1       1.621   7.190  20.416  0.00  0.00    +0.000 A 
ATOM      2  C   UNL     1       1.226   5.961  20.985  0.00  0.00    +0.000 A 
ATOM      3  C   UNL     1       1.936   4.781  20.773  0.00  0.00    +0.000 A 
ATOM      4  C   UNL     1       2.986   4.767  19.874  0.00  0.00    +0.000 A 
ATOM      5  C   UNL     1       3.189   5.882  19.052  0.00  0.00    +0.000 A 
ATOM      6  C   UNL     1       2.647   7.115  19.451  0.00  0.00    +0.000 A 
ENDROOT
BRANCH   5   7
ATOM      7  N   UNL     1       3.475   5.690  17.624  0.00  0.00    +0.000 N 
ATOM      8  C   UNL     1       4.309   4.471  17.438  0.00  0.00    +0.000 C 
ATOM      9  C   UNL     1       5.681   5.027  17.606  0.00  0.00    +0.000 A 
ATOM     10  C   UNL     1       6.745   4.558  18.334  0.00  0.00    +0.000 A 
ATOM     11  N   UNL     1       7.773   5.374  18.690  0.00  0.00    +0.000 NA
ATOM     12  C   UNL     1       7.691   6.667  18.295  0.00  0.00    +0.000 A 
ATOM     13  C   UNL     1       6.689   7.230  17.542  0.00  0.00    +0.000 A 
ATOM     14  C   UNL     1       5.677   6.358  17.219  0.00  0.00    +0.000 A 
ATOM     15  C   UNL     1       4.259   6.732  17.059  0.00  0.00    +0.000 C 
ATOM     16  O   UNL     1       3.874   7.819  16.667  0.00  0.00    +0.000 OA
BRANCH  12  17
ATOM     17  O   UNL     1       8.625   7.465  18.877  0.00  0.00    +0.000 OA
ATOM     18  H   UNL     1       9.359   7.346  18.246  0.00  0.00    +0.000 HD
ENDBRANCH  12  17
ENDBRANCH   5   7
BRANCH   1  19
ATOM     19  C   UNL     1       0.955   8.589  20.853  0.00  0.00    +0.000 C 
ATOM     20  C   UNL     1      -0.382   8.575  21.636  0.00  0.00    +0.000 C 
ATOM     21  O   UNL     1       0.215   9.221  22.784  0.00  0.00    +0.000 OA
ATOM     22  C   UNL     1       1.528   9.117  22.199  0.00  0.00    +0.000 C 
BRANCH  19  23
ATOM     23  C   UNL     1       0.985   9.689  19.768  0.00  0.00    +0.000 C 
BRANCH  23  29
ATOM     24  C   UNL     1       0.045  12.374  21.165  0.00  0.00    +0.000 C 
ATOM     25  N   UNL     1      -0.643  11.636  20.145  0.00  0.00    +0.000 N 
ATOM     26  C   UNL     1      -1.798  12.030  19.537  0.00  0.00    +0.000 A 
ATOM     27  N   UNL     1      -2.157  11.137  18.650  0.00  0.00    +0.000 NA
ATOM     28  N   UNL     1      -1.216  10.140  18.670  0.00  0.00    +0.000 NA
ATOM     29  C   UNL     1      -0.290  10.442  19.555  0.00  0.00    +0.000 A 
ENDBRANCH  23  29
ENDBRANCH  19  23
ENDBRANCH   1  19
TORSDOF 5
ENDMDL
MODEL 7
REMARK VINA RESULT:      -8.1      4.257      7.122
REMARK  Name = 
REMARK  6 active torsions:
REMARK  status: ('A' for Active; 'I' for Inactive)
REMARK    1  A    between atoms: C_1  and  N_2
REMARK    2  A    between atoms: C_6  and  C_7
REMARK    3  A    between atoms: C_7  and  C_8
REMARK    4  A    between atoms: C_8  and  C_9
REMARK    5  A    between atoms: C_13  and  N_14
REMARK    6  A    between atoms: C_19  and  O_20
REMARK                            x       y       z     vdW  Elec       q    Type
REMARK                         _______ _______ _______ _____ _____    ______ ____
ROOT
ATOM      1  C   UNL     1       1.533   8.688  19.553  0.00  0.00    +0.000 A 
ATOM      2  C   UNL     1       2.186   9.118  18.378  0.00  0.00    +0.000 A 
ATOM      3  C   UNL     1       2.850   8.235  17.531  0.00  0.00    +0.000 A 
ATOM      4  C   UNL     1       3.000   6.912  17.903  0.00  0.00    +0.000 A 
ATOM      5  C   UNL     1       2.657   6.532  19.207  0.00  0.00    +0.000 A 
ATOM      6  C   UNL     1       1.776   7.351  19.932  0.00  0.00    +0.000 A 
ENDROOT
BRANCH   5   7
ATOM      7  N   UNL     1       3.551   5.648  19.966  0.00  0.00    +0.000 N 
ATOM      8  C   UNL     1       4.425   4.892  19.027  0.00  0.00    +0.000 C 
ATOM      9  C   UNL     1       3.570   3.711  18.720  0.00  0.00    +0.000 A 
ATOM     10  C   UNL     1       3.279   3.115  17.519  0.00  0.00    +0.000 A 
ATOM     11  N   UNL     1       2.193   2.311  17.373  0.00  0.00    +0.000 NA
ATOM     12  C   UNL     1       1.414   2.132  18.466  0.00  0.00    +0.000 A 
ATOM     13  C   UNL     1       1.630   2.655  19.719  0.00  0.00    +0.000 A 
ATOM     14  C   UNL     1       2.739   3.464  19.801  0.00  0.00    +0.000 A 
ATOM     15  C   UNL     1       2.865   4.636  20.689  0.00  0.00    +0.000 C 
ATOM     16  O   UNL     1       2.319   4.740  21.773  0.00  0.00    +0.000 OA
BRANCH  12  17
ATOM     17  O   UNL     1       0.236   1.513  18.189  0.00  0.00    +0.000 OA
ATOM     18  H   UNL     1       0.475   1.069  17.355  0.00  0.00    +0.000 HD
ENDBRANCH  12  17
ENDBRANCH   5   7
BRANCH   1  19
ATOM     19  C   UNL     1       0.563   9.657  20.397  0.00  0.00    +0.000 C 
ATOM     20  C   UNL     1      -0.580   9.033  21.236  0.00  0.00    +0.000 C 
ATOM     21  O   UNL     1      -0.032   9.546  22.472  0.00  0.00    +0.000 OA
ATOM     22  C   UNL     1       1.152  10.007  21.793  0.00  0.00    +0.000 C 
BRANCH  19  23
ATOM     23  C   UNL     1       0.112  10.932  19.651  0.00  0.00    +0.000 C 
BRANCH  23  29
ATOM     24  C   UNL     1      -2.650  12.440  20.034  0.00  0.00    +0.000 C 
ATOM     25  N   UNL     1      -2.297  11.521  18.990  0.00  0.00    +0.000 N 
ATOM     26  C   UNL     1      -3.084  11.209  17.922  0.00  0.00    +0.000 A 
ATOM     27  N   UNL     1      -2.467  10.347  17.155  0.00  0.00    +0.000 NA
ATOM     28  N   UNL     1      -1.247  10.093  17.726  0.00  0.00    +0.000 NA
ATOM     29  C   UNL     1      -1.129  10.810  18.823  0.00  0.00    +0.000 A 
ENDBRANCH  23  29
ENDBRANCH  19  23
ENDBRANCH   1  19
TORSDOF 5
ENDMDL
MODEL 8
REMARK VINA RESULT:      -8.1      4.112      7.363
REMARK  Name = 
REMARK  6 active torsions:
REMARK  status: ('A' for Active; 'I' for Inactive)
REMARK    1  A    between atoms: C_1  and  N_2
REMARK    2  A    between atoms: C_6  and  C_7
REMARK    3  A    between atoms: C_7  and  C_8
REMARK    4  A    between atoms: C_8  and  C_9
REMARK    5  A    between atoms: C_13  and  N_14
REMARK    6  A    between atoms: C_19  and  O_20
REMARK                            x       y       z     vdW  Elec       q    Type
REMARK                         _______ _______ _______ _____ _____    ______ ____
ROOT
ATOM      1  C   UNL     1       1.644   7.184  20.383  0.00  0.00    +0.000 A 
ATOM      2  C   UNL     1       1.222   5.962  20.949  0.00  0.00    +0.000 A 
ATOM      3  C   UNL     1       1.913   4.770  20.744  0.00  0.00    +0.000 A 
ATOM      4  C   UNL     1       2.971   4.736  19.854  0.00  0.00    +0.000 A 
ATOM      5  C   UNL     1       3.201   5.847  19.033  0.00  0.00    +0.000 A 
ATOM      6  C   UNL     1       2.677   7.090  19.426  0.00  0.00    +0.000 A 
ENDROOT
BRANCH   5   7
ATOM      7  N   UNL     1       3.495   5.649  17.608  0.00  0.00    +0.000 N 
ATOM      8  C   UNL     1       4.340   4.436  17.434  0.00  0.00    +0.000 C 
ATOM      9  C   UNL     1       5.707   5.005  17.605  0.00  0.00    +0.000 A 
ATOM     10  C   UNL     1       6.771   4.550  18.341  0.00  0.00    +0.000 A 
ATOM     11  N   UNL     1       7.790   5.377  18.698  0.00  0.00    +0.000 NA
ATOM     12  C   UNL     1       7.699   6.666  18.295  0.00  0.00    +0.000 A 
ATOM     13  C   UNL     1       6.696   7.217  17.533  0.00  0.00    +0.000 A 
ATOM     14  C   UNL     1       5.693   6.333  17.210  0.00  0.00    +0.000 A 
ATOM     15  C   UNL     1       4.273   6.694  17.041  0.00  0.00    +0.000 C 
ATOM     16  O   UNL     1       3.880   7.776  16.640  0.00  0.00    +0.000 OA
BRANCH  12  17
ATOM     17  O   UNL     1       8.623   7.476  18.877  0.00  0.00    +0.000 OA
ATOM     18  H   UNL     1       8.341   7.404  19.808  0.00  0.00    +0.000 HD
ENDBRANCH  12  17
ENDBRANCH   5   7
BRANCH   1  19
ATOM     19  C   UNL     1       0.998   8.594  20.813  0.00  0.00    +0.000 C 
ATOM     20  C   UNL     1      -0.366   8.606  21.547  0.00  0.00    +0.000 C 
ATOM     21  O   UNL     1       0.206   9.223  22.724  0.00  0.00    +0.000 OA
ATOM     22  C   UNL     1       1.535   9.092  22.185  0.00  0.00    +0.000 C 
BRANCH  19  23
ATOM     23  C   UNL     1       1.097   9.706  19.744  0.00  0.00    +0.000 C 
BRANCH  23  29
ATOM     24  C   UNL     1      -1.620  10.048  18.148  0.00  0.00    +0.000 C 
ATOM     25  N   UNL     1      -1.100  10.904  19.175  0.00  0.00    +0.000 N 
ATOM     26  C   UNL     1      -1.750  11.980  19.701  0.00  0.00    +0.000 A 
ATOM     27  N   UNL     1      -1.006  12.540  20.620  0.00  0.00    +0.000 NA
ATOM     28  N   UNL     1       0.154  11.813  20.706  0.00  0.00    +0.000 NA
ATOM     29  C   UNL     1       0.098  10.815  19.850  0.00  0.00    +0.000 A 
ENDBRANCH  23  29
ENDBRANCH  19  23
ENDBRANCH   1  19
TORSDOF 5
ENDMDL
MODEL 9
REMARK VINA RESULT:      -8.0      4.732      7.435
REMARK  Name = 
REMARK  6 active torsions:
REMARK  status: ('A' for Active; 'I' for Inactive)
REMARK    1  A    between atoms: C_1  and  N_2
REMARK    2  A    between atoms: C_6  and  C_7
REMARK    3  A    between atoms: C_7  and  C_8
REMARK    4  A    between atoms: C_8  and  C_9
REMARK    5  A    between atoms: C_13  and  N_14
REMARK    6  A    between atoms: C_19  and  O_20
REMARK                            x       y       z     vdW  Elec       q    Type
REMARK                         _______ _______ _______ _____ _____    ______ ____
ROOT
ATOM      1  C   UNL     1       1.299   8.812  19.563  0.00  0.00    +0.000 A 
ATOM      2  C   UNL     1       1.919   9.306  18.395  0.00  0.00    +0.000 A 
ATOM      3  C   UNL     1       2.623   8.481  17.522  0.00  0.00    +0.000 A 
ATOM      4  C   UNL     1       2.848   7.159  17.860  0.00  0.00    +0.000 A 
ATOM      5  C   UNL     1       2.535   6.729  19.156  0.00  0.00    +0.000 A 
ATOM      6  C   UNL     1       1.616   7.481  19.906  0.00  0.00    +0.000 A 
ENDROOT
BRANCH   5   7
ATOM      7  N   UNL     1       3.481   5.876  19.887  0.00  0.00    +0.000 N 
ATOM      8  C   UNL     1       4.357   5.156  18.922  0.00  0.00    +0.000 C 
ATOM      9  C   UNL     1       3.537   3.945  18.633  0.00  0.00    +0.000 A 
ATOM     10  C   UNL     1       3.237   3.342  17.438  0.00  0.00    +0.000 A 
ATOM     11  N   UNL     1       2.177   2.499  17.318  0.00  0.00    +0.000 NA
ATOM     12  C   UNL     1       1.435   2.288  18.431  0.00  0.00    +0.000 A 
ATOM     13  C   UNL     1       1.665   2.815  19.680  0.00  0.00    +0.000 A 
ATOM     14  C   UNL     1       2.746   3.664  19.736  0.00  0.00    +0.000 A 
ATOM     15  C   UNL     1       2.852   4.837  20.624  0.00  0.00    +0.000 C 
ATOM     16  O   UNL     1       2.331   4.918  21.723  0.00  0.00    +0.000 OA
BRANCH  12  17
ATOM     17  O   UNL     1       0.273   1.628  18.183  0.00  0.00    +0.000 OA
ATOM     18  H   UNL     1       0.146   1.865  17.246  0.00  0.00    +0.000 HD
ENDBRANCH  12  17
ENDBRANCH   5   7
BRANCH   1  19
ATOM     19  C   UNL     1       0.284   9.705  20.436  0.00  0.00    +0.000 C 
ATOM     20  C   UNL     1      -0.147   9.204  21.837  0.00  0.00    +0.000 C 
ATOM     21  O   UNL     1       0.435  10.354  22.493  0.00  0.00    +0.000 OA
ATOM     22  C   UNL     1       1.022  10.802  21.255  0.00  0.00    +0.000 C 
BRANCH  19  23
ATOM     23  C   UNL     1      -0.897  10.309  19.642  0.00  0.00    +0.000 C 
BRANCH  23  29
ATOM     24  C   UNL     1      -2.313  12.520  21.416  0.00  0.00    +0.000 C 
ATOM     25  N   UNL     1      -1.465  12.728  20.278  0.00  0.00    +0.000 N 
ATOM     26  C   UNL     1      -1.053  13.945  19.821  0.00  0.00    +0.000 A 
ATOM     27  N   UNL     1      -0.285  13.786  18.773  0.00  0.00    +0.000 NA
ATOM     28  N   UNL     1      -0.184  12.439  18.542  0.00  0.00    +0.000 NA
ATOM     29  C   UNL     1      -0.877  11.793  19.455  0.00  0.00    +0.000 A 
ENDBRANCH  23  29
ENDBRANCH  19  23
ENDBRANCH   1  19
TORSDOF 5
ENDMDL
