MODEL 1
REMARK VINA RESULT:      -9.2      0.000      0.000
REMARK  Name = 
REMARK  7 active torsions:
REMARK  status: ('A' for Active; 'I' for Inactive)
REMARK    1  A    between atoms: C_2  and  O_3
REMARK    2  A    between atoms: C_2  and  C_4
REMARK    3  A    between atoms: C_4  and  C_5
REMARK    4  A    between atoms: C_4  and  C_19
REMARK    5  A    between atoms: C_5  and  N_6
REMARK    6  A    between atoms: C_7  and  C_9
REMARK    7  A    between atoms: C_19  and  C_20
REMARK                            x       y       z     vdW  Elec       q    Type
REMARK                         _______ _______ _______ _____ _____    ______ ____
ROOT
ATOM      1  C   UNL     1       6.475   6.526  17.728  0.00  0.00    +0.000 C 
ENDROOT
BRANCH   1   3
ATOM      2  O   UNL     1       7.723   4.432  17.913  0.00  0.00    +0.000 OA
ATOM      3  C   UNL     1       7.129   5.375  18.455  0.00  0.00    +0.000 C 
BRANCH   3   4
ATOM      4  O   UNL     1       7.086   5.496  19.805  0.00  0.00    +0.000 OA
ATOM      5  H   UNL     1       6.287   5.093  20.201  0.00  0.00    +0.000 HD
ENDBRANCH   3   4
ENDBRANCH   1   3
BRANCH   1   6
ATOM      6  C   UNL     1       7.555   7.188  16.860  0.00  0.00    +0.000 C 
BRANCH   6   7
ATOM      7  N   UNL     1       7.843   8.554  17.232  0.00  0.00    +0.000 N 
ATOM      8  C   UNL     1       8.471   8.863  18.411  0.00  0.00    +0.000 C 
ATOM      9  O   UNL     1       8.919   8.025  19.181  0.00  0.00    +0.000 OA
ATOM     10  H   UNL     1       7.509   9.301  16.627  0.00  0.00    +0.000 HD
BRANCH   8  11
ATOM     11  C   UNL     1       8.652  10.306  18.654  0.00  0.00    +0.000 C 
ATOM     12  C   UNL     1       9.755  11.078  17.947  0.00  0.00    +0.000 C 
ATOM     13  C   UNL     1       9.727  12.590  17.769  0.00  0.00    +0.000 C 
ATOM     14  C   UNL     1       9.697  13.115  19.189  0.00  0.00    +0.000 A 
ATOM     15  C   UNL     1       9.529  14.432  19.589  0.00  0.00    +0.000 A 
ATOM     16  C   UNL     1       9.393  14.676  20.954  0.00  0.00    +0.000 A 
ATOM     17  C   UNL     1       9.438  13.625  21.891  0.00  0.00    +0.000 A 
ATOM     18  C   UNL     1       9.645  12.314  21.479  0.00  0.00    +0.000 A 
ATOM     19  C   UNL     1       9.777  12.063  20.128  0.00  0.00    +0.000 A 
ATOM     20  C   UNL     1       9.864  10.755  19.431  0.00  0.00    +0.000 C 
ENDBRANCH   8  11
ENDBRANCH   6   7
ENDBRANCH   1   6
BRANCH   1  21
ATOM     21  C   UNL     1       5.338   6.068  16.808  0.00  0.00    +0.000 C 
BRANCH  21  22
ATOM     22  C   UNL     1       4.378   5.102  17.442  0.00  0.00    +0.000 A 
ATOM     23  C   UNL     1       4.177   3.836  16.875  0.00  0.00    +0.000 A 
ATOM     24  C   UNL     1       3.417   2.882  17.546  0.00  0.00    +0.000 A 
ATOM     25  C   UNL     1       2.725   3.229  18.714  0.00  0.00    +0.000 A 
ATOM     26  C   UNL     1       1.931   2.303  19.388  0.00  0.00    +0.000 A 
ATOM     27  C   UNL     1       0.841   2.745  20.121  0.00  0.00    +0.000 A 
ATOM     28  C   UNL     1       0.802   4.070  20.530  0.00  0.00    +0.000 A 
ATOM     29  C   UNL     1       1.841   4.935  20.177  0.00  0.00    +0.000 A 
ATOM     30  C   UNL     1       2.757   4.552  19.184  0.00  0.00    +0.000 A 
ATOM     31  C   UNL     1       3.671   5.447  18.607  0.00  0.00    +0.000 A 
ENDBRANCH  21  22
ENDBRANCH   1  21
TORSDOF 7
ENDMDL
MODEL 2
REMARK VINA RESULT:      -9.1      0.792      1.213
REMARK  Name = 
REMARK  7 active torsions:
REMARK  status: ('A' for Active; 'I' for Inactive)
REMARK    1  A    between atoms: C_2  and  O_3
REMARK    2  A    between atoms: C_2  and  C_4
REMARK    3  A    between atoms: C_4  and  C_5
REMARK    4  A    between atoms: C_4  and  C_19
REMARK    5  A    between atoms: C_5  and  N_6
REMARK    6  A    between atoms: C_7  and  C_9
REMARK    7  A    between atoms: C_19  and  C_20
REMARK                            x       y       z     vdW  Elec       q    Type
REMARK                         _______ _______ _______ _____ _____    ______ ____
ROOT
ATOM      1  C   UNL     1       6.476   6.329  17.891  0.00  0.00    +0.000 C 
ENDROOT
BRANCH   1   3
ATOM      2  O   UNL     1       7.940   4.376  18.041  0.00  0.00    +0.000 OA
ATOM      3  C   UNL     1       7.307   5.285  18.599  0.00  0.00    +0.000 C 
BRANCH   3   4
ATOM      4  O   UNL     1       7.378   5.469  19.940  0.00  0.00    +0.000 OA
ATOM      5  H   UNL     1       6.837   6.222  20.253  0.00  0.00    +0.000 HD
ENDBRANCH   3   4
ENDBRANCH   1   3
BRANCH   1   6
ATOM      6  C   UNL     1       7.399   7.050  16.900  0.00  0.00    +0.000 C 
BRANCH   6   7
ATOM      7  N   UNL     1       7.676   8.423  17.255  0.00  0.00    +0.000 N 
ATOM      8  C   UNL     1       8.398   8.746  18.374  0.00  0.00    +0.000 C 
ATOM      9  O   UNL     1       8.940   7.919  19.094  0.00  0.00    +0.000 OA
ATOM     10  H   UNL     1       7.266   9.161  16.688  0.00  0.00    +0.000 HD
BRANCH   8  11
ATOM     11  C   UNL     1       8.554  10.192  18.611  0.00  0.00    +0.000 C 
ATOM     12  C   UNL     1       9.666  10.974  17.929  0.00  0.00    +0.000 C 
ATOM     13  C   UNL     1       9.625  12.484  17.740  0.00  0.00    +0.000 C 
ATOM     14  C   UNL     1       9.548  13.019  19.154  0.00  0.00    +0.000 A 
ATOM     15  C   UNL     1       9.353  14.337  19.540  0.00  0.00    +0.000 A 
ATOM     16  C   UNL     1       9.176  14.588  20.898  0.00  0.00    +0.000 A 
ATOM     17  C   UNL     1       9.208  13.544  21.844  0.00  0.00    +0.000 A 
ATOM     18  C   UNL     1       9.443  12.233  21.448  0.00  0.00    +0.000 A 
ATOM     19  C   UNL     1       9.615  11.974  20.103  0.00  0.00    +0.000 A 
ATOM     20  C   UNL     1       9.739  10.662  19.418  0.00  0.00    +0.000 C 
ENDBRANCH   8  11
ENDBRANCH   6   7
ENDBRANCH   1   6
BRANCH   1  21
ATOM     21  C   UNL     1       5.313   5.717  17.103  0.00  0.00    +0.000 C 
BRANCH  21  22
ATOM     22  C   UNL     1       4.174   5.231  17.954  0.00  0.00    +0.000 A 
ATOM     23  C   UNL     1       2.961   5.932  17.973  0.00  0.00    +0.000 A 
ATOM     24  C   UNL     1       1.855   5.397  18.628  0.00  0.00    +0.000 A 
ATOM     25  C   UNL     1       1.988   4.235  19.398  0.00  0.00    +0.000 A 
ATOM     26  C   UNL     1       0.905   3.696  20.090  0.00  0.00    +0.000 A 
ATOM     27  C   UNL     1       1.129   2.975  21.253  0.00  0.00    +0.000 A 
ATOM     28  C   UNL     1       2.388   2.436  21.474  0.00  0.00    +0.000 A 
ATOM     29  C   UNL     1       3.407   2.650  20.542  0.00  0.00    +0.000 A 
ATOM     30  C   UNL     1       3.247   3.632  19.551  0.00  0.00    +0.000 A 
ATOM     31  C   UNL     1       4.304   4.071  18.739  0.00  0.00    +0.000 A 
ENDBRANCH  21  22
ENDBRANCH   1  21
TORSDOF 7
ENDMDL
MODEL 3
REMARK VINA RESULT:      -9.1      5.565      8.156
REMARK  Name = 
REMARK  7 active torsions:
REMARK  status: ('A' for Active; 'I' for Inactive)
REMARK    1  A    between atoms: C_2  and  O_3
REMARK    2  A    between atoms: C_2  and  C_4
REMARK    3  A    between atoms: C_4  and  C_5
REMARK    4  A    between atoms: C_4  and  C_19
REMARK    5  A    between atoms: C_5  and  N_6
REMARK    6  A    between atoms: C_7  and  C_9
REMARK    7  A    between atoms: C_19  and  C_20
REMARK                            x       y       z     vdW  Elec       q    Type
REMARK                         _______ _______ _______ _____ _____    ______ ____
ROOT
ATOM      1  C   UNL     1       2.519   5.105  20.079  0.00  0.00    +0.000 C 
ENDROOT
BRANCH   1   3
ATOM      2  O   UNL     1       1.187   4.072  18.309  0.00  0.00    +0.000 OA
ATOM      3  C   UNL     1       1.334   4.367  19.504  0.00  0.00    +0.000 C 
BRANCH   3   4
ATOM      4  O   UNL     1       0.442   3.965  20.442  0.00  0.00    +0.000 OA
ATOM      5  H   UNL     1       0.696   3.129  20.882  0.00  0.00    +0.000 HD
ENDBRANCH   3   4
ENDBRANCH   1   3
BRANCH   1   6
ATOM      6  C   UNL     1       3.727   4.162  19.993  0.00  0.00    +0.000 C 
BRANCH   6   7
ATOM      7  N   UNL     1       4.520   4.341  18.798  0.00  0.00    +0.000 N 
ATOM      8  C   UNL     1       4.551   3.397  17.805  0.00  0.00    +0.000 C 
ATOM      9  O   UNL     1       3.850   2.395  17.800  0.00  0.00    +0.000 OA
ATOM     10  H   UNL     1       5.117   5.163  18.732  0.00  0.00    +0.000 HD
BRANCH   8  11
ATOM     11  C   UNL     1       5.441   3.718  16.675  0.00  0.00    +0.000 C 
ATOM     12  C   UNL     1       5.854   5.156  16.398  0.00  0.00    +0.000 C 
ATOM     13  C   UNL     1       7.091   5.523  15.590  0.00  0.00    +0.000 C 
ATOM     14  C   UNL     1       6.831   4.898  14.236  0.00  0.00    +0.000 A 
ATOM     15  C   UNL     1       7.712   4.821  13.168  0.00  0.00    +0.000 A 
ATOM     16  C   UNL     1       7.314   4.077  12.060  0.00  0.00    +0.000 A 
ATOM     17  C   UNL     1       6.059   3.439  12.022  0.00  0.00    +0.000 A 
ATOM     18  C   UNL     1       5.170   3.555  13.084  0.00  0.00    +0.000 A 
ATOM     19  C   UNL     1       5.558   4.287  14.187  0.00  0.00    +0.000 A 
ATOM     20  C   UNL     1       4.860   4.446  15.489  0.00  0.00    +0.000 C 
ENDBRANCH   8  11
ENDBRANCH   6   7
ENDBRANCH   1   6
BRANCH   1  21
ATOM     21  C   UNL     1       2.852   6.380  19.297  0.00  0.00    +0.000 C 
BRANCH  21  22
ATOM     22  C   UNL     1       2.000   7.566  19.652  0.00  0.00    +0.000 A 
ATOM     23  C   UNL     1       1.839   8.615  18.737  0.00  0.00    +0.000 A 
ATOM     24  C   UNL     1       0.924   9.633  18.994  0.00  0.00    +0.000 A 
ATOM     25  C   UNL     1       0.272   9.696  20.232  0.00  0.00    +0.000 A 
ATOM     26  C   UNL     1      -0.624  10.722  20.528  0.00  0.00    +0.000 A 
ATOM     27  C   UNL     1      -0.790  11.124  21.844  0.00  0.00    +0.000 A 
ATOM     28  C   UNL     1      -0.422  10.254  22.861  0.00  0.00    +0.000 A 
ATOM     29  C   UNL     1       0.130   9.010  22.544  0.00  0.00    +0.000 A 
ATOM     30  C   UNL     1       0.575   8.761  21.236  0.00  0.00    +0.000 A 
ATOM     31  C   UNL     1       1.352   7.642  20.898  0.00  0.00    +0.000 A 
ENDBRANCH  21  22
ENDBRANCH   1  21
TORSDOF 7
ENDMDL
MODEL 4
REMARK VINA RESULT:      -8.9      5.513      7.672
REMARK  Name = 
REMARK  7 active torsions:
REMARK  status: ('A' for Active; 'I' for Inactive)
REMARK    1  A    between atoms: C_2  and  O_3
REMARK    2  A    between atoms: C_2  and  C_4
REMARK    3  A    between atoms: C_4  and  C_5
REMARK    4  A    between atoms: C_4  and  C_19
REMARK    5  A    between atoms: C_5  and  N_6
REMARK    6  A    between atoms: C_7  and  C_9
REMARK    7  A    between atoms: C_19  and  C_20
REMARK                            x       y       z     vdW  Elec       q    Type
REMARK                         _______ _______ _______ _____ _____    ______ ____
ROOT
ATOM      1  C   UNL     1       1.217   4.143  20.614  0.00  0.00    +0.000 C 
ENDROOT
BRANCH   1   3
ATOM      2  O   UNL     1       3.005   2.769  21.558  0.00  0.00    +0.000 OA
ATOM      3  C   UNL     1       1.803   3.063  21.491  0.00  0.00    +0.000 C 
BRANCH   3   4
ATOM      4  O   UNL     1       0.888   2.464  22.294  0.00  0.00    +0.000 OA
ATOM      5  H   UNL     1       0.997   2.694  23.239  0.00  0.00    +0.000 HD
ENDBRANCH   3   4
ENDBRANCH   1   3
BRANCH   1   6
ATOM      6  C   UNL     1       2.187   5.333  20.650  0.00  0.00    +0.000 C 
BRANCH   6   7
ATOM      7  N   UNL     1       1.596   6.550  21.159  0.00  0.00    +0.000 N 
ATOM      8  C   UNL     1       1.727   7.745  20.500  0.00  0.00    +0.000 C 
ATOM      9  O   UNL     1       2.256   7.860  19.404  0.00  0.00    +0.000 OA
ATOM     10  H   UNL     1       1.128   6.519  22.062  0.00  0.00    +0.000 HD
BRANCH   8  11
ATOM     11  C   UNL     1       1.099   8.894  21.176  0.00  0.00    +0.000 C 
ATOM     12  C   UNL     1      -0.172   8.712  21.993  0.00  0.00    +0.000 C 
ATOM     13  C   UNL     1      -0.613   9.693  23.071  0.00  0.00    +0.000 C 
ATOM     14  C   UNL     1      -0.785  10.996  22.319  0.00  0.00    +0.000 A 
ATOM     15  C   UNL     1      -1.047  12.245  22.861  0.00  0.00    +0.000 A 
ATOM     16  C   UNL     1      -1.030  13.336  21.996  0.00  0.00    +0.000 A 
ATOM     17  C   UNL     1      -0.768  13.174  20.621  0.00  0.00    +0.000 A 
ATOM     18  C   UNL     1      -0.544  11.912  20.085  0.00  0.00    +0.000 A 
ATOM     19  C   UNL     1      -0.556  10.825  20.935  0.00  0.00    +0.000 A 
ATOM     20  C   UNL     1      -0.213   9.411  20.640  0.00  0.00    +0.000 C 
ENDBRANCH   8  11
ENDBRANCH   6   7
ENDBRANCH   1   6
BRANCH   1  21
ATOM     21  C   UNL     1       1.064   3.697  19.157  0.00  0.00    +0.000 C 
BRANCH  21  22
ATOM     22  C   UNL     1       2.332   3.752  18.353  0.00  0.00    +0.000 A 
ATOM     23  C   UNL     1       3.061   2.581  18.108  0.00  0.00    +0.000 A 
ATOM     24  C   UNL     1       4.143   2.601  17.231  0.00  0.00    +0.000 A 
ATOM     25  C   UNL     1       4.602   3.817  16.709  0.00  0.00    +0.000 A 
ATOM     26  C   UNL     1       5.702   3.870  15.855  0.00  0.00    +0.000 A 
ATOM     27  C   UNL     1       6.489   5.011  15.826  0.00  0.00    +0.000 A 
ATOM     28  C   UNL     1       5.955   6.204  16.290  0.00  0.00    +0.000 A 
ATOM     29  C   UNL     1       4.653   6.230  16.797  0.00  0.00    +0.000 A 
ATOM     30  C   UNL     1       4.003   5.024  17.106  0.00  0.00    +0.000 A 
ATOM     31  C   UNL     1       2.806   4.971  17.836  0.00  0.00    +0.000 A 
ENDBRANCH  21  22
ENDBRANCH   1  21
TORSDOF 7
ENDMDL
MODEL 5
REMARK VINA RESULT:      -8.9      4.832      5.771
REMARK  Name = 
REMARK  7 active torsions:
REMARK  status: ('A' for Active; 'I' for Inactive)
REMARK    1  A    between atoms: C_2  and  O_3
REMARK    2  A    between atoms: C_2  and  C_4
REMARK    3  A    between atoms: C_4  and  C_5
REMARK    4  A    between atoms: C_4  and  C_19
REMARK    5  A    between atoms: C_5  and  N_6
REMARK    6  A    between atoms: C_7  and  C_9
REMARK    7  A    between atoms: C_19  and  C_20
REMARK                            x       y       z     vdW  Elec       q    Type
REMARK                         _______ _______ _______ _____ _____    ______ ____
ROOT
ATOM      1  C   UNL     1       5.917   4.948  15.507  0.00  0.00    +0.000 C 
ENDROOT
BRANCH   1   3
ATOM      2  O   UNL     1       7.993   5.290  14.262  0.00  0.00    +0.000 OA
ATOM      3  C   UNL     1       6.947   4.650  14.444  0.00  0.00    +0.000 C 
BRANCH   3   4
ATOM      4  O   UNL     1       6.670   3.536  13.723  0.00  0.00    +0.000 OA
ATOM      5  H   UNL     1       5.713   3.338  13.672  0.00  0.00    +0.000 HD
ENDBRANCH   3   4
ENDBRANCH   1   3
BRANCH   1   6
ATOM      6  C   UNL     1       5.189   6.233  15.088  0.00  0.00    +0.000 C 
BRANCH   6   7
ATOM      7  N   UNL     1       4.364   6.800  16.129  0.00  0.00    +0.000 N 
ATOM      8  C   UNL     1       4.896   7.230  17.318  0.00  0.00    +0.000 C 
ATOM      9  O   UNL     1       6.096   7.260  17.551  0.00  0.00    +0.000 OA
ATOM     10  H   UNL     1       3.356   6.818  15.992  0.00  0.00    +0.000 HD
BRANCH   8  11
ATOM     11  C   UNL     1       3.910   7.744  18.285  0.00  0.00    +0.000 C 
ATOM     12  C   UNL     1       2.728   6.890  18.715  0.00  0.00    +0.000 C 
ATOM     13  C   UNL     1       1.955   7.129  20.005  0.00  0.00    +0.000 C 
ATOM     14  C   UNL     1       1.415   8.534  19.841  0.00  0.00    +0.000 A 
ATOM     15  C   UNL     1       0.751   9.291  20.795  0.00  0.00    +0.000 A 
ATOM     16  C   UNL     1       0.462  10.615  20.477  0.00  0.00    +0.000 A 
ATOM     17  C   UNL     1       0.820  11.161  19.228  0.00  0.00    +0.000 A 
ATOM     18  C   UNL     1       1.451  10.381  18.266  0.00  0.00    +0.000 A 
ATOM     19  C   UNL     1       1.745   9.068  18.575  0.00  0.00    +0.000 A 
ATOM     20  C   UNL     1       2.527   8.081  17.788  0.00  0.00    +0.000 C 
ENDBRANCH   8  11
ENDBRANCH   6   7
ENDBRANCH   1   6
BRANCH   1  21
ATOM     21  C   UNL     1       4.876   3.833  15.645  0.00  0.00    +0.000 C 
BRANCH  21  22
ATOM     22  C   UNL     1       4.291   3.695  17.022  0.00  0.00    +0.000 A 
ATOM     23  C   UNL     1       5.128   3.709  18.146  0.00  0.00    +0.000 A 
ATOM     24  C   UNL     1       4.581   3.747  19.426  0.00  0.00    +0.000 A 
ATOM     25  C   UNL     1       3.197   3.618  19.602  0.00  0.00    +0.000 A 
ATOM     26  C   UNL     1       2.625   3.621  20.873  0.00  0.00    +0.000 A 
ATOM     27  C   UNL     1       1.442   2.931  21.090  0.00  0.00    +0.000 A 
ATOM     28  C   UNL     1       0.635   2.628  20.003  0.00  0.00    +0.000 A 
ATOM     29  C   UNL     1       1.037   2.997  18.717  0.00  0.00    +0.000 A 
ATOM     30  C   UNL     1       2.363   3.402  18.492  0.00  0.00    +0.000 A 
ATOM     31  C   UNL     1       2.904   3.554  17.207  0.00  0.00    +0.000 A 
ENDBRANCH  21  22
ENDBRANCH   1  21
TORSDOF 7
ENDMDL
MODEL 6
REMARK VINA RESULT:      -8.8      4.982      7.565
REMARK  Name = 
REMARK  7 active torsions:
REMARK  status: ('A' for Active; 'I' for Inactive)
REMARK    1  A    between atoms: C_2  and  O_3
REMARK    2  A    between atoms: C_2  and  C_4
REMARK    3  A    between atoms: C_4  and  C_5
REMARK    4  A    between atoms: C_4  and  C_19
REMARK    5  A    between atoms: C_5  and  N_6
REMARK    6  A    between atoms: C_7  and  C_9
REMARK    7  A    between atoms: C_19  and  C_20
REMARK                            x       y       z     vdW  Elec       q    Type
REMARK                         _______ _______ _______ _____ _____    ______ ____
ROOT
ATOM      1  C   UNL     1       2.841   3.878  20.390  0.00  0.00    +0.000 C 
ENDROOT
BRANCH   1   3
ATOM      2  O   UNL     1       1.807   2.431  22.066  0.00  0.00    +0.000 OA
ATOM      3  C   UNL     1       1.729   3.060  21.001  0.00  0.00    +0.000 C 
BRANCH   3   4
ATOM      4  O   UNL     1       0.565   3.130  20.309  0.00  0.00    +0.000 OA
ATOM      5  H   UNL     1       0.541   3.872  19.672  0.00  0.00    +0.000 HD
ENDBRANCH   3   4
ENDBRANCH   1   3
BRANCH   1   6
ATOM      6  C   UNL     1       4.003   2.919  20.095  0.00  0.00    +0.000 C 
BRANCH   6   7
ATOM      7  N   UNL     1       4.698   3.210  18.862  0.00  0.00    +0.000 N 
ATOM      8  C   UNL     1       5.629   4.213  18.778  0.00  0.00    +0.000 C 
ATOM      9  O   UNL     1       6.011   4.865  19.739  0.00  0.00    +0.000 OA
ATOM     10  H   UNL     1       4.437   2.693  18.026  0.00  0.00    +0.000 HD
BRANCH   8  11
ATOM     11  C   UNL     1       6.213   4.402  17.439  0.00  0.00    +0.000 C 
ATOM     12  C   UNL     1       6.439   5.799  16.881  0.00  0.00    +0.000 C 
ATOM     13  C   UNL     1       7.429   6.097  15.763  0.00  0.00    +0.000 C 
ATOM     14  C   UNL     1       6.920   5.265  14.605  0.00  0.00    +0.000 A 
ATOM     15  C   UNL     1       7.540   5.069  13.380  0.00  0.00    +0.000 A 
ATOM     16  C   UNL     1       6.961   4.151  12.507  0.00  0.00    +0.000 A 
ATOM     17  C   UNL     1       5.784   3.459  12.852  0.00  0.00    +0.000 A 
ATOM     18  C   UNL     1       5.151   3.692  14.067  0.00  0.00    +0.000 A 
ATOM     19  C   UNL     1       5.720   4.598  14.940  0.00  0.00    +0.000 A 
ATOM     20  C   UNL     1       5.324   4.917  16.335  0.00  0.00    +0.000 C 
ENDBRANCH   8  11
ENDBRANCH   6   7
ENDBRANCH   1   6
BRANCH   1  21
ATOM     21  C   UNL     1       2.425   4.543  19.073  0.00  0.00    +0.000 C 
BRANCH  21  22
ATOM     22  C   UNL     1       2.164   6.019  19.179  0.00  0.00    +0.000 A 
ATOM     23  C   UNL     1       2.522   6.873  18.127  0.00  0.00    +0.000 A 
ATOM     24  C   UNL     1       2.135   8.211  18.151  0.00  0.00    +0.000 A 
ATOM     25  C   UNL     1       1.521   8.745  19.291  0.00  0.00    +0.000 A 
ATOM     26  C   UNL     1       1.153  10.088  19.353  0.00  0.00    +0.000 A 
ATOM     27  C   UNL     1       1.119  10.729  20.582  0.00  0.00    +0.000 A 
ATOM     28  C   UNL     1       1.022   9.963  21.734  0.00  0.00    +0.000 A 
ATOM     29  C   UNL     1       0.986   8.569  21.639  0.00  0.00    +0.000 A 
ATOM     30  C   UNL     1       1.337   7.946  20.431  0.00  0.00    +0.000 A 
ATOM     31  C   UNL     1       1.558   6.565  20.325  0.00  0.00    +0.000 A 
ENDBRANCH  21  22
ENDBRANCH   1  21
TORSDOF 7
ENDMDL
MODEL 7
REMARK VINA RESULT:      -8.7      5.340      7.986
REMARK  Name = 
REMARK  7 active torsions:
REMARK  status: ('A' for Active; 'I' for Inactive)
REMARK    1  A    between atoms: C_2  and  O_3
REMARK    2  A    between atoms: C_2  and  C_4
REMARK    3  A    between atoms: C_4  and  C_5
REMARK    4  A    between atoms: C_4  and  C_19
REMARK    5  A    between atoms: C_5  and  N_6
REMARK    6  A    between atoms: C_7  and  C_9
REMARK    7  A    between atoms: C_19  and  C_20
REMARK                            x       y       z     vdW  Elec       q    Type
REMARK                         _______ _______ _______ _____ _____    ______ ____
ROOT
ATOM      1  C   UNL     1       2.730   4.216  19.516  0.00  0.00    +0.000 C 
ENDROOT
BRANCH   1   3
ATOM      2  O   UNL     1       0.599   3.019  19.502  0.00  0.00    +0.000 OA
ATOM      3  C   UNL     1       1.522   3.568  18.883  0.00  0.00    +0.000 C 
BRANCH   3   4
ATOM      4  O   UNL     1       1.480   3.706  17.535  0.00  0.00    +0.000 OA
ATOM      5  H   UNL     1       1.351   4.632  17.247  0.00  0.00    +0.000 HD
ENDBRANCH   3   4
ENDBRANCH   1   3
BRANCH   1   6
ATOM      6  C   UNL     1       3.908   3.247  19.345  0.00  0.00    +0.000 C 
BRANCH   6   7
ATOM      7  N   UNL     1       4.594   3.384  18.080  0.00  0.00    +0.000 N 
ATOM      8  C   UNL     1       5.815   4.001  17.985  0.00  0.00    +0.000 C 
ATOM      9  O   UNL     1       6.455   4.389  18.952  0.00  0.00    +0.000 OA
ATOM     10  H   UNL     1       4.121   3.068  17.237  0.00  0.00    +0.000 HD
BRANCH   8  11
ATOM     11  C   UNL     1       6.356   4.091  16.618  0.00  0.00    +0.000 C 
ATOM     12  C   UNL     1       6.734   5.438  16.021  0.00  0.00    +0.000 C 
ATOM     13  C   UNL     1       7.701   5.587  14.854  0.00  0.00    +0.000 C 
ATOM     14  C   UNL     1       7.035   4.811  13.738  0.00  0.00    +0.000 A 
ATOM     15  C   UNL     1       7.567   4.517  12.491  0.00  0.00    +0.000 A 
ATOM     16  C   UNL     1       6.834   3.669  11.665  0.00  0.00    +0.000 A 
ATOM     17  C   UNL     1       5.595   3.141  12.076  0.00  0.00    +0.000 A 
ATOM     18  C   UNL     1       5.055   3.473  13.312  0.00  0.00    +0.000 A 
ATOM     19  C   UNL     1       5.776   4.311  14.139  0.00  0.00    +0.000 A 
ATOM     20  C   UNL     1       5.490   4.701  15.544  0.00  0.00    +0.000 C 
ENDBRANCH   8  11
ENDBRANCH   6   7
ENDBRANCH   1   6
BRANCH   1  21
ATOM     21  C   UNL     1       3.102   5.543  18.847  0.00  0.00    +0.000 C 
BRANCH  21  22
ATOM     22  C   UNL     1       2.340   6.732  19.360  0.00  0.00    +0.000 A 
ATOM     23  C   UNL     1       1.767   6.702  20.638  0.00  0.00    +0.000 A 
ATOM     24  C   UNL     1       1.204   7.855  21.179  0.00  0.00    +0.000 A 
ATOM     25  C   UNL     1       1.070   9.007  20.394  0.00  0.00    +0.000 A 
ATOM     26  C   UNL     1       0.481  10.165  20.900  0.00  0.00    +0.000 A 
ATOM     27  C   UNL     1      -0.171  11.032  20.037  0.00  0.00    +0.000 A 
ATOM     28  C   UNL     1       0.131  10.981  18.683  0.00  0.00    +0.000 A 
ATOM     29  C   UNL     1       1.059  10.048  18.214  0.00  0.00    +0.000 A 
ATOM     30  C   UNL     1       1.460   8.989  19.044  0.00  0.00    +0.000 A 
ATOM     31  C   UNL     1       2.191   7.888  18.573  0.00  0.00    +0.000 A 
ENDBRANCH  21  22
ENDBRANCH   1  21
TORSDOF 7
ENDMDL
MODEL 8
REMARK VINA RESULT:      -8.7      5.572      8.255
REMARK  Name = 
REMARK  7 active torsions:
REMARK  status: ('A' for Active; 'I' for Inactive)
REMARK    1  A    between atoms: C_2  and  O_3
REMARK    2  A    between atoms: C_2  and  C_4
REMARK    3  A    between atoms: C_4  and  C_5
REMARK    4  A    between atoms: C_4  and  C_19
REMARK    5  A    between atoms: C_5  and  N_6
REMARK    6  A    between atoms: C_7  and  C_9
REMARK    7  A    between atoms: C_19  and  C_20
REMARK                            x       y       z     vdW  Elec       q    Type
REMARK                         _______ _______ _______ _____ _____    ______ ____
ROOT
ATOM      1  C   UNL     1       2.460   5.069  20.100  0.00  0.00    +0.000 C 
ENDROOT
BRANCH   1   3
ATOM      2  O   UNL     1       1.240   4.098  18.217  0.00  0.00    +0.000 OA
ATOM      3  C   UNL     1       1.337   4.310  19.434  0.00  0.00    +0.000 C 
BRANCH   3   4
ATOM      4  O   UNL     1       0.445   3.787  20.312  0.00  0.00    +0.000 OA
ATOM      5  H   UNL     1       0.541   4.146  21.217  0.00  0.00    +0.000 HD
ENDBRANCH   3   4
ENDBRANCH   1   3
BRANCH   1   6
ATOM      6  C   UNL     1       3.709   4.179  20.037  0.00  0.00    +0.000 C 
BRANCH   6   7
ATOM      7  N   UNL     1       4.495   4.363  18.838  0.00  0.00    +0.000 N 
ATOM      8  C   UNL     1       4.574   3.394  17.872  0.00  0.00    +0.000 C 
ATOM      9  O   UNL     1       3.923   2.359  17.896  0.00  0.00    +0.000 OA
ATOM     10  H   UNL     1       5.050   5.211  18.749  0.00  0.00    +0.000 HD
BRANCH   8  11
ATOM     11  C   UNL     1       5.449   3.726  16.734  0.00  0.00    +0.000 C 
ATOM     12  C   UNL     1       5.848   5.168  16.459  0.00  0.00    +0.000 C 
ATOM     13  C   UNL     1       7.072   5.548  15.638  0.00  0.00    +0.000 C 
ATOM     14  C   UNL     1       6.803   4.926  14.285  0.00  0.00    +0.000 A 
ATOM     15  C   UNL     1       7.673   4.860  13.207  0.00  0.00    +0.000 A 
ATOM     16  C   UNL     1       7.268   4.117  12.100  0.00  0.00    +0.000 A 
ATOM     17  C   UNL     1       6.018   3.469  12.074  0.00  0.00    +0.000 A 
ATOM     18  C   UNL     1       5.140   3.574  13.145  0.00  0.00    +0.000 A 
ATOM     19  C   UNL     1       5.534   4.305  14.248  0.00  0.00    +0.000 A 
ATOM     20  C   UNL     1       4.849   4.453  15.558  0.00  0.00    +0.000 C 
ENDBRANCH   8  11
ENDBRANCH   6   7
ENDBRANCH   1   6
BRANCH   1  21
ATOM     21  C   UNL     1       2.778   6.389  19.389  0.00  0.00    +0.000 C 
BRANCH  21  22
ATOM     22  C   UNL     1       1.935   7.551  19.832  0.00  0.00    +0.000 A 
ATOM     23  C   UNL     1       1.418   7.589  21.134  0.00  0.00    +0.000 A 
ATOM     24  C   UNL     1       0.777   8.735  21.598  0.00  0.00    +0.000 A 
ATOM     25  C   UNL     1       0.510   9.795  20.723  0.00  0.00    +0.000 A 
ATOM     26  C   UNL     1      -0.158  10.939  21.153  0.00  0.00    +0.000 A 
ATOM     27  C   UNL     1      -0.919  11.665  20.249  0.00  0.00    +0.000 A 
ATOM     28  C   UNL     1      -0.669  11.517  18.893  0.00  0.00    +0.000 A 
ATOM     29  C   UNL     1       0.319  10.627  18.463  0.00  0.00    +0.000 A 
ATOM     30  C   UNL     1       0.845   9.686  19.363  0.00  0.00    +0.000 A 
ATOM     31  C   UNL     1       1.652   8.613  18.955  0.00  0.00    +0.000 A 
ENDBRANCH  21  22
ENDBRANCH   1  21
TORSDOF 7
ENDMDL
MODEL 9
REMARK VINA RESULT:      -8.7      5.240      7.866
REMARK  Name = 
REMARK  7 active torsions:
REMARK  status: ('A' for Active; 'I' for Inactive)
REMARK    1  A    between atoms: C_2  and  O_3
REMARK    2  A    between atoms: C_2  and  C_4
REMARK    3  A    between atoms: C_4  and  C_5
REMARK    4  A    between atoms: C_4  and  C_19
REMARK    5  A    between atoms: C_5  and  N_6
REMARK    6  A    between atoms: C_7  and  C_9
REMARK    7  A    between atoms: C_19  and  C_20
REMARK                            x       y       z     vdW  Elec       q    Type
REMARK                         _______ _______ _______ _____ _____    ______ ____
ROOT
ATOM      1  C   UNL     1       2.674   4.582  19.472  0.00  0.00    +0.000 C 
ENDROOT
BRANCH   1   3
ATOM      2  O   UNL     1       1.452   2.805  18.321  0.00  0.00    +0.000 OA
ATOM      3  C   UNL     1       1.512   3.650  19.226  0.00  0.00    +0.000 C 
BRANCH   3   4
ATOM      4  O   UNL     1       0.530   3.755  20.155  0.00  0.00    +0.000 OA
ATOM      5  H   UNL     1      -0.193   4.356  19.883  0.00  0.00    +0.000 HD
ENDBRANCH   3   4
ENDBRANCH   1   3
BRANCH   1   6
ATOM      6  C   UNL     1       3.955   3.739  19.404  0.00  0.00    +0.000 C 
BRANCH   6   7
ATOM      7  N   UNL     1       4.626   3.803  18.126  0.00  0.00    +0.000 N 
ATOM      8  C   UNL     1       5.925   4.229  18.014  0.00  0.00    +0.000 C 
ATOM      9  O   UNL     1       6.638   4.490  18.973  0.00  0.00    +0.000 OA
ATOM     10  H   UNL     1       4.093   3.584  17.288  0.00  0.00    +0.000 HD
BRANCH   8  11
ATOM     11  C   UNL     1       6.443   4.271  16.636  0.00  0.00    +0.000 C 
ATOM     12  C   UNL     1       6.797   5.597  15.981  0.00  0.00    +0.000 C 
ATOM     13  C   UNL     1       7.743   5.711  14.793  0.00  0.00    +0.000 C 
ATOM     14  C   UNL     1       7.069   4.885  13.719  0.00  0.00    +0.000 A 
ATOM     15  C   UNL     1       7.585   4.548  12.477  0.00  0.00    +0.000 A 
ATOM     16  C   UNL     1       6.849   3.659  11.696  0.00  0.00    +0.000 A 
ATOM     17  C   UNL     1       5.623   3.134  12.147  0.00  0.00    +0.000 A 
ATOM     18  C   UNL     1       5.098   3.509  13.378  0.00  0.00    +0.000 A 
ATOM     19  C   UNL     1       5.822   4.386  14.160  0.00  0.00    +0.000 A 
ATOM     20  C   UNL     1       5.554   4.828  15.552  0.00  0.00    +0.000 C 
ENDBRANCH   8  11
ENDBRANCH   6   7
ENDBRANCH   1   6
BRANCH   1  21
ATOM     21  C   UNL     1       2.773   5.687  18.415  0.00  0.00    +0.000 C 
BRANCH  21  22
ATOM     22  C   UNL     1       2.217   7.014  18.849  0.00  0.00    +0.000 A 
ATOM     23  C   UNL     1       2.163   8.083  17.946  0.00  0.00    +0.000 A 
ATOM     24  C   UNL     1       1.502   9.259  18.293  0.00  0.00    +0.000 A 
ATOM     25  C   UNL     1       1.021   9.436  19.596  0.00  0.00    +0.000 A 
ATOM     26  C   UNL     1       0.384  10.615  19.979  0.00  0.00    +0.000 A 
ATOM     27  C   UNL     1       0.451  11.028  21.301  0.00  0.00    +0.000 A 
ATOM     28  C   UNL     1       0.754  10.092  22.280  0.00  0.00    +0.000 A 
ATOM     29  C   UNL     1       1.010   8.768  21.917  0.00  0.00    +0.000 A 
ATOM     30  C   UNL     1       1.246   8.449  20.570  0.00  0.00    +0.000 A 
ATOM     31  C   UNL     1       1.743   7.203  20.160  0.00  0.00    +0.000 A 
ENDBRANCH  21  22
ENDBRANCH   1  21
TORSDOF 7
ENDMDL
