MODEL 1
REMARK VINA RESULT:      -8.9      0.000      0.000
REMARK  Name = 
REMARK  2 active torsions:
REMARK  status: ('A' for Active; 'I' for Inactive)
REMARK    1  A    between atoms: C_2  and  C_3
REMARK    2  A    between atoms: C_16  and  C_17
REMARK                            x       y       z     vdW  Elec       q    Type
REMARK                         _______ _______ _______ _____ _____    ______ ____
ROOT
ATOM      1  O   UNL     1       6.006   3.590  20.064  0.00  0.00    +0.000 OA
ATOM      2  C   UNL     1       5.430   4.042  19.079  0.00  0.00    +0.000 C 
ATOM      3  N   UNL     1       6.058   4.899  18.164  0.00  0.00    +0.000 N 
ATOM      4  C   UNL     1       7.487   5.210  18.339  0.00  0.00    +0.000 C 
ATOM      5  C   UNL     1       7.772   6.710  18.440  0.00  0.00    +0.000 C 
ATOM      6  C   UNL     1       7.031   7.549  17.403  0.00  0.00    +0.000 C 
ATOM      7  C   UNL     1       5.562   7.161  17.321  0.00  0.00    +0.000 C 
ATOM      8  C   UNL     1       5.372   5.660  17.104  0.00  0.00    +0.000 C 
ENDROOT
BRANCH   8   9
ATOM      9  C   UNL     1       5.817   5.177  15.743  0.00  0.00    +0.000 A 
ATOM     10  N   UNL     1       6.838   5.625  15.040  0.00  0.00    +0.000 NA
ATOM     11  C   UNL     1       6.824   4.912  13.866  0.00  0.00    +0.000 A 
ATOM     12  C   UNL     1       7.696   4.975  12.766  0.00  0.00    +0.000 A 
ATOM     13  C   UNL     1       7.455   4.135  11.669  0.00  0.00    +0.000 A 
ATOM     14  C   UNL     1       6.371   3.256  11.664  0.00  0.00    +0.000 A 
ATOM     15  C   UNL     1       5.493   3.179  12.751  0.00  0.00    +0.000 A 
ATOM     16  C   UNL     1       5.757   4.024  13.830  0.00  0.00    +0.000 A 
ATOM     17  N   UNL     1       5.132   4.212  15.033  0.00  0.00    +0.000 N 
ATOM     18  H   UNL     1       4.318   3.720  15.363  0.00  0.00    +0.000 HD
ENDBRANCH   8   9
BRANCH   2  19
ATOM     19  C   UNL     1       4.003   3.633  18.890  0.00  0.00    +0.000 A 
ATOM     20  C   UNL     1       3.618   2.642  17.970  0.00  0.00    +0.000 A 
ATOM     21  C   UNL     1       2.272   2.351  17.752  0.00  0.00    +0.000 A 
ATOM     22  C   UNL     1       1.306   2.976  18.529  0.00  0.00    +0.000 A 
ATOM     23  F   UNL     1       0.016   2.688  18.326  0.00  0.00    +0.000 F 
ATOM     24  C   UNL     1       1.682   3.884  19.514  0.00  0.00    +0.000 A 
ATOM     25  F   UNL     1       0.749   4.444  20.292  0.00  0.00    +0.000 F 
ATOM     26  C   UNL     1       3.023   4.223  19.697  0.00  0.00    +0.000 A 
ENDBRANCH   2  19
TORSDOF 2
ENDMDL
MODEL 2
REMARK VINA RESULT:      -8.8      0.140      1.169
REMARK  Name = 
REMARK  2 active torsions:
REMARK  status: ('A' for Active; 'I' for Inactive)
REMARK    1  A    between atoms: C_2  and  C_3
REMARK    2  A    between atoms: C_16  and  C_17
REMARK                            x       y       z     vdW  Elec       q    Type
REMARK                         _______ _______ _______ _____ _____    ______ ____
ROOT
ATOM      1  O   UNL     1       5.966   3.492  20.040  0.00  0.00    +0.000 OA
ATOM      2  C   UNL     1       5.362   3.952  19.075  0.00  0.00    +0.000 C 
ATOM      3  N   UNL     1       5.965   4.814  18.148  0.00  0.00    +0.000 N 
ATOM      4  C   UNL     1       7.401   5.119  18.282  0.00  0.00    +0.000 C 
ATOM      5  C   UNL     1       7.693   6.617  18.384  0.00  0.00    +0.000 C 
ATOM      6  C   UNL     1       6.924   7.466  17.375  0.00  0.00    +0.000 C 
ATOM      7  C   UNL     1       5.452   7.082  17.335  0.00  0.00    +0.000 C 
ATOM      8  C   UNL     1       5.250   5.583  17.114  0.00  0.00    +0.000 C 
ENDROOT
BRANCH   8   9
ATOM      9  C   UNL     1       5.653   5.108  15.737  0.00  0.00    +0.000 A 
ATOM     10  N   UNL     1       5.115   4.118  15.053  0.00  0.00    +0.000 NA
ATOM     11  C   UNL     1       5.831   4.041  13.883  0.00  0.00    +0.000 A 
ATOM     12  C   UNL     1       5.673   3.174  12.789  0.00  0.00    +0.000 A 
ATOM     13  C   UNL     1       6.553   3.295  11.703  0.00  0.00    +0.000 A 
ATOM     14  C   UNL     1       7.568   4.254  11.707  0.00  0.00    +0.000 A 
ATOM     15  C   UNL     1       7.740   5.126  12.788  0.00  0.00    +0.000 A 
ATOM     16  C   UNL     1       6.848   4.985  13.854  0.00  0.00    +0.000 A 
ATOM     17  N   UNL     1       6.715   5.650  15.042  0.00  0.00    +0.000 N 
ATOM     18  H   UNL     1       7.281   6.420  15.360  0.00  0.00    +0.000 HD
ENDBRANCH   8   9
BRANCH   2  19
ATOM     19  C   UNL     1       3.929   3.548  18.927  0.00  0.00    +0.000 A 
ATOM     20  C   UNL     1       3.519   2.532  18.047  0.00  0.00    +0.000 A 
ATOM     21  C   UNL     1       2.167   2.244  17.864  0.00  0.00    +0.000 A 
ATOM     22  C   UNL     1       1.221   2.902  18.638  0.00  0.00    +0.000 A 
ATOM     23  F   UNL     1      -0.075   2.617  18.469  0.00  0.00    +0.000 F 
ATOM     24  C   UNL     1       1.623   3.838  19.586  0.00  0.00    +0.000 A 
ATOM     25  F   UNL     1       0.709   4.431  20.364  0.00  0.00    +0.000 F 
ATOM     26  C   UNL     1       2.970   4.172  19.733  0.00  0.00    +0.000 A 
ENDBRANCH   2  19
TORSDOF 2
ENDMDL
MODEL 3
REMARK VINA RESULT:      -8.7      0.644      1.348
REMARK  Name = 
REMARK  2 active torsions:
REMARK  status: ('A' for Active; 'I' for Inactive)
REMARK    1  A    between atoms: C_2  and  C_3
REMARK    2  A    between atoms: C_16  and  C_17
REMARK                            x       y       z     vdW  Elec       q    Type
REMARK                         _______ _______ _______ _____ _____    ______ ____
ROOT
ATOM      1  O   UNL     1       6.134   4.069  20.250  0.00  0.00    +0.000 OA
ATOM      2  C   UNL     1       5.561   4.485  19.247  0.00  0.00    +0.000 C 
ATOM      3  N   UNL     1       6.208   5.260  18.274  0.00  0.00    +0.000 N 
ATOM      4  C   UNL     1       7.651   5.521  18.410  0.00  0.00    +0.000 C 
ATOM      5  C   UNL     1       7.998   7.012  18.417  0.00  0.00    +0.000 C 
ATOM      6  C   UNL     1       7.274   7.817  17.341  0.00  0.00    +0.000 C 
ATOM      7  C   UNL     1       5.789   7.485  17.303  0.00  0.00    +0.000 C 
ATOM      8  C   UNL     1       5.536   5.983  17.179  0.00  0.00    +0.000 C 
ENDROOT
BRANCH   8   9
ATOM      9  C   UNL     1       5.939   5.402  15.844  0.00  0.00    +0.000 A 
ATOM     10  N   UNL     1       7.003   5.718  15.133  0.00  0.00    +0.000 NA
ATOM     11  C   UNL     1       6.926   4.961  13.989  0.00  0.00    +0.000 A 
ATOM     12  C   UNL     1       7.806   4.892  12.896  0.00  0.00    +0.000 A 
ATOM     13  C   UNL     1       7.491   4.034  11.833  0.00  0.00    +0.000 A 
ATOM     14  C   UNL     1       6.325   3.266  11.853  0.00  0.00    +0.000 A 
ATOM     15  C   UNL     1       5.437   3.321  12.934  0.00  0.00    +0.000 A 
ATOM     16  C   UNL     1       5.777   4.181  13.980  0.00  0.00    +0.000 A 
ATOM     17  N   UNL     1       5.167   4.479  15.168  0.00  0.00    +0.000 N 
ATOM     18  H   UNL     1       4.306   4.084  15.510  0.00  0.00    +0.000 HD
ENDBRANCH   8   9
BRANCH   2  19
ATOM     19  C   UNL     1       4.116   4.124  19.102  0.00  0.00    +0.000 A 
ATOM     20  C   UNL     1       3.091   4.836  19.749  0.00  0.00    +0.000 A 
ATOM     21  C   UNL     1       1.764   4.416  19.668  0.00  0.00    +0.000 A 
ATOM     22  C   UNL     1       1.440   3.339  18.853  0.00  0.00    +0.000 A 
ATOM     23  F   UNL     1       0.165   2.945  18.768  0.00  0.00    +0.000 F 
ATOM     24  C   UNL     1       2.433   2.690  18.127  0.00  0.00    +0.000 A 
ATOM     25  F   UNL     1       2.106   1.685  17.305  0.00  0.00    +0.000 F 
ATOM     26  C   UNL     1       3.771   3.068  18.249  0.00  0.00    +0.000 A 
ENDBRANCH   2  19
TORSDOF 2
ENDMDL
MODEL 4
REMARK VINA RESULT:      -8.6      3.928      6.975
REMARK  Name = 
REMARK  2 active torsions:
REMARK  status: ('A' for Active; 'I' for Inactive)
REMARK    1  A    between atoms: C_2  and  C_3
REMARK    2  A    between atoms: C_16  and  C_17
REMARK                            x       y       z     vdW  Elec       q    Type
REMARK                         _______ _______ _______ _____ _____    ______ ____
ROOT
ATOM      1  O   UNL     1       5.484   3.139  19.855  0.00  0.00    +0.000 OA
ATOM      2  C   UNL     1       4.821   3.835  19.091  0.00  0.00    +0.000 C 
ATOM      3  N   UNL     1       3.499   4.211  19.366  0.00  0.00    +0.000 N 
ATOM      4  C   UNL     1       2.899   3.827  20.656  0.00  0.00    +0.000 C 
ATOM      5  C   UNL     1       1.604   3.027  20.507  0.00  0.00    +0.000 C 
ATOM      6  C   UNL     1       0.641   3.599  19.470  0.00  0.00    +0.000 C 
ATOM      7  C   UNL     1       1.361   3.938  18.172  0.00  0.00    +0.000 C 
ATOM      8  C   UNL     1       2.576   4.837  18.402  0.00  0.00    +0.000 C 
ENDROOT
BRANCH   8   9
ATOM      9  C   UNL     1       2.226   6.237  18.848  0.00  0.00    +0.000 A 
ATOM     10  N   UNL     1       1.883   6.618  20.062  0.00  0.00    +0.000 NA
ATOM     11  C   UNL     1       1.626   7.965  19.972  0.00  0.00    +0.000 A 
ATOM     12  C   UNL     1       1.237   8.875  20.969  0.00  0.00    +0.000 A 
ATOM     13  C   UNL     1       1.026  10.214  20.612  0.00  0.00    +0.000 A 
ATOM     14  C   UNL     1       1.194  10.639  19.293  0.00  0.00    +0.000 A 
ATOM     15  C   UNL     1       1.582   9.748  18.286  0.00  0.00    +0.000 A 
ATOM     16  C   UNL     1       1.788   8.421  18.670  0.00  0.00    +0.000 A 
ATOM     17  N   UNL     1       2.168   7.305  17.975  0.00  0.00    +0.000 N 
ATOM     18  H   UNL     1       2.388   7.262  16.994  0.00  0.00    +0.000 HD
ENDBRANCH   8   9
BRANCH   2  19
ATOM     19  C   UNL     1       5.497   4.276  17.831  0.00  0.00    +0.000 A 
ATOM     20  C   UNL     1       5.289   3.634  16.598  0.00  0.00    +0.000 A 
ATOM     21  C   UNL     1       6.005   4.011  15.463  0.00  0.00    +0.000 A 
ATOM     22  C   UNL     1       6.859   5.104  15.529  0.00  0.00    +0.000 A 
ATOM     23  F   UNL     1       7.536   5.472  14.437  0.00  0.00    +0.000 F 
ATOM     24  C   UNL     1       6.995   5.813  16.719  0.00  0.00    +0.000 A 
ATOM     25  F   UNL     1       7.781   6.895  16.762  0.00  0.00    +0.000 F 
ATOM     26  C   UNL     1       6.326   5.404  17.874  0.00  0.00    +0.000 A 
ENDBRANCH   2  19
TORSDOF 2
ENDMDL
MODEL 5
REMARK VINA RESULT:      -8.4      3.924      7.038
REMARK  Name = 
REMARK  2 active torsions:
REMARK  status: ('A' for Active; 'I' for Inactive)
REMARK    1  A    between atoms: C_2  and  C_3
REMARK    2  A    between atoms: C_16  and  C_17
REMARK                            x       y       z     vdW  Elec       q    Type
REMARK                         _______ _______ _______ _____ _____    ______ ____
ROOT
ATOM      1  O   UNL     1       5.493   3.149  19.911  0.00  0.00    +0.000 OA
ATOM      2  C   UNL     1       4.816   3.833  19.149  0.00  0.00    +0.000 C 
ATOM      3  N   UNL     1       3.485   4.177  19.423  0.00  0.00    +0.000 N 
ATOM      4  C   UNL     1       2.892   3.775  20.711  0.00  0.00    +0.000 C 
ATOM      5  C   UNL     1       1.615   2.946  20.556  0.00  0.00    +0.000 C 
ATOM      6  C   UNL     1       0.642   3.501  19.520  0.00  0.00    +0.000 C 
ATOM      7  C   UNL     1       1.355   3.861  18.225  0.00  0.00    +0.000 C 
ATOM      8  C   UNL     1       2.550   4.786  18.461  0.00  0.00    +0.000 C 
ENDROOT
BRANCH   8   9
ATOM      9  C   UNL     1       2.167   6.177  18.912  0.00  0.00    +0.000 A 
ATOM     10  N   UNL     1       2.073   7.254  18.159  0.00  0.00    +0.000 NA
ATOM     11  C   UNL     1       1.733   8.277  19.012  0.00  0.00    +0.000 A 
ATOM     12  C   UNL     1       1.492   9.633  18.737  0.00  0.00    +0.000 A 
ATOM     13  C   UNL     1       1.166  10.487  19.801  0.00  0.00    +0.000 A 
ATOM     14  C   UNL     1       1.085  10.004  21.108  0.00  0.00    +0.000 A 
ATOM     15  C   UNL     1       1.322   8.655  21.401  0.00  0.00    +0.000 A 
ATOM     16  C   UNL     1       1.642   7.828  20.322  0.00  0.00    +0.000 A 
ATOM     17  N   UNL     1       1.922   6.492  20.233  0.00  0.00    +0.000 N 
ATOM     18  H   UNL     1       1.933   5.834  20.996  0.00  0.00    +0.000 HD
ENDBRANCH   8   9
BRANCH   2  19
ATOM     19  C   UNL     1       5.483   4.295  17.892  0.00  0.00    +0.000 A 
ATOM     20  C   UNL     1       5.247   3.690  16.646  0.00  0.00    +0.000 A 
ATOM     21  C   UNL     1       5.956   4.083  15.511  0.00  0.00    +0.000 A 
ATOM     22  C   UNL     1       6.830   5.158  15.595  0.00  0.00    +0.000 A 
ATOM     23  F   UNL     1       7.501   5.542  14.503  0.00  0.00    +0.000 F 
ATOM     24  C   UNL     1       6.996   5.832  16.801  0.00  0.00    +0.000 A 
ATOM     25  F   UNL     1       7.802   6.898  16.861  0.00  0.00    +0.000 F 
ATOM     26  C   UNL     1       6.334   5.406  17.953  0.00  0.00    +0.000 A 
ENDBRANCH   2  19
TORSDOF 2
ENDMDL
MODEL 6
REMARK VINA RESULT:      -8.4      0.584      1.761
REMARK  Name = 
REMARK  2 active torsions:
REMARK  status: ('A' for Active; 'I' for Inactive)
REMARK    1  A    between atoms: C_2  and  C_3
REMARK    2  A    between atoms: C_16  and  C_17
REMARK                            x       y       z     vdW  Elec       q    Type
REMARK                         _______ _______ _______ _____ _____    ______ ____
ROOT
ATOM      1  O   UNL     1       6.070   3.921  20.220  0.00  0.00    +0.000 OA
ATOM      2  C   UNL     1       5.462   4.355  19.246  0.00  0.00    +0.000 C 
ATOM      3  N   UNL     1       6.078   5.139  18.260  0.00  0.00    +0.000 N 
ATOM      4  C   UNL     1       7.528   5.388  18.345  0.00  0.00    +0.000 C 
ATOM      5  C   UNL     1       7.886   6.876  18.359  0.00  0.00    +0.000 C 
ATOM      6  C   UNL     1       7.128   7.702  17.324  0.00  0.00    +0.000 C 
ATOM      7  C   UNL     1       5.641   7.381  17.337  0.00  0.00    +0.000 C 
ATOM      8  C   UNL     1       5.371   5.882  17.202  0.00  0.00    +0.000 C 
ENDROOT
BRANCH   8   9
ATOM      9  C   UNL     1       5.719   5.318  15.844  0.00  0.00    +0.000 A 
ATOM     10  N   UNL     1       5.097   4.345  15.209  0.00  0.00    +0.000 NA
ATOM     11  C   UNL     1       5.791   4.161  14.037  0.00  0.00    +0.000 A 
ATOM     12  C   UNL     1       5.553   3.262  12.984  0.00  0.00    +0.000 A 
ATOM     13  C   UNL     1       6.427   3.267  11.887  0.00  0.00    +0.000 A 
ATOM     14  C   UNL     1       7.515   4.141  11.841  0.00  0.00    +0.000 A 
ATOM     15  C   UNL     1       7.767   5.043  12.880  0.00  0.00    +0.000 A 
ATOM     16  C   UNL     1       6.880   5.019  13.959  0.00  0.00    +0.000 A 
ATOM     17  N   UNL     1       6.813   5.744  15.118  0.00  0.00    +0.000 N 
ATOM     18  H   UNL     1       7.442   6.479  15.396  0.00  0.00    +0.000 HD
ENDBRANCH   8   9
BRANCH   2  19
ATOM     19  C   UNL     1       4.010   4.006  19.151  0.00  0.00    +0.000 A 
ATOM     20  C   UNL     1       3.016   4.720  19.842  0.00  0.00    +0.000 A 
ATOM     21  C   UNL     1       1.684   4.311  19.806  0.00  0.00    +0.000 A 
ATOM     22  C   UNL     1       1.321   3.245  18.993  0.00  0.00    +0.000 A 
ATOM     23  F   UNL     1       0.041   2.861  18.951  0.00  0.00    +0.000 F 
ATOM     24  C   UNL     1       2.281   2.595  18.224  0.00  0.00    +0.000 A 
ATOM     25  F   UNL     1       1.916   1.602  17.405  0.00  0.00    +0.000 F 
ATOM     26  C   UNL     1       3.626   2.962  18.301  0.00  0.00    +0.000 A 
ENDBRANCH   2  19
TORSDOF 2
ENDMDL
MODEL 7
REMARK VINA RESULT:      -8.4      3.810      7.073
REMARK  Name = 
REMARK  2 active torsions:
REMARK  status: ('A' for Active; 'I' for Inactive)
REMARK    1  A    between atoms: C_2  and  C_3
REMARK    2  A    between atoms: C_16  and  C_17
REMARK                            x       y       z     vdW  Elec       q    Type
REMARK                         _______ _______ _______ _____ _____    ______ ____
ROOT
ATOM      1  O   UNL     1       5.310   2.834  20.035  0.00  0.00    +0.000 OA
ATOM      2  C   UNL     1       4.736   3.609  19.276  0.00  0.00    +0.000 C 
ATOM      3  N   UNL     1       3.402   4.000  19.461  0.00  0.00    +0.000 N 
ATOM      4  C   UNL     1       2.678   3.531  20.656  0.00  0.00    +0.000 C 
ATOM      5  C   UNL     1       1.385   2.783  20.324  0.00  0.00    +0.000 C 
ATOM      6  C   UNL     1       0.535   3.467  19.256  0.00  0.00    +0.000 C 
ATOM      7  C   UNL     1       1.378   3.889  18.062  0.00  0.00    +0.000 C 
ATOM      8  C   UNL     1       2.586   4.730  18.475  0.00  0.00    +0.000 C 
ENDROOT
BRANCH   8   9
ATOM      9  C   UNL     1       2.227   6.099  19.003  0.00  0.00    +0.000 A 
ATOM     10  N   UNL     1       1.960   6.419  20.254  0.00  0.00    +0.000 NA
ATOM     11  C   UNL     1       1.658   7.760  20.239  0.00  0.00    +0.000 A 
ATOM     12  C   UNL     1       1.314   8.614  21.300  0.00  0.00    +0.000 A 
ATOM     13  C   UNL     1       1.039   9.960  21.016  0.00  0.00    +0.000 A 
ATOM     14  C   UNL     1       1.101  10.443  19.707  0.00  0.00    +0.000 A 
ATOM     15  C   UNL     1       1.443   9.607  18.639  0.00  0.00    +0.000 A 
ATOM     16  C   UNL     1       1.714   8.273  18.950  0.00  0.00    +0.000 A 
ATOM     17  N   UNL     1       2.076   7.199  18.183  0.00  0.00    +0.000 N 
ATOM     18  H   UNL     1       2.228   7.203  17.188  0.00  0.00    +0.000 HD
ENDBRANCH   8   9
BRANCH   2  19
ATOM     19  C   UNL     1       5.534   4.132  18.123  0.00  0.00    +0.000 A 
ATOM     20  C   UNL     1       6.512   5.130  18.272  0.00  0.00    +0.000 A 
ATOM     21  C   UNL     1       7.170   5.661  17.164  0.00  0.00    +0.000 A 
ATOM     22  C   UNL     1       6.930   5.122  15.907  0.00  0.00    +0.000 A 
ATOM     23  F   UNL     1       7.571   5.624  14.847  0.00  0.00    +0.000 F 
ATOM     24  C   UNL     1       6.040   4.063  15.761  0.00  0.00    +0.000 A 
ATOM     25  F   UNL     1       5.851   3.515  14.554  0.00  0.00    +0.000 F 
ATOM     26  C   UNL     1       5.333   3.567  16.858  0.00  0.00    +0.000 A 
ENDBRANCH   2  19
TORSDOF 2
ENDMDL
MODEL 8
REMARK VINA RESULT:      -8.1      3.827      6.997
REMARK  Name = 
REMARK  2 active torsions:
REMARK  status: ('A' for Active; 'I' for Inactive)
REMARK    1  A    between atoms: C_2  and  C_3
REMARK    2  A    between atoms: C_16  and  C_17
REMARK                            x       y       z     vdW  Elec       q    Type
REMARK                         _______ _______ _______ _____ _____    ______ ____
ROOT
ATOM      1  O   UNL     1       5.504   3.191  19.840  0.00  0.00    +0.000 OA
ATOM      2  C   UNL     1       4.875   3.878  19.041  0.00  0.00    +0.000 C 
ATOM      3  N   UNL     1       3.527   4.214  19.230  0.00  0.00    +0.000 N 
ATOM      4  C   UNL     1       2.853   3.799  20.473  0.00  0.00    +0.000 C 
ATOM      5  C   UNL     1       1.593   2.966  20.229  0.00  0.00    +0.000 C 
ATOM      6  C   UNL     1       0.687   3.525  19.136  0.00  0.00    +0.000 C 
ATOM      7  C   UNL     1       1.482   3.899  17.893  0.00  0.00    +0.000 C 
ATOM      8  C   UNL     1       2.654   4.827  18.213  0.00  0.00    +0.000 C 
ENDROOT
BRANCH   8   9
ATOM      9  C   UNL     1       2.236   6.212  18.649  0.00  0.00    +0.000 A 
ATOM     10  N   UNL     1       2.159   7.289  17.893  0.00  0.00    +0.000 NA
ATOM     11  C   UNL     1       1.772   8.307  18.732  0.00  0.00    +0.000 A 
ATOM     12  C   UNL     1       1.526   9.661  18.448  0.00  0.00    +0.000 A 
ATOM     13  C   UNL     1       1.146  10.509  19.498  0.00  0.00    +0.000 A 
ATOM     14  C   UNL     1       1.018  10.024  20.801  0.00  0.00    +0.000 A 
ATOM     15  C   UNL     1       1.259   8.678  21.102  0.00  0.00    +0.000 A 
ATOM     16  C   UNL     1       1.633   7.855  20.037  0.00  0.00    +0.000 A 
ATOM     17  N   UNL     1       1.933   6.523  19.959  0.00  0.00    +0.000 N 
ATOM     18  H   UNL     1       1.921   5.865  20.721  0.00  0.00    +0.000 HD
ENDBRANCH   8   9
BRANCH   2  19
ATOM     19  C   UNL     1       5.620   4.353  17.833  0.00  0.00    +0.000 A 
ATOM     20  C   UNL     1       6.499   5.449  17.871  0.00  0.00    +0.000 A 
ATOM     21  C   UNL     1       7.105   5.923  16.709  0.00  0.00    +0.000 A 
ATOM     22  C   UNL     1       6.918   5.237  15.516  0.00  0.00    +0.000 A 
ATOM     23  F   UNL     1       7.509   5.686  14.404  0.00  0.00    +0.000 F 
ATOM     24  C   UNL     1       6.131   4.090  15.486  0.00  0.00    +0.000 A 
ATOM     25  F   UNL     1       5.996   3.407  14.343  0.00  0.00    +0.000 F 
ATOM     26  C   UNL     1       5.474   3.645  16.634  0.00  0.00    +0.000 A 
ENDBRANCH   2  19
TORSDOF 2
ENDMDL
MODEL 9
REMARK VINA RESULT:      -7.4      4.003      7.381
REMARK  Name = 
REMARK  2 active torsions:
REMARK  status: ('A' for Active; 'I' for Inactive)
REMARK    1  A    between atoms: C_2  and  C_3
REMARK    2  A    between atoms: C_16  and  C_17
REMARK                            x       y       z     vdW  Elec       q    Type
REMARK                         _______ _______ _______ _____ _____    ______ ____
ROOT
ATOM      1  O   UNL     1       5.297   3.243  20.164  0.00  0.00    +0.000 OA
ATOM      2  C   UNL     1       4.812   4.113  19.446  0.00  0.00    +0.000 C 
ATOM      3  N   UNL     1       3.440   4.399  19.428  0.00  0.00    +0.000 N 
ATOM      4  C   UNL     1       2.548   3.691  20.364  0.00  0.00    +0.000 C 
ATOM      5  C   UNL     1       1.403   2.953  19.667  0.00  0.00    +0.000 C 
ATOM      6  C   UNL     1       0.712   3.773  18.581  0.00  0.00    +0.000 C 
ATOM      7  C   UNL     1       1.724   4.441  17.661  0.00  0.00    +0.000 C 
ATOM      8  C   UNL     1       2.763   5.252  18.435  0.00  0.00    +0.000 C 
ENDROOT
BRANCH   8   9
ATOM      9  C   UNL     1       2.203   6.487  19.101  0.00  0.00    +0.000 A 
ATOM     10  N   UNL     1       1.912   7.635  18.522  0.00  0.00    +0.000 NA
ATOM     11  C   UNL     1       1.469   8.459  19.529  0.00  0.00    +0.000 A 
ATOM     12  C   UNL     1       1.018   9.788  19.469  0.00  0.00    +0.000 A 
ATOM     13  C   UNL     1       0.623  10.418  20.659  0.00  0.00    +0.000 A 
ATOM     14  C   UNL     1       0.681   9.743  21.880  0.00  0.00    +0.000 A 
ATOM     15  C   UNL     1       1.128   8.420  21.959  0.00  0.00    +0.000 A 
ATOM     16  C   UNL     1       1.512   7.816  20.759  0.00  0.00    +0.000 A 
ATOM     17  N   UNL     1       1.981   6.566  20.462  0.00  0.00    +0.000 N 
ATOM     18  H   UNL     1       2.128   5.814  21.115  0.00  0.00    +0.000 HD
ENDBRANCH   8   9
BRANCH   2  19
ATOM     19  C   UNL     1       5.764   4.869  18.574  0.00  0.00    +0.000 A 
ATOM     20  C   UNL     1       6.804   5.656  19.097  0.00  0.00    +0.000 A 
ATOM     21  C   UNL     1       7.614   6.423  18.259  0.00  0.00    +0.000 A 
ATOM     22  C   UNL     1       7.456   6.325  16.884  0.00  0.00    +0.000 A 
ATOM     23  F   UNL     1       8.241   7.051  16.082  0.00  0.00    +0.000 F 
ATOM     24  C   UNL     1       6.496   5.469  16.350  0.00  0.00    +0.000 A 
ATOM     25  F   UNL     1       6.384   5.343  15.023  0.00  0.00    +0.000 F 
ATOM     26  C   UNL     1       5.643   4.745  17.184  0.00  0.00    +0.000 A 
ENDBRANCH   2  19
TORSDOF 2
ENDMDL
