MODEL 1
REMARK VINA RESULT:      -8.6      0.000      0.000
REMARK  Name = 
REMARK  6 active torsions:
REMARK  status: ('A' for Active; 'I' for Inactive)
REMARK    1  A    between atoms: C_2  and  C_17
REMARK    2  A    between atoms: N_3  and  C_4
REMARK    3  A    between atoms: C_7  and  O_8
REMARK    4  A    between atoms: O_8  and  C_9
REMARK    5  A    between atoms: C_20  and  O_21
REMARK    6  A    between atoms: O_21  and  C_22
REMARK                            x       y       z     vdW  Elec       q    Type
REMARK                         _______ _______ _______ _____ _____    ______ ____
ROOT
ATOM      1  O   UNL     1       1.418   9.293  19.271  0.00  0.00    +0.000 OA
ATOM      2  C   UNL     1       1.110   8.963  20.408  0.00  0.00    +0.000 C 
ATOM      3  N   UNL     1       1.296   7.717  20.990  0.00  0.00    +0.000 N 
ATOM      4  H   UNL     1       0.818   7.524  21.857  0.00  0.00    +0.000 HD
ENDROOT
BRANCH   3   5
ATOM      5  C   UNL     1       1.959   6.633  20.372  0.00  0.00    +0.000 A 
ATOM      6  C   UNL     1       1.971   5.350  20.918  0.00  0.00    +0.000 A 
ATOM      7  C   UNL     1       2.667   4.314  20.297  0.00  0.00    +0.000 A 
ATOM      8  C   UNL     1       3.321   4.534  19.087  0.00  0.00    +0.000 A 
ATOM      9  C   UNL     1       3.322   5.816  18.533  0.00  0.00    +0.000 A 
ATOM     10  C   UNL     1       2.632   6.860  19.167  0.00  0.00    +0.000 A 
BRANCH   8  11
ATOM     11  O   UNL     1       4.038   3.564  18.424  0.00  0.00    +0.000 OA
BRANCH  11  12
ATOM     12  C   UNL     1       5.177   3.955  17.730  0.00  0.00    +0.000 A 
ATOM     13  N   UNL     1       5.171   3.944  16.382  0.00  0.00    +0.000 NA
ATOM     14  C   UNL     1       6.316   4.299  15.777  0.00  0.00    +0.000 A 
ATOM     15  C   UNL     1       7.437   4.702  16.460  0.00  0.00    +0.000 A 
ATOM     16  C   UNL     1       7.323   4.717  17.831  0.00  0.00    +0.000 A 
ATOM     17  N   UNL     1       6.209   4.351  18.493  0.00  0.00    +0.000 NA
ENDBRANCH  11  12
ENDBRANCH   8  11
ENDBRANCH   3   5
BRANCH   2  18
ATOM     18  C   UNL     1       0.404   9.972  21.232  0.00  0.00    +0.000 A 
ATOM     19  C   UNL     1      -0.256   9.510  22.379  0.00  0.00    +0.000 A 
ATOM     20  C   UNL     1      -1.024  10.382  23.146  0.00  0.00    +0.000 A 
ATOM     21  C   UNL     1      -1.090  11.734  22.807  0.00  0.00    +0.000 A 
ATOM     22  C   UNL     1      -0.452  12.191  21.648  0.00  0.00    +0.000 A 
ATOM     23  C   UNL     1       0.295  11.312  20.855  0.00  0.00    +0.000 A 
BRANCH  21  24
ATOM     24  O   UNL     1      -1.820  12.672  23.501  0.00  0.00    +0.000 OA
BRANCH  24  25
ATOM     25  C   UNL     1      -3.196  12.648  23.459  0.00  0.00    +0.000 A 
ATOM     26  C   UNL     1      -4.021  12.513  24.572  0.00  0.00    +0.000 A 
ATOM     27  C   UNL     1      -5.389  12.484  24.371  0.00  0.00    +0.000 A 
ATOM     28  N   UNL     1      -5.974  12.638  23.164  0.00  0.00    +0.000 NA
ATOM     29  C   UNL     1      -5.151  12.830  22.110  0.00  0.00    +0.000 A 
ATOM     30  C   UNL     1      -3.770  12.841  22.206  0.00  0.00    +0.000 A 
ENDBRANCH  24  25
ENDBRANCH  21  24
ENDBRANCH   2  18
TORSDOF 6
ENDMDL
MODEL 2
REMARK VINA RESULT:      -8.6      1.146     11.385
REMARK  Name = 
REMARK  6 active torsions:
REMARK  status: ('A' for Active; 'I' for Inactive)
REMARK    1  A    between atoms: C_2  and  C_17
REMARK    2  A    between atoms: N_3  and  C_4
REMARK    3  A    between atoms: C_7  and  O_8
REMARK    4  A    between atoms: O_8  and  C_9
REMARK    5  A    between atoms: C_20  and  O_21
REMARK    6  A    between atoms: O_21  and  C_22
REMARK                            x       y       z     vdW  Elec       q    Type
REMARK                         _______ _______ _______ _____ _____    ______ ____
ROOT
ATOM      1  O   UNL     1       0.913   9.655  18.853  0.00  0.00    +0.000 OA
ATOM      2  C   UNL     1       1.241   8.910  19.765  0.00  0.00    +0.000 C 
ATOM      3  N   UNL     1       1.002   9.100  21.119  0.00  0.00    +0.000 N 
ATOM      4  H   UNL     1       1.498   8.514  21.773  0.00  0.00    +0.000 HD
ENDROOT
BRANCH   3   5
ATOM      5  C   UNL     1       0.256  10.171  21.660  0.00  0.00    +0.000 A 
ATOM      6  C   UNL     1       0.389  11.484  21.210  0.00  0.00    +0.000 A 
ATOM      7  C   UNL     1      -0.339  12.519  21.794  0.00  0.00    +0.000 A 
ATOM      8  C   UNL     1      -1.256  12.248  22.807  0.00  0.00    +0.000 A 
ATOM      9  C   UNL     1      -1.394  10.938  23.272  0.00  0.00    +0.000 A 
ATOM     10  C   UNL     1      -0.651   9.900  22.691  0.00  0.00    +0.000 A 
BRANCH   8  11
ATOM     11  O   UNL     1      -2.000  13.218  23.439  0.00  0.00    +0.000 OA
BRANCH  11  12
ATOM     12  C   UNL     1      -3.384  13.159  23.320  0.00  0.00    +0.000 A 
ATOM     13  N   UNL     1      -3.954  13.313  22.108  0.00  0.00    +0.000 NA
ATOM     14  C   UNL     1      -5.296  13.281  22.071  0.00  0.00    +0.000 A 
ATOM     15  C   UNL     1      -6.076  13.059  23.179  0.00  0.00    +0.000 A 
ATOM     16  C   UNL     1      -5.392  12.873  24.358  0.00  0.00    +0.000 A 
ATOM     17  N   UNL     1      -4.050  12.917  24.460  0.00  0.00    +0.000 NA
ENDBRANCH  11  12
ENDBRANCH   8  11
ENDBRANCH   3   5
BRANCH   2  18
ATOM     18  C   UNL     1       2.032   7.711  19.402  0.00  0.00    +0.000 A 
ATOM     19  C   UNL     1       2.636   7.705  18.137  0.00  0.00    +0.000 A 
ATOM     20  C   UNL     1       3.309   6.573  17.686  0.00  0.00    +0.000 A 
ATOM     21  C   UNL     1       3.435   5.460  18.519  0.00  0.00    +0.000 A 
ATOM     22  C   UNL     1       2.810   5.456  19.772  0.00  0.00    +0.000 A 
ATOM     23  C   UNL     1       2.105   6.580  20.217  0.00  0.00    +0.000 A 
BRANCH  21  24
ATOM     24  O   UNL     1       4.080   4.297  18.165  0.00  0.00    +0.000 OA
BRANCH  24  25
ATOM     25  C   UNL     1       5.286   4.348  17.501  0.00  0.00    +0.000 A 
ATOM     26  C   UNL     1       5.444   4.174  16.130  0.00  0.00    +0.000 A 
ATOM     27  C   UNL     1       6.723   4.230  15.608  0.00  0.00    +0.000 A 
ATOM     28  N   UNL     1       7.822   4.503  16.342  0.00  0.00    +0.000 NA
ATOM     29  C   UNL     1       7.632   4.730  17.660  0.00  0.00    +0.000 A 
ATOM     30  C   UNL     1       6.397   4.662  18.280  0.00  0.00    +0.000 A 
ENDBRANCH  24  25
ENDBRANCH  21  24
ENDBRANCH   2  18
TORSDOF 6
ENDMDL
MODEL 3
REMARK VINA RESULT:      -8.5      7.457     11.294
REMARK  Name = 
REMARK  6 active torsions:
REMARK  status: ('A' for Active; 'I' for Inactive)
REMARK    1  A    between atoms: C_2  and  C_17
REMARK    2  A    between atoms: N_3  and  C_4
REMARK    3  A    between atoms: C_7  and  O_8
REMARK    4  A    between atoms: O_8  and  C_9
REMARK    5  A    between atoms: C_20  and  O_21
REMARK    6  A    between atoms: O_21  and  C_22
REMARK                            x       y       z     vdW  Elec       q    Type
REMARK                         _______ _______ _______ _____ _____    ______ ____
ROOT
ATOM      1  O   UNL     1       7.897   9.858  17.220  0.00  0.00    +0.000 OA
ATOM      2  C   UNL     1       8.217   9.065  18.095  0.00  0.00    +0.000 C 
ATOM      3  N   UNL     1       9.104   9.293  19.138  0.00  0.00    +0.000 N 
ATOM      4  H   UNL     1       9.427   8.496  19.665  0.00  0.00    +0.000 HD
ENDROOT
BRANCH   3   5
ATOM      5  C   UNL     1       9.730  10.531  19.404  0.00  0.00    +0.000 A 
ATOM      6  C   UNL     1       9.591  11.197  20.622  0.00  0.00    +0.000 A 
ATOM      7  C   UNL     1      10.195  12.435  20.834  0.00  0.00    +0.000 A 
ATOM      8  C   UNL     1      10.997  13.004  19.847  0.00  0.00    +0.000 A 
ATOM      9  C   UNL     1      11.139  12.350  18.621  0.00  0.00    +0.000 A 
ATOM     10  C   UNL     1      10.519  11.111  18.405  0.00  0.00    +0.000 A 
BRANCH   8  11
ATOM     11  O   UNL     1      11.614  14.227  19.981  0.00  0.00    +0.000 OA
BRANCH  11  12
ATOM     12  C   UNL     1      11.303  15.218  19.057  0.00  0.00    +0.000 A 
ATOM     13  N   UNL     1      10.048  15.708  19.005  0.00  0.00    +0.000 NA
ATOM     14  C   UNL     1       9.808  16.637  18.066  0.00  0.00    +0.000 A 
ATOM     15  C   UNL     1      10.776  17.120  17.219  0.00  0.00    +0.000 A 
ATOM     16  C   UNL     1      12.031  16.583  17.384  0.00  0.00    +0.000 A 
ATOM     17  N   UNL     1      12.326  15.634  18.292  0.00  0.00    +0.000 NA
ENDBRANCH  11  12
ENDBRANCH   8  11
ENDBRANCH   3   5
BRANCH   2  18
ATOM     18  C   UNL     1       7.655   7.698  18.000  0.00  0.00    +0.000 A 
ATOM     19  C   UNL     1       6.552   7.519  17.154  0.00  0.00    +0.000 A 
ATOM     20  C   UNL     1       5.907   6.287  17.092  0.00  0.00    +0.000 A 
ATOM     21  C   UNL     1       6.396   5.207  17.829  0.00  0.00    +0.000 A 
ATOM     22  C   UNL     1       7.482   5.392  18.693  0.00  0.00    +0.000 A 
ATOM     23  C   UNL     1       8.113   6.637  18.784  0.00  0.00    +0.000 A 
BRANCH  21  24
ATOM     24  O   UNL     1       5.830   3.953  17.834  0.00  0.00    +0.000 OA
BRANCH  24  25
ATOM     25  C   UNL     1       4.496   3.796  18.137  0.00  0.00    +0.000 A 
ATOM     26  C   UNL     1       3.503   3.486  17.213  0.00  0.00    +0.000 A 
ATOM     27  C   UNL     1       2.199   3.382  17.664  0.00  0.00    +0.000 A 
ATOM     28  N   UNL     1       1.842   3.505  18.960  0.00  0.00    +0.000 NA
ATOM     29  C   UNL     1       2.834   3.744  19.844  0.00  0.00    +0.000 A 
ATOM     30  C   UNL     1       4.162   3.898  19.485  0.00  0.00    +0.000 A 
ENDBRANCH  24  25
ENDBRANCH  21  24
ENDBRANCH   2  18
TORSDOF 6
ENDMDL
MODEL 4
REMARK VINA RESULT:      -8.5      0.359      1.297
REMARK  Name = 
REMARK  6 active torsions:
REMARK  status: ('A' for Active; 'I' for Inactive)
REMARK    1  A    between atoms: C_2  and  C_17
REMARK    2  A    between atoms: N_3  and  C_4
REMARK    3  A    between atoms: C_7  and  O_8
REMARK    4  A    between atoms: O_8  and  C_9
REMARK    5  A    between atoms: C_20  and  O_21
REMARK    6  A    between atoms: O_21  and  C_22
REMARK                            x       y       z     vdW  Elec       q    Type
REMARK                         _______ _______ _______ _____ _____    ______ ____
ROOT
ATOM      1  O   UNL     1       1.339   9.752  19.238  0.00  0.00    +0.000 OA
ATOM      2  C   UNL     1       0.978   9.332  20.328  0.00  0.00    +0.000 C 
ATOM      3  N   UNL     1       1.161   8.049  20.826  0.00  0.00    +0.000 N 
ATOM      4  H   UNL     1       0.641   7.783  21.649  0.00  0.00    +0.000 HD
ENDROOT
BRANCH   3   5
ATOM      5  C   UNL     1       1.880   7.027  20.168  0.00  0.00    +0.000 A 
ATOM      6  C   UNL     1       2.460   7.205  18.912  0.00  0.00    +0.000 A 
ATOM      7  C   UNL     1       3.131   6.160  18.279  0.00  0.00    +0.000 A 
ATOM      8  C   UNL     1       3.280   4.931  18.918  0.00  0.00    +0.000 A 
ATOM      9  C   UNL     1       2.698   4.738  20.173  0.00  0.00    +0.000 A 
ATOM     10  C   UNL     1       2.012   5.787  20.802  0.00  0.00    +0.000 A 
BRANCH   8  11
ATOM     11  O   UNL     1       3.919   3.852  18.350  0.00  0.00    +0.000 OA
BRANCH  11  12
ATOM     12  C   UNL     1       5.104   4.084  17.663  0.00  0.00    +0.000 A 
ATOM     13  N   UNL     1       5.122   3.990  16.318  0.00  0.00    +0.000 NA
ATOM     14  C   UNL     1       6.307   4.191  15.720  0.00  0.00    +0.000 A 
ATOM     15  C   UNL     1       7.450   4.521  16.405  0.00  0.00    +0.000 A 
ATOM     16  C   UNL     1       7.313   4.633  17.770  0.00  0.00    +0.000 A 
ATOM     17  N   UNL     1       6.157   4.421  18.425  0.00  0.00    +0.000 NA
ENDBRANCH  11  12
ENDBRANCH   8  11
ENDBRANCH   3   5
BRANCH   2  18
ATOM     18  C   UNL     1       0.207  10.263  21.185  0.00  0.00    +0.000 A 
ATOM     19  C   UNL     1      -0.310   9.749  22.382  0.00  0.00    +0.000 A 
ATOM     20  C   UNL     1      -1.130  10.534  23.188  0.00  0.00    +0.000 A 
ATOM     21  C   UNL     1      -1.389  11.860  22.834  0.00  0.00    +0.000 A 
ATOM     22  C   UNL     1      -0.894  12.366  21.626  0.00  0.00    +0.000 A 
ATOM     23  C   UNL     1      -0.096  11.570  20.796  0.00  0.00    +0.000 A 
BRANCH  21  24
ATOM     24  O   UNL     1      -2.184  12.714  23.563  0.00  0.00    +0.000 OA
BRANCH  24  25
ATOM     25  C   UNL     1      -3.551  12.695  23.403  0.00  0.00    +0.000 A 
ATOM     26  C   UNL     1      -4.208  12.797  22.180  0.00  0.00    +0.000 A 
ATOM     27  C   UNL     1      -5.591  12.785  22.179  0.00  0.00    +0.000 A 
ATOM     28  N   UNL     1      -6.342  12.621  23.289  0.00  0.00    +0.000 NA
ATOM     29  C   UNL     1      -5.677  12.462  24.454  0.00  0.00    +0.000 A 
ATOM     30  C   UNL     1      -4.297  12.494  24.561  0.00  0.00    +0.000 A 
ENDBRANCH  24  25
ENDBRANCH  21  24
ENDBRANCH   2  18
TORSDOF 6
ENDMDL
MODEL 5
REMARK VINA RESULT:      -8.4      1.035      1.883
REMARK  Name = 
REMARK  6 active torsions:
REMARK  status: ('A' for Active; 'I' for Inactive)
REMARK    1  A    between atoms: C_2  and  C_17
REMARK    2  A    between atoms: N_3  and  C_4
REMARK    3  A    between atoms: C_7  and  O_8
REMARK    4  A    between atoms: O_8  and  C_9
REMARK    5  A    between atoms: C_20  and  O_21
REMARK    6  A    between atoms: O_21  and  C_22
REMARK                            x       y       z     vdW  Elec       q    Type
REMARK                         _______ _______ _______ _____ _____    ______ ____
ROOT
ATOM      1  O   UNL     1       1.722   8.968  22.419  0.00  0.00    +0.000 OA
ATOM      2  C   UNL     1       0.971   9.232  21.490  0.00  0.00    +0.000 C 
ATOM      3  N   UNL     1       0.948   8.624  20.243  0.00  0.00    +0.000 N 
ATOM      4  H   UNL     1       0.419   9.070  19.509  0.00  0.00    +0.000 HD
ENDROOT
BRANCH   3   5
ATOM      5  C   UNL     1       1.753   7.524  19.871  0.00  0.00    +0.000 A 
ATOM      6  C   UNL     1       2.589   7.549  18.754  0.00  0.00    +0.000 A 
ATOM      7  C   UNL     1       3.341   6.431  18.398  0.00  0.00    +0.000 A 
ATOM      8  C   UNL     1       3.311   5.283  19.188  0.00  0.00    +0.000 A 
ATOM      9  C   UNL     1       2.474   5.243  20.305  0.00  0.00    +0.000 A 
ATOM     10  C   UNL     1       1.707   6.366  20.653  0.00  0.00    +0.000 A 
BRANCH   8  11
ATOM     11  O   UNL     1       4.016   4.139  18.892  0.00  0.00    +0.000 OA
BRANCH  11  12
ATOM     12  C   UNL     1       5.150   4.259  18.096  0.00  0.00    +0.000 A 
ATOM     13  N   UNL     1       6.329   4.585  18.663  0.00  0.00    +0.000 NA
ATOM     14  C   UNL     1       7.374   4.719  17.832  0.00  0.00    +0.000 A 
ATOM     15  C   UNL     1       7.295   4.500  16.479  0.00  0.00    +0.000 A 
ATOM     16  C   UNL     1       6.055   4.132  16.009  0.00  0.00    +0.000 A 
ATOM     17  N   UNL     1       4.967   4.003  16.791  0.00  0.00    +0.000 NA
ENDBRANCH  11  12
ENDBRANCH   8  11
ENDBRANCH   3   5
BRANCH   2  18
ATOM     18  C   UNL     1       0.032  10.361  21.686  0.00  0.00    +0.000 A 
ATOM     19  C   UNL     1      -0.631  10.433  22.918  0.00  0.00    +0.000 A 
ATOM     20  C   UNL     1      -1.604  11.405  23.138  0.00  0.00    +0.000 A 
ATOM     21  C   UNL     1      -1.878  12.350  22.148  0.00  0.00    +0.000 A 
ATOM     22  C   UNL     1      -1.234  12.264  20.908  0.00  0.00    +0.000 A 
ATOM     23  C   UNL     1      -0.279  11.268  20.671  0.00  0.00    +0.000 A 
BRANCH  21  24
ATOM     24  O   UNL     1      -2.818  13.348  22.270  0.00  0.00    +0.000 OA
BRANCH  24  25
ATOM     25  C   UNL     1      -4.154  13.032  22.371  0.00  0.00    +0.000 A 
ATOM     26  C   UNL     1      -4.957  12.630  21.307  0.00  0.00    +0.000 A 
ATOM     27  C   UNL     1      -6.292  12.368  21.560  0.00  0.00    +0.000 A 
ATOM     28  N   UNL     1      -6.848  12.420  22.789  0.00  0.00    +0.000 NA
ATOM     29  C   UNL     1      -6.031  12.751  23.812  0.00  0.00    +0.000 A 
ATOM     30  C   UNL     1      -4.692  13.065  23.655  0.00  0.00    +0.000 A 
ENDBRANCH  24  25
ENDBRANCH  21  24
ENDBRANCH   2  18
TORSDOF 6
ENDMDL
MODEL 6
REMARK VINA RESULT:      -8.4      1.934      2.649
REMARK  Name = 
REMARK  6 active torsions:
REMARK  status: ('A' for Active; 'I' for Inactive)
REMARK    1  A    between atoms: C_2  and  C_17
REMARK    2  A    between atoms: N_3  and  C_4
REMARK    3  A    between atoms: C_7  and  O_8
REMARK    4  A    between atoms: O_8  and  C_9
REMARK    5  A    between atoms: C_20  and  O_21
REMARK    6  A    between atoms: O_21  and  C_22
REMARK                            x       y       z     vdW  Elec       q    Type
REMARK                         _______ _______ _______ _____ _____    ______ ____
ROOT
ATOM      1  O   UNL     1       1.193   9.956  22.282  0.00  0.00    +0.000 OA
ATOM      2  C   UNL     1       0.353  10.130  21.411  0.00  0.00    +0.000 C 
ATOM      3  N   UNL     1       0.326   9.542  20.154  0.00  0.00    +0.000 N 
ATOM      4  H   UNL     1      -0.307   9.924  19.467  0.00  0.00    +0.000 HD
ENDROOT
BRANCH   3   5
ATOM      5  C   UNL     1       1.243   8.566  19.704  0.00  0.00    +0.000 A 
ATOM      6  C   UNL     1       1.562   7.433  20.451  0.00  0.00    +0.000 A 
ATOM      7  C   UNL     1       2.499   6.511  19.988  0.00  0.00    +0.000 A 
ATOM      8  C   UNL     1       3.096   6.681  18.740  0.00  0.00    +0.000 A 
ATOM      9  C   UNL     1       2.790   7.815  17.985  0.00  0.00    +0.000 A 
ATOM     10  C   UNL     1       1.856   8.749  18.459  0.00  0.00    +0.000 A 
BRANCH   8  11
ATOM     11  O   UNL     1       4.037   5.820  18.224  0.00  0.00    +0.000 OA
BRANCH  11  12
ATOM     12  C   UNL     1       3.781   4.455  18.297  0.00  0.00    +0.000 A 
ATOM     13  N   UNL     1       2.875   3.904  17.465  0.00  0.00    +0.000 NA
ATOM     14  C   UNL     1       2.650   2.589  17.612  0.00  0.00    +0.000 A 
ATOM     15  C   UNL     1       3.323   1.807  18.520  0.00  0.00    +0.000 A 
ATOM     16  C   UNL     1       4.256   2.460  19.290  0.00  0.00    +0.000 A 
ATOM     17  N   UNL     1       4.508   3.780  19.202  0.00  0.00    +0.000 NA
ENDBRANCH  11  12
ENDBRANCH   8  11
ENDBRANCH   3   5
BRANCH   2  18
ATOM     18  C   UNL     1      -0.713  11.119  21.694  0.00  0.00    +0.000 A 
ATOM     19  C   UNL     1      -1.270  11.106  22.980  0.00  0.00    +0.000 A 
ATOM     20  C   UNL     1      -2.344  11.936  23.289  0.00  0.00    +0.000 A 
ATOM     21  C   UNL     1      -2.832  12.828  22.333  0.00  0.00    +0.000 A 
ATOM     22  C   UNL     1      -2.293  12.824  21.041  0.00  0.00    +0.000 A 
ATOM     23  C   UNL     1      -1.234  11.968  20.716  0.00  0.00    +0.000 A 
BRANCH  21  24
ATOM     24  O   UNL     1      -3.886  13.687  22.542  0.00  0.00    +0.000 OA
BRANCH  24  25
ATOM     25  C   UNL     1      -5.174  13.202  22.598  0.00  0.00    +0.000 A 
ATOM     26  C   UNL     1      -5.867  12.665  21.517  0.00  0.00    +0.000 A 
ATOM     27  C   UNL     1      -7.167  12.238  21.722  0.00  0.00    +0.000 A 
ATOM     28  N   UNL     1      -7.783  12.257  22.923  0.00  0.00    +0.000 NA
ATOM     29  C   UNL     1      -7.065  12.725  23.967  0.00  0.00    +0.000 A 
ATOM     30  C   UNL     1      -5.772  13.206  23.855  0.00  0.00    +0.000 A 
ENDBRANCH  24  25
ENDBRANCH  21  24
ENDBRANCH   2  18
TORSDOF 6
ENDMDL
MODEL 7
REMARK VINA RESULT:      -8.4      1.223      1.703
REMARK  Name = 
REMARK  6 active torsions:
REMARK  status: ('A' for Active; 'I' for Inactive)
REMARK    1  A    between atoms: C_2  and  C_17
REMARK    2  A    between atoms: N_3  and  C_4
REMARK    3  A    between atoms: C_7  and  O_8
REMARK    4  A    between atoms: O_8  and  C_9
REMARK    5  A    between atoms: C_20  and  O_21
REMARK    6  A    between atoms: O_21  and  C_22
REMARK                            x       y       z     vdW  Elec       q    Type
REMARK                         _______ _______ _______ _____ _____    ______ ____
ROOT
ATOM      1  O   UNL     1       1.801   9.526  22.376  0.00  0.00    +0.000 OA
ATOM      2  C   UNL     1       0.875   9.631  21.583  0.00  0.00    +0.000 C 
ATOM      3  N   UNL     1       0.693   8.899  20.418  0.00  0.00    +0.000 N 
ATOM      4  H   UNL     1       0.000   9.223  19.760  0.00  0.00    +0.000 HD
ENDROOT
BRANCH   3   5
ATOM      5  C   UNL     1       1.526   7.838  19.998  0.00  0.00    +0.000 A 
ATOM      6  C   UNL     1       2.316   7.912  18.851  0.00  0.00    +0.000 A 
ATOM      7  C   UNL     1       3.097   6.830  18.448  0.00  0.00    +0.000 A 
ATOM      8  C   UNL     1       3.142   5.670  19.220  0.00  0.00    +0.000 A 
ATOM      9  C   UNL     1       2.351   5.581  20.367  0.00  0.00    +0.000 A 
ATOM     10  C   UNL     1       1.555   6.667  20.763  0.00  0.00    +0.000 A 
BRANCH   8  11
ATOM     11  O   UNL     1       3.880   4.559  18.879  0.00  0.00    +0.000 OA
BRANCH  11  12
ATOM     12  C   UNL     1       5.228   4.736  18.589  0.00  0.00    +0.000 A 
ATOM     13  N   UNL     1       5.689   4.429  17.360  0.00  0.00    +0.000 NA
ATOM     14  C   UNL     1       7.006   4.590  17.159  0.00  0.00    +0.000 A 
ATOM     15  C   UNL     1       7.861   5.080  18.116  0.00  0.00    +0.000 A 
ATOM     16  C   UNL     1       7.281   5.401  19.321  0.00  0.00    +0.000 A 
ATOM     17  N   UNL     1       5.971   5.241  19.587  0.00  0.00    +0.000 NA
ENDBRANCH  11  12
ENDBRANCH   8  11
ENDBRANCH   3   5
BRANCH   2  18
ATOM     18  C   UNL     1      -0.123  10.692  21.853  0.00  0.00    +0.000 A 
ATOM     19  C   UNL     1      -0.896  10.559  23.014  0.00  0.00    +0.000 A 
ATOM     20  C   UNL     1      -1.923  11.461  23.281  0.00  0.00    +0.000 A 
ATOM     21  C   UNL     1      -2.146  12.537  22.420  0.00  0.00    +0.000 A 
ATOM     22  C   UNL     1      -1.390  12.655  21.247  0.00  0.00    +0.000 A 
ATOM     23  C   UNL     1      -0.379  11.732  20.958  0.00  0.00    +0.000 A 
BRANCH  21  24
ATOM     24  O   UNL     1      -3.132  13.479  22.598  0.00  0.00    +0.000 OA
BRANCH  24  25
ATOM     25  C   UNL     1      -4.448  13.091  22.720  0.00  0.00    +0.000 A 
ATOM     26  C   UNL     1      -5.172  13.106  23.908  0.00  0.00    +0.000 A 
ATOM     27  C   UNL     1      -6.483  12.663  23.879  0.00  0.00    +0.000 A 
ATOM     28  N   UNL     1      -7.119  12.274  22.755  0.00  0.00    +0.000 NA
ATOM     29  C   UNL     1      -6.411  12.328  21.606  0.00  0.00    +0.000 A 
ATOM     30  C   UNL     1      -5.086  12.723  21.538  0.00  0.00    +0.000 A 
ENDBRANCH  24  25
ENDBRANCH  21  24
ENDBRANCH   2  18
TORSDOF 6
ENDMDL
MODEL 8
REMARK VINA RESULT:      -8.3      1.291     11.374
REMARK  Name = 
REMARK  6 active torsions:
REMARK  status: ('A' for Active; 'I' for Inactive)
REMARK    1  A    between atoms: C_2  and  C_17
REMARK    2  A    between atoms: N_3  and  C_4
REMARK    3  A    between atoms: C_7  and  O_8
REMARK    4  A    between atoms: O_8  and  C_9
REMARK    5  A    between atoms: C_20  and  O_21
REMARK    6  A    between atoms: O_21  and  C_22
REMARK                            x       y       z     vdW  Elec       q    Type
REMARK                         _______ _______ _______ _____ _____    ______ ____
ROOT
ATOM      1  O   UNL     1       1.896   8.327  21.948  0.00  0.00    +0.000 OA
ATOM      2  C   UNL     1       1.394   8.284  20.833  0.00  0.00    +0.000 C 
ATOM      3  N   UNL     1       0.331   9.048  20.371  0.00  0.00    +0.000 N 
ATOM      4  H   UNL     1      -0.108   8.771  19.505  0.00  0.00    +0.000 HD
ENDROOT
BRANCH   3   5
ATOM      5  C   UNL     1      -0.299  10.076  21.107  0.00  0.00    +0.000 A 
ATOM      6  C   UNL     1      -0.623  11.311  20.546  0.00  0.00    +0.000 A 
ATOM      7  C   UNL     1      -1.213  12.313  21.315  0.00  0.00    +0.000 A 
ATOM      8  C   UNL     1      -1.538  12.076  22.649  0.00  0.00    +0.000 A 
ATOM      9  C   UNL     1      -1.212  10.845  23.224  0.00  0.00    +0.000 A 
ATOM     10  C   UNL     1      -0.607   9.843  22.452  0.00  0.00    +0.000 A 
BRANCH   8  11
ATOM     11  O   UNL     1      -2.109  13.021  23.471  0.00  0.00    +0.000 OA
BRANCH  11  12
ATOM     12  C   UNL     1      -3.496  13.101  23.506  0.00  0.00    +0.000 A 
ATOM     13  N   UNL     1      -4.135  13.927  22.653  0.00  0.00    +0.000 NA
ATOM     14  C   UNL     1      -5.472  13.984  22.765  0.00  0.00    +0.000 A 
ATOM     15  C   UNL     1      -6.186  13.221  23.657  0.00  0.00    +0.000 A 
ATOM     16  C   UNL     1      -5.441  12.382  24.451  0.00  0.00    +0.000 A 
ATOM     17  N   UNL     1      -4.098  12.299  24.399  0.00  0.00    +0.000 NA
ENDBRANCH  11  12
ENDBRANCH   8  11
ENDBRANCH   3   5
BRANCH   2  18
ATOM     18  C   UNL     1       1.926   7.267  19.896  0.00  0.00    +0.000 A 
ATOM     19  C   UNL     1       1.992   5.946  20.359  0.00  0.00    +0.000 A 
ATOM     20  C   UNL     1       2.575   4.955  19.573  0.00  0.00    +0.000 A 
ATOM     21  C   UNL     1       3.041   5.265  18.294  0.00  0.00    +0.000 A 
ATOM     22  C   UNL     1       2.997   6.589  17.842  0.00  0.00    +0.000 A 
ATOM     23  C   UNL     1       2.442   7.595  18.641  0.00  0.00    +0.000 A 
BRANCH  21  24
ATOM     24  O   UNL     1       3.630   4.357  17.444  0.00  0.00    +0.000 OA
BRANCH  24  25
ATOM     25  C   UNL     1       4.946   4.511  17.071  0.00  0.00    +0.000 A 
ATOM     26  C   UNL     1       5.382   4.724  15.766  0.00  0.00    +0.000 A 
ATOM     27  C   UNL     1       6.742   4.837  15.542  0.00  0.00    +0.000 A 
ATOM     28  N   UNL     1       7.669   4.813  16.523  0.00  0.00    +0.000 NA
ATOM     29  C   UNL     1       7.214   4.667  17.786  0.00  0.00    +0.000 A 
ATOM     30  C   UNL     1       5.876   4.512  18.107  0.00  0.00    +0.000 A 
ENDBRANCH  24  25
ENDBRANCH  21  24
ENDBRANCH   2  18
TORSDOF 6
ENDMDL
MODEL 9
REMARK VINA RESULT:      -8.3      1.875      2.951
REMARK  Name = 
REMARK  6 active torsions:
REMARK  status: ('A' for Active; 'I' for Inactive)
REMARK    1  A    between atoms: C_2  and  C_17
REMARK    2  A    between atoms: N_3  and  C_4
REMARK    3  A    between atoms: C_7  and  O_8
REMARK    4  A    between atoms: O_8  and  C_9
REMARK    5  A    between atoms: C_20  and  O_21
REMARK    6  A    between atoms: O_21  and  C_22
REMARK                            x       y       z     vdW  Elec       q    Type
REMARK                         _______ _______ _______ _____ _____    ______ ____
ROOT
ATOM      1  O   UNL     1       1.380   9.726  22.167  0.00  0.00    +0.000 OA
ATOM      2  C   UNL     1       0.499   9.883  21.333  0.00  0.00    +0.000 C 
ATOM      3  N   UNL     1       0.468   9.359  20.049  0.00  0.00    +0.000 N 
ATOM      4  H   UNL     1      -0.214   9.728  19.404  0.00  0.00    +0.000 HD
ENDROOT
BRANCH   3   5
ATOM      5  C   UNL     1       1.435   8.476  19.518  0.00  0.00    +0.000 A 
ATOM      6  C   UNL     1       2.061   8.696  18.292  0.00  0.00    +0.000 A 
ATOM      7  C   UNL     1       2.984   7.782  17.785  0.00  0.00    +0.000 A 
ATOM      8  C   UNL     1       3.337   6.656  18.525  0.00  0.00    +0.000 A 
ATOM      9  C   UNL     1       2.713   6.421  19.752  0.00  0.00    +0.000 A 
ATOM     10  C   UNL     1       1.774   7.335  20.254  0.00  0.00    +0.000 A 
BRANCH   8  11
ATOM     11  O   UNL     1       4.230   5.706  18.084  0.00  0.00    +0.000 OA
BRANCH  11  12
ATOM     12  C   UNL     1       3.894   4.368  18.252  0.00  0.00    +0.000 A 
ATOM     13  N   UNL     1       4.520   3.638  19.197  0.00  0.00    +0.000 NA
ATOM     14  C   UNL     1       4.173   2.344  19.282  0.00  0.00    +0.000 A 
ATOM     15  C   UNL     1       3.203   1.771  18.495  0.00  0.00    +0.000 A 
ATOM     16  C   UNL     1       2.597   2.614  17.592  0.00  0.00    +0.000 A 
ATOM     17  N   UNL     1       2.919   3.913  17.448  0.00  0.00    +0.000 NA
ENDBRANCH  11  12
ENDBRANCH   8  11
ENDBRANCH   3   5
BRANCH   2  18
ATOM     18  C   UNL     1      -0.624  10.777  21.702  0.00  0.00    +0.000 A 
ATOM     19  C   UNL     1      -1.097  11.648  20.712  0.00  0.00    +0.000 A 
ATOM     20  C   UNL     1      -2.079  12.588  21.014  0.00  0.00    +0.000 A 
ATOM     21  C   UNL     1      -2.638  12.624  22.293  0.00  0.00    +0.000 A 
ATOM     22  C   UNL     1      -2.148  11.771  23.289  0.00  0.00    +0.000 A 
ATOM     23  C   UNL     1      -1.138  10.846  22.999  0.00  0.00    +0.000 A 
BRANCH  21  24
ATOM     24  O   UNL     1      -3.612  13.512  22.688  0.00  0.00    +0.000 OA
BRANCH  24  25
ATOM     25  C   UNL     1      -4.935  13.130  22.701  0.00  0.00    +0.000 A 
ATOM     26  C   UNL     1      -5.683  12.820  21.568  0.00  0.00    +0.000 A 
ATOM     27  C   UNL     1      -7.011  12.473  21.738  0.00  0.00    +0.000 A 
ATOM     28  N   UNL     1      -7.609  12.358  22.942  0.00  0.00    +0.000 NA
ATOM     29  C   UNL     1      -6.843  12.604  24.027  0.00  0.00    +0.000 A 
ATOM     30  C   UNL     1      -5.516  12.990  23.958  0.00  0.00    +0.000 A 
ENDBRANCH  24  25
ENDBRANCH  21  24
ENDBRANCH   2  18
TORSDOF 6
ENDMDL
