MODEL 1
REMARK VINA RESULT:      -8.6      0.000      0.000
REMARK  Name = 
REMARK  5 active torsions:
REMARK  status: ('A' for Active; 'I' for Inactive)
REMARK    1  A    between atoms: C_1  and  C_2
REMARK    2  A    between atoms: C_4  and  C_5
REMARK    3  A    between atoms: C_7  and  N_8
REMARK    4  A    between atoms: C_12  and  C_14
REMARK    5  A    between atoms: C_26  and  C_27
REMARK                            x       y       z     vdW  Elec       q    Type
REMARK                         _______ _______ _______ _____ _____    ______ ____
ROOT
ATOM      1  N   UNL     1      -0.784  10.990  18.178  0.00  0.00    +0.000 N 
ATOM      2  N   UNL     1      -0.171   9.786  18.208  0.00  0.00    +0.000 NA
ATOM      3  C   UNL     1       1.069  10.016  18.617  0.00  0.00    +0.000 A 
ATOM      4  N   UNL     1       2.079   9.078  18.663  0.00  0.00    +0.000 N 
ATOM      5  C   UNL     1       1.954   7.768  18.235  0.00  0.00    +0.000 C 
ATOM      6  O   UNL     1       0.939   7.204  17.844  0.00  0.00    +0.000 OA
ATOM      7  C   UNL     1       1.222  11.359  19.018  0.00  0.00    +0.000 A 
ATOM      8  C   UNL     1       0.005  11.965  18.775  0.00  0.00    +0.000 A 
ATOM      9  C   UNL     1      -0.456  13.326  19.153  0.00  0.00    +0.000 C 
ATOM     10  H   UNL     1       2.955   9.401  19.042  0.00  0.00    +0.000 HD
ENDROOT
BRANCH   5  11
ATOM     11  C   UNL     1       3.205   6.961  18.285  0.00  0.00    +0.000 A 
ATOM     12  C   UNL     1       3.366   6.056  19.347  0.00  0.00    +0.000 A 
ATOM     13  C   UNL     1       4.519   5.273  19.443  0.00  0.00    +0.000 A 
ATOM     14  C   UNL     1       5.503   5.379  18.463  0.00  0.00    +0.000 A 
ATOM     15  C   UNL     1       5.336   6.254  17.386  0.00  0.00    +0.000 A 
ATOM     16  C   UNL     1       4.192   7.048  17.296  0.00  0.00    +0.000 A 
ATOM     17  O   UNL     1       6.271   6.432  16.403  0.00  0.00    +0.000 OA
ATOM     18  C   UNL     1       7.248   5.402  16.333  0.00  0.00    +0.000 C 
ATOM     19  C   UNL     1       7.627   4.636  17.599  0.00  0.00    +0.000 C 
ATOM     20  O   UNL     1       8.676   4.009  17.719  0.00  0.00    +0.000 OA
ATOM     21  N   UNL     1       6.670   4.625  18.576  0.00  0.00    +0.000 N 
ATOM     22  H   UNL     1       6.853   4.057  19.393  0.00  0.00    +0.000 HD
ENDBRANCH   5  11
BRANCH   1  29
ATOM     23  C   UNL     1      -3.779  10.180  14.306  0.00  0.00    +0.000 C 
ATOM     24  C   UNL     1      -3.555  10.726  15.685  0.00  0.00    +0.000 A 
ATOM     25  C   UNL     1      -4.609  11.272  16.427  0.00  0.00    +0.000 A 
ATOM     26  C   UNL     1      -4.409  11.717  17.739  0.00  0.00    +0.000 A 
ATOM     27  C   UNL     1      -5.533  12.312  18.535  0.00  0.00    +0.000 C 
ATOM     28  C   UNL     1      -3.135  11.605  18.312  0.00  0.00    +0.000 A 
ATOM     29  C   UNL     1      -2.060  11.101  17.564  0.00  0.00    +0.000 A 
ATOM     30  C   UNL     1      -2.277  10.656  16.256  0.00  0.00    +0.000 A 
ENDBRANCH   1  29
TORSDOF 2
ENDMDL
MODEL 2
REMARK VINA RESULT:      -8.6      3.686      4.817
REMARK  Name = 
REMARK  5 active torsions:
REMARK  status: ('A' for Active; 'I' for Inactive)
REMARK    1  A    between atoms: C_1  and  C_2
REMARK    2  A    between atoms: C_4  and  C_5
REMARK    3  A    between atoms: C_7  and  N_8
REMARK    4  A    between atoms: C_12  and  C_14
REMARK    5  A    between atoms: C_26  and  C_27
REMARK                            x       y       z     vdW  Elec       q    Type
REMARK                         _______ _______ _______ _____ _____    ______ ____
ROOT
ATOM      1  N   UNL     1       0.747  12.269  19.789  0.00  0.00    +0.000 N 
ATOM      2  N   UNL     1       1.137  11.215  19.040  0.00  0.00    +0.000 NA
ATOM      3  C   UNL     1       1.047  10.151  19.826  0.00  0.00    +0.000 A 
ATOM      4  N   UNL     1       1.478   8.882  19.501  0.00  0.00    +0.000 N 
ATOM      5  C   UNL     1       2.116   8.548  18.321  0.00  0.00    +0.000 C 
ATOM      6  O   UNL     1       2.321   9.270  17.352  0.00  0.00    +0.000 OA
ATOM      7  C   UNL     1       0.434  10.487  21.051  0.00  0.00    +0.000 A 
ATOM      8  C   UNL     1       0.201  11.847  20.995  0.00  0.00    +0.000 A 
ATOM      9  C   UNL     1      -0.563  12.706  21.936  0.00  0.00    +0.000 C 
ATOM     10  H   UNL     1       1.296   8.172  20.193  0.00  0.00    +0.000 HD
ENDROOT
BRANCH   5  11
ATOM     11  C   UNL     1       2.582   7.136  18.227  0.00  0.00    +0.000 A 
ATOM     12  C   UNL     1       3.787   6.880  17.554  0.00  0.00    +0.000 A 
ATOM     13  C   UNL     1       4.271   5.574  17.436  0.00  0.00    +0.000 A 
ATOM     14  C   UNL     1       3.559   4.525  18.013  0.00  0.00    +0.000 A 
ATOM     15  C   UNL     1       2.375   4.775  18.712  0.00  0.00    +0.000 A 
ATOM     16  C   UNL     1       1.882   6.077  18.818  0.00  0.00    +0.000 A 
ATOM     17  O   UNL     1       1.609   3.793  19.279  0.00  0.00    +0.000 OA
ATOM     18  C   UNL     1       2.280   2.552  19.445  0.00  0.00    +0.000 C 
ATOM     19  C   UNL     1       3.400   2.166  18.481  0.00  0.00    +0.000 C 
ATOM     20  O   UNL     1       3.779   1.010  18.314  0.00  0.00    +0.000 OA
ATOM     21  N   UNL     1       4.022   3.218  17.866  0.00  0.00    +0.000 N 
ATOM     22  H   UNL     1       4.823   3.005  17.286  0.00  0.00    +0.000 HD
ENDBRANCH   5  11
BRANCH   1  29
ATOM     23  C   UNL     1      -0.958  16.846  18.915  0.00  0.00    +0.000 C 
ATOM     24  C   UNL     1       0.147  15.834  18.843  0.00  0.00    +0.000 A 
ATOM     25  C   UNL     1       1.418  16.183  18.371  0.00  0.00    +0.000 A 
ATOM     26  C   UNL     1       2.464  15.253  18.371  0.00  0.00    +0.000 A 
ATOM     27  C   UNL     1       3.826  15.619  17.857  0.00  0.00    +0.000 C 
ATOM     28  C   UNL     1       2.229  13.960  18.857  0.00  0.00    +0.000 A 
ATOM     29  C   UNL     1       0.949  13.584  19.292  0.00  0.00    +0.000 A 
ATOM     30  C   UNL     1      -0.085  14.526  19.290  0.00  0.00    +0.000 A 
ENDBRANCH   1  29
TORSDOF 2
ENDMDL
MODEL 3
REMARK VINA RESULT:      -8.5      3.622      5.131
REMARK  Name = 
REMARK  5 active torsions:
REMARK  status: ('A' for Active; 'I' for Inactive)
REMARK    1  A    between atoms: C_1  and  C_2
REMARK    2  A    between atoms: C_4  and  C_5
REMARK    3  A    between atoms: C_7  and  N_8
REMARK    4  A    between atoms: C_12  and  C_14
REMARK    5  A    between atoms: C_26  and  C_27
REMARK                            x       y       z     vdW  Elec       q    Type
REMARK                         _______ _______ _______ _____ _____    ______ ____
ROOT
ATOM      1  N   UNL     1      -0.276  12.354  20.899  0.00  0.00    +0.000 N 
ATOM      2  N   UNL     1       0.354  11.173  21.077  0.00  0.00    +0.000 NA
ATOM      3  C   UNL     1       0.650  10.726  19.864  0.00  0.00    +0.000 A 
ATOM      4  N   UNL     1       1.181   9.486  19.580  0.00  0.00    +0.000 N 
ATOM      5  C   UNL     1       1.432   8.505  20.522  0.00  0.00    +0.000 C 
ATOM      6  O   UNL     1       1.322   8.592  21.739  0.00  0.00    +0.000 OA
ATOM      7  C   UNL     1       0.360  11.703  18.889  0.00  0.00    +0.000 A 
ATOM      8  C   UNL     1      -0.192  12.767  19.575  0.00  0.00    +0.000 A 
ATOM      9  C   UNL     1      -0.534  14.125  19.078  0.00  0.00    +0.000 C 
ATOM     10  H   UNL     1       1.392   9.316  18.609  0.00  0.00    +0.000 HD
ENDROOT
BRANCH   5  11
ATOM     11  C   UNL     1       1.914   7.206  19.974  0.00  0.00    +0.000 A 
ATOM     12  C   UNL     1       2.500   7.202  18.698  0.00  0.00    +0.000 A 
ATOM     13  C   UNL     1       2.970   6.013  18.135  0.00  0.00    +0.000 A 
ATOM     14  C   UNL     1       2.872   4.827  18.860  0.00  0.00    +0.000 A 
ATOM     15  C   UNL     1       2.319   4.827  20.143  0.00  0.00    +0.000 A 
ATOM     16  C   UNL     1       1.836   6.012  20.701  0.00  0.00    +0.000 A 
ATOM     17  O   UNL     1       2.164   3.698  20.901  0.00  0.00    +0.000 OA
ATOM     18  C   UNL     1       2.944   2.593  20.467  0.00  0.00    +0.000 C 
ATOM     19  C   UNL     1       3.305   2.460  18.988  0.00  0.00    +0.000 C 
ATOM     20  O   UNL     1       3.643   1.400  18.469  0.00  0.00    +0.000 OA
ATOM     21  N   UNL     1       3.307   3.633  18.286  0.00  0.00    +0.000 N 
ATOM     22  H   UNL     1       3.624   3.595  17.326  0.00  0.00    +0.000 HD
ENDBRANCH   5  11
BRANCH   1  29
ATOM     23  C   UNL     1      -0.596  16.088  24.151  0.00  0.00    +0.000 C 
ATOM     24  C   UNL     1      -1.101  14.779  23.618  0.00  0.00    +0.000 A 
ATOM     25  C   UNL     1      -2.258  14.186  24.138  0.00  0.00    +0.000 A 
ATOM     26  C   UNL     1      -2.765  13.001  23.591  0.00  0.00    +0.000 A 
ATOM     27  C   UNL     1      -3.999  12.356  24.150  0.00  0.00    +0.000 C 
ATOM     28  C   UNL     1      -2.102  12.411  22.506  0.00  0.00    +0.000 A 
ATOM     29  C   UNL     1      -0.917  12.971  22.006  0.00  0.00    +0.000 A 
ATOM     30  C   UNL     1      -0.426  14.158  22.559  0.00  0.00    +0.000 A 
ENDBRANCH   1  29
TORSDOF 2
ENDMDL
MODEL 4
REMARK VINA RESULT:      -8.5      3.710      4.664
REMARK  Name = 
REMARK  5 active torsions:
REMARK  status: ('A' for Active; 'I' for Inactive)
REMARK    1  A    between atoms: C_1  and  C_2
REMARK    2  A    between atoms: C_4  and  C_5
REMARK    3  A    between atoms: C_7  and  N_8
REMARK    4  A    between atoms: C_12  and  C_14
REMARK    5  A    between atoms: C_26  and  C_27
REMARK                            x       y       z     vdW  Elec       q    Type
REMARK                         _______ _______ _______ _____ _____    ______ ____
ROOT
ATOM      1  N   UNL     1       0.779  12.269  19.829  0.00  0.00    +0.000 N 
ATOM      2  N   UNL     1       1.181  11.223  19.074  0.00  0.00    +0.000 NA
ATOM      3  C   UNL     1       1.041  10.146  19.834  0.00  0.00    +0.000 A 
ATOM      4  N   UNL     1       1.462   8.875  19.501  0.00  0.00    +0.000 N 
ATOM      5  C   UNL     1       2.141   8.553  18.340  0.00  0.00    +0.000 C 
ATOM      6  O   UNL     1       2.396   9.289  17.395  0.00  0.00    +0.000 OA
ATOM      7  C   UNL     1       0.386  10.468  21.041  0.00  0.00    +0.000 A 
ATOM      8  C   UNL     1       0.179  11.833  21.003  0.00  0.00    +0.000 A 
ATOM      9  C   UNL     1      -0.607  12.688  21.931  0.00  0.00    +0.000 C 
ATOM     10  H   UNL     1       1.240   8.155  20.170  0.00  0.00    +0.000 HD
ENDROOT
BRANCH   5  11
ATOM     11  C   UNL     1       2.585   7.135  18.236  0.00  0.00    +0.000 A 
ATOM     12  C   UNL     1       3.734   6.855  17.480  0.00  0.00    +0.000 A 
ATOM     13  C   UNL     1       4.197   5.543  17.349  0.00  0.00    +0.000 A 
ATOM     14  C   UNL     1       3.520   4.511  17.995  0.00  0.00    +0.000 A 
ATOM     15  C   UNL     1       2.393   4.785  18.775  0.00  0.00    +0.000 A 
ATOM     16  C   UNL     1       1.921   6.093  18.895  0.00  0.00    +0.000 A 
ATOM     17  O   UNL     1       1.662   3.820  19.412  0.00  0.00    +0.000 OA
ATOM     18  C   UNL     1       2.332   2.574  19.550  0.00  0.00    +0.000 C 
ATOM     19  C   UNL     1       3.374   2.161  18.512  0.00  0.00    +0.000 C 
ATOM     20  O   UNL     1       3.729   0.999  18.338  0.00  0.00    +0.000 OA
ATOM     21  N   UNL     1       3.958   3.197  17.836  0.00  0.00    +0.000 N 
ATOM     22  H   UNL     1       4.713   2.966  17.203  0.00  0.00    +0.000 HD
ENDBRANCH   5  11
BRANCH   1  29
ATOM     23  C   UNL     1       3.816  15.616  17.782  0.00  0.00    +0.000 C 
ATOM     24  C   UNL     1       2.484  15.257  18.371  0.00  0.00    +0.000 A 
ATOM     25  C   UNL     1       1.432  16.180  18.396  0.00  0.00    +0.000 A 
ATOM     26  C   UNL     1       0.170  15.819  18.884  0.00  0.00    +0.000 A 
ATOM     27  C   UNL     1      -0.958  16.806  18.923  0.00  0.00    +0.000 C 
ATOM     28  C   UNL     1      -0.035  14.511  19.345  0.00  0.00    +0.000 A 
ATOM     29  C   UNL     1       1.023  13.590  19.366  0.00  0.00    +0.000 A 
ATOM     30  C   UNL     1       2.276  13.965  18.871  0.00  0.00    +0.000 A 
ENDBRANCH   1  29
TORSDOF 2
ENDMDL
MODEL 5
REMARK VINA RESULT:      -8.5      0.095      1.635
REMARK  Name = 
REMARK  5 active torsions:
REMARK  status: ('A' for Active; 'I' for Inactive)
REMARK    1  A    between atoms: C_1  and  C_2
REMARK    2  A    between atoms: C_4  and  C_5
REMARK    3  A    between atoms: C_7  and  N_8
REMARK    4  A    between atoms: C_12  and  C_14
REMARK    5  A    between atoms: C_26  and  C_27
REMARK                            x       y       z     vdW  Elec       q    Type
REMARK                         _______ _______ _______ _____ _____    ______ ____
ROOT
ATOM      1  N   UNL     1      -0.782  10.889  18.208  0.00  0.00    +0.000 N 
ATOM      2  N   UNL     1      -0.165   9.687  18.236  0.00  0.00    +0.000 NA
ATOM      3  C   UNL     1       1.080   9.922  18.629  0.00  0.00    +0.000 A 
ATOM      4  N   UNL     1       2.093   8.988  18.666  0.00  0.00    +0.000 N 
ATOM      5  C   UNL     1       1.967   7.676  18.247  0.00  0.00    +0.000 C 
ATOM      6  O   UNL     1       0.949   7.107  17.871  0.00  0.00    +0.000 OA
ATOM      7  C   UNL     1       1.233  11.268  19.022  0.00  0.00    +0.000 A 
ATOM      8  C   UNL     1       0.011  11.869  18.791  0.00  0.00    +0.000 A 
ATOM      9  C   UNL     1      -0.450  13.230  19.168  0.00  0.00    +0.000 C 
ATOM     10  H   UNL     1       2.972   9.316  19.034  0.00  0.00    +0.000 HD
ENDROOT
BRANCH   5  11
ATOM     11  C   UNL     1       3.221   6.873  18.285  0.00  0.00    +0.000 A 
ATOM     12  C   UNL     1       3.391   5.961  19.339  0.00  0.00    +0.000 A 
ATOM     13  C   UNL     1       4.547   5.181  19.425  0.00  0.00    +0.000 A 
ATOM     14  C   UNL     1       5.526   5.298  18.441  0.00  0.00    +0.000 A 
ATOM     15  C   UNL     1       5.350   6.180  17.371  0.00  0.00    +0.000 A 
ATOM     16  C   UNL     1       4.203   6.970  17.292  0.00  0.00    +0.000 A 
ATOM     17  O   UNL     1       6.280   6.368  16.385  0.00  0.00    +0.000 OA
ATOM     18  C   UNL     1       7.260   5.342  16.303  0.00  0.00    +0.000 C 
ATOM     19  C   UNL     1       7.649   4.569  17.562  0.00  0.00    +0.000 C 
ATOM     20  O   UNL     1       8.700   3.945  17.673  0.00  0.00    +0.000 OA
ATOM     21  N   UNL     1       6.696   4.547  18.543  0.00  0.00    +0.000 N 
ATOM     22  H   UNL     1       6.885   3.974  19.356  0.00  0.00    +0.000 HD
ENDBRANCH   5  11
BRANCH   1  29
ATOM     23  C   UNL     1      -5.507  12.391  18.397  0.00  0.00    +0.000 C 
ATOM     24  C   UNL     1      -4.387  11.709  17.668  0.00  0.00    +0.000 A 
ATOM     25  C   UNL     1      -4.555  11.243  16.359  0.00  0.00    +0.000 A 
ATOM     26  C   UNL     1      -3.486  10.669  15.658  0.00  0.00    +0.000 A 
ATOM     27  C   UNL     1      -3.663  10.160  14.258  0.00  0.00    +0.000 C 
ATOM     28  C   UNL     1      -2.235  10.570  16.282  0.00  0.00    +0.000 A 
ATOM     29  C   UNL     1      -2.066  10.993  17.609  0.00  0.00    +0.000 A 
ATOM     30  C   UNL     1      -3.141  11.567  18.294  0.00  0.00    +0.000 A 
ENDBRANCH   1  29
TORSDOF 2
ENDMDL
MODEL 6
REMARK VINA RESULT:      -8.5      3.615      5.077
REMARK  Name = 
REMARK  5 active torsions:
REMARK  status: ('A' for Active; 'I' for Inactive)
REMARK    1  A    between atoms: C_1  and  C_2
REMARK    2  A    between atoms: C_4  and  C_5
REMARK    3  A    between atoms: C_7  and  N_8
REMARK    4  A    between atoms: C_12  and  C_14
REMARK    5  A    between atoms: C_26  and  C_27
REMARK                            x       y       z     vdW  Elec       q    Type
REMARK                         _______ _______ _______ _____ _____    ______ ____
ROOT
ATOM      1  N   UNL     1      -0.255  12.326  20.787  0.00  0.00    +0.000 N 
ATOM      2  N   UNL     1       0.359  11.141  20.996  0.00  0.00    +0.000 NA
ATOM      3  C   UNL     1       0.700  10.687  19.797  0.00  0.00    +0.000 A 
ATOM      4  N   UNL     1       1.233   9.441  19.539  0.00  0.00    +0.000 N 
ATOM      5  C   UNL     1       1.440   8.464  20.495  0.00  0.00    +0.000 C 
ATOM      6  O   UNL     1       1.283   8.558  21.706  0.00  0.00    +0.000 OA
ATOM      7  C   UNL     1       0.454  11.660  18.807  0.00  0.00    +0.000 A 
ATOM      8  C   UNL     1      -0.117  12.732  19.465  0.00  0.00    +0.000 A 
ATOM      9  C   UNL     1      -0.431  14.089  18.949  0.00  0.00    +0.000 C 
ATOM     10  H   UNL     1       1.480   9.266  18.578  0.00  0.00    +0.000 HD
ENDROOT
BRANCH   5  11
ATOM     11  C   UNL     1       1.934   7.159  19.973  0.00  0.00    +0.000 A 
ATOM     12  C   UNL     1       2.541   7.140  18.707  0.00  0.00    +0.000 A 
ATOM     13  C   UNL     1       3.022   5.944  18.167  0.00  0.00    +0.000 A 
ATOM     14  C   UNL     1       2.917   4.768  18.907  0.00  0.00    +0.000 A 
ATOM     15  C   UNL     1       2.343   4.784  20.181  0.00  0.00    +0.000 A 
ATOM     16  C   UNL     1       1.848   5.975  20.714  0.00  0.00    +0.000 A 
ATOM     17  O   UNL     1       2.179   3.665  20.951  0.00  0.00    +0.000 OA
ATOM     18  C   UNL     1       2.968   2.555  20.544  0.00  0.00    +0.000 C 
ATOM     19  C   UNL     1       3.353   2.403  19.073  0.00  0.00    +0.000 C 
ATOM     20  O   UNL     1       3.703   1.338  18.574  0.00  0.00    +0.000 OA
ATOM     21  N   UNL     1       3.364   3.568  18.356  0.00  0.00    +0.000 N 
ATOM     22  H   UNL     1       3.696   3.517  17.401  0.00  0.00    +0.000 HD
ENDBRANCH   5  11
BRANCH   1  29
ATOM     23  C   UNL     1      -3.927  12.351  24.123  0.00  0.00    +0.000 C 
ATOM     24  C   UNL     1      -2.723  13.002  23.510  0.00  0.00    +0.000 A 
ATOM     25  C   UNL     1      -2.192  14.184  24.038  0.00  0.00    +0.000 A 
ATOM     26  C   UNL     1      -1.027  14.750  23.505  0.00  0.00    +0.000 A 
ATOM     27  C   UNL     1      -0.460  16.023  24.061  0.00  0.00    +0.000 C 
ATOM     28  C   UNL     1      -0.388  14.114  22.433  0.00  0.00    +0.000 A 
ATOM     29  C   UNL     1      -0.934  12.953  21.866  0.00  0.00    +0.000 A 
ATOM     30  C   UNL     1      -2.095  12.397  22.412  0.00  0.00    +0.000 A 
ENDBRANCH   1  29
TORSDOF 2
ENDMDL
MODEL 7
REMARK VINA RESULT:      -8.3      3.351      4.735
REMARK  Name = 
REMARK  5 active torsions:
REMARK  status: ('A' for Active; 'I' for Inactive)
REMARK    1  A    between atoms: C_1  and  C_2
REMARK    2  A    between atoms: C_4  and  C_5
REMARK    3  A    between atoms: C_7  and  N_8
REMARK    4  A    between atoms: C_12  and  C_14
REMARK    5  A    between atoms: C_26  and  C_27
REMARK                            x       y       z     vdW  Elec       q    Type
REMARK                         _______ _______ _______ _____ _____    ______ ____
ROOT
ATOM      1  N   UNL     1      -0.081  12.047  20.630  0.00  0.00    +0.000 N 
ATOM      2  N   UNL     1       0.511  10.868  20.920  0.00  0.00    +0.000 NA
ATOM      3  C   UNL     1       0.736  10.274  19.756  0.00  0.00    +0.000 A 
ATOM      4  N   UNL     1       1.205   8.987  19.596  0.00  0.00    +0.000 N 
ATOM      5  C   UNL     1       1.461   8.111  20.635  0.00  0.00    +0.000 C 
ATOM      6  O   UNL     1       1.408   8.341  21.837  0.00  0.00    +0.000 OA
ATOM      7  C   UNL     1       0.440  11.144  18.686  0.00  0.00    +0.000 A 
ATOM      8  C   UNL     1      -0.040  12.303  19.265  0.00  0.00    +0.000 A 
ATOM      9  C   UNL     1      -0.352  13.608  18.629  0.00  0.00    +0.000 C 
ATOM     10  H   UNL     1       1.366   8.699  18.644  0.00  0.00    +0.000 HD
ENDROOT
BRANCH   5  11
ATOM     11  C   UNL     1       1.867   6.738  20.223  0.00  0.00    +0.000 A 
ATOM     12  C   UNL     1       1.439   5.657  21.009  0.00  0.00    +0.000 A 
ATOM     13  C   UNL     1       1.790   4.347  20.670  0.00  0.00    +0.000 A 
ATOM     14  C   UNL     1       2.553   4.118  19.527  0.00  0.00    +0.000 A 
ATOM     15  C   UNL     1       2.957   5.186  18.721  0.00  0.00    +0.000 A 
ATOM     16  C   UNL     1       2.620   6.495  19.068  0.00  0.00    +0.000 A 
ATOM     17  O   UNL     1       3.732   5.039  17.603  0.00  0.00    +0.000 OA
ATOM     18  C   UNL     1       3.780   3.713  17.096  0.00  0.00    +0.000 C 
ATOM     19  C   UNL     1       3.616   2.534  18.054  0.00  0.00    +0.000 C 
ATOM     20  O   UNL     1       3.994   1.395  17.793  0.00  0.00    +0.000 OA
ATOM     21  N   UNL     1       2.935   2.816  19.206  0.00  0.00    +0.000 N 
ATOM     22  H   UNL     1       2.734   2.040  19.824  0.00  0.00    +0.000 HD
ENDBRANCH   5  11
BRANCH   1  29
ATOM     23  C   UNL     1      -0.101  16.130  23.450  0.00  0.00    +0.000 C 
ATOM     24  C   UNL     1      -0.685  14.797  23.087  0.00  0.00    +0.000 A 
ATOM     25  C   UNL     1      -1.845  14.322  23.711  0.00  0.00    +0.000 A 
ATOM     26  C   UNL     1      -2.426  13.109  23.320  0.00  0.00    +0.000 A 
ATOM     27  C   UNL     1      -3.663  12.591  23.991  0.00  0.00    +0.000 C 
ATOM     28  C   UNL     1      -1.835  12.371  22.286  0.00  0.00    +0.000 A 
ATOM     29  C   UNL     1      -0.648  12.814  21.683  0.00  0.00    +0.000 A 
ATOM     30  C   UNL     1      -0.083  14.029  22.081  0.00  0.00    +0.000 A 
ENDBRANCH   1  29
TORSDOF 2
ENDMDL
MODEL 8
REMARK VINA RESULT:      -8.3      3.949      4.695
REMARK  Name = 
REMARK  5 active torsions:
REMARK  status: ('A' for Active; 'I' for Inactive)
REMARK    1  A    between atoms: C_1  and  C_2
REMARK    2  A    between atoms: C_4  and  C_5
REMARK    3  A    between atoms: C_7  and  N_8
REMARK    4  A    between atoms: C_12  and  C_14
REMARK    5  A    between atoms: C_26  and  C_27
REMARK                            x       y       z     vdW  Elec       q    Type
REMARK                         _______ _______ _______ _____ _____    ______ ____
ROOT
ATOM      1  N   UNL     1       0.729  12.433  20.303  0.00  0.00    +0.000 N 
ATOM      2  N   UNL     1       1.064  11.285  19.675  0.00  0.00    +0.000 NA
ATOM      3  C   UNL     1       0.802  10.307  20.531  0.00  0.00    +0.000 A 
ATOM      4  N   UNL     1       1.121   8.978  20.345  0.00  0.00    +0.000 N 
ATOM      5  C   UNL     1       1.811   8.482  19.255  0.00  0.00    +0.000 C 
ATOM      6  O   UNL     1       2.166   9.094  18.254  0.00  0.00    +0.000 OA
ATOM      7  C   UNL     1       0.133  10.805  21.669  0.00  0.00    +0.000 A 
ATOM      8  C   UNL     1       0.049  12.172  21.486  0.00  0.00    +0.000 A 
ATOM      9  C   UNL     1      -0.692  13.180  22.287  0.00  0.00    +0.000 C 
ATOM     10  H   UNL     1       0.811   8.352  21.071  0.00  0.00    +0.000 HD
ENDROOT
BRANCH   5  11
ATOM     11  C   UNL     1       2.132   7.029  19.312  0.00  0.00    +0.000 A 
ATOM     12  C   UNL     1       1.827   6.330  20.491  0.00  0.00    +0.000 A 
ATOM     13  C   UNL     1       2.105   4.965  20.601  0.00  0.00    +0.000 A 
ATOM     14  C   UNL     1       2.669   4.292  19.520  0.00  0.00    +0.000 A 
ATOM     15  C   UNL     1       2.947   4.974  18.331  0.00  0.00    +0.000 A 
ATOM     16  C   UNL     1       2.684   6.340  18.225  0.00  0.00    +0.000 A 
ATOM     17  O   UNL     1       3.528   4.386  17.240  0.00  0.00    +0.000 OA
ATOM     18  C   UNL     1       3.480   2.966  17.247  0.00  0.00    +0.000 C 
ATOM     19  C   UNL     1       3.463   2.219  18.580  0.00  0.00    +0.000 C 
ATOM     20  O   UNL     1       3.781   1.039  18.697  0.00  0.00    +0.000 OA
ATOM     21  N   UNL     1       2.981   2.939  19.639  0.00  0.00    +0.000 N 
ATOM     22  H   UNL     1       2.876   2.450  20.519  0.00  0.00    +0.000 HD
ENDBRANCH   5  11
BRANCH   1  29
ATOM     23  C   UNL     1       4.219  15.421  18.431  0.00  0.00    +0.000 C 
ATOM     24  C   UNL     1       2.789  15.166  18.806  0.00  0.00    +0.000 A 
ATOM     25  C   UNL     1       1.788  16.101  18.514  0.00  0.00    +0.000 A 
ATOM     26  C   UNL     1       0.446  15.829  18.804  0.00  0.00    +0.000 A 
ATOM     27  C   UNL     1      -0.630  16.830  18.502  0.00  0.00    +0.000 C 
ATOM     28  C   UNL     1       0.108  14.600  19.387  0.00  0.00    +0.000 A 
ATOM     29  C   UNL     1       1.106  13.674  19.724  0.00  0.00    +0.000 A 
ATOM     30  C   UNL     1       2.442  13.958  19.425  0.00  0.00    +0.000 A 
ENDBRANCH   1  29
TORSDOF 2
ENDMDL
MODEL 9
REMARK VINA RESULT:      -8.2      3.945      4.861
REMARK  Name = 
REMARK  5 active torsions:
REMARK  status: ('A' for Active; 'I' for Inactive)
REMARK    1  A    between atoms: C_1  and  C_2
REMARK    2  A    between atoms: C_4  and  C_5
REMARK    3  A    between atoms: C_7  and  N_8
REMARK    4  A    between atoms: C_12  and  C_14
REMARK    5  A    between atoms: C_26  and  C_27
REMARK                            x       y       z     vdW  Elec       q    Type
REMARK                         _______ _______ _______ _____ _____    ______ ____
ROOT
ATOM      1  N   UNL     1       0.703  12.418  20.354  0.00  0.00    +0.000 N 
ATOM      2  N   UNL     1       1.049  11.278  19.718  0.00  0.00    +0.000 NA
ATOM      3  C   UNL     1       0.773  10.289  20.557  0.00  0.00    +0.000 A 
ATOM      4  N   UNL     1       1.096   8.963  20.360  0.00  0.00    +0.000 N 
ATOM      5  C   UNL     1       1.805   8.481  19.275  0.00  0.00    +0.000 C 
ATOM      6  O   UNL     1       2.176   9.105  18.288  0.00  0.00    +0.000 OA
ATOM      7  C   UNL     1       0.086  10.773  21.689  0.00  0.00    +0.000 A 
ATOM      8  C   UNL     1       0.004  12.142  21.522  0.00  0.00    +0.000 A 
ATOM      9  C   UNL     1      -0.751  13.140  22.324  0.00  0.00    +0.000 C 
ATOM     10  H   UNL     1       0.775   8.328  21.073  0.00  0.00    +0.000 HD
ENDROOT
BRANCH   5  11
ATOM     11  C   UNL     1       2.125   7.027  19.320  0.00  0.00    +0.000 A 
ATOM     12  C   UNL     1       1.822   6.319  20.494  0.00  0.00    +0.000 A 
ATOM     13  C   UNL     1       2.100   4.952  20.591  0.00  0.00    +0.000 A 
ATOM     14  C   UNL     1       2.663   4.289  19.504  0.00  0.00    +0.000 A 
ATOM     15  C   UNL     1       2.939   4.980  18.321  0.00  0.00    +0.000 A 
ATOM     16  C   UNL     1       2.675   6.347  18.227  0.00  0.00    +0.000 A 
ATOM     17  O   UNL     1       3.517   4.401  17.224  0.00  0.00    +0.000 OA
ATOM     18  C   UNL     1       3.469   2.981  17.219  0.00  0.00    +0.000 C 
ATOM     19  C   UNL     1       3.454   2.224  18.546  0.00  0.00    +0.000 C 
ATOM     20  O   UNL     1       3.773   1.043  18.652  0.00  0.00    +0.000 OA
ATOM     21  N   UNL     1       2.974   2.934  19.611  0.00  0.00    +0.000 N 
ATOM     22  H   UNL     1       2.871   2.438  20.487  0.00  0.00    +0.000 HD
ENDBRANCH   5  11
BRANCH   1  29
ATOM     23  C   UNL     1      -0.508  16.773  18.308  0.00  0.00    +0.000 C 
ATOM     24  C   UNL     1       0.534  15.805  18.787  0.00  0.00    +0.000 A 
ATOM     25  C   UNL     1       1.893  16.143  18.778  0.00  0.00    +0.000 A 
ATOM     26  C   UNL     1       2.855  15.264  19.290  0.00  0.00    +0.000 A 
ATOM     27  C   UNL     1       4.313  15.616  19.274  0.00  0.00    +0.000 C 
ATOM     28  C   UNL     1       2.442  14.034  19.822  0.00  0.00    +0.000 A 
ATOM     29  C   UNL     1       1.089  13.666  19.796  0.00  0.00    +0.000 A 
ATOM     30  C   UNL     1       0.140  14.557  19.286  0.00  0.00    +0.000 A 
ENDBRANCH   1  29
TORSDOF 2
ENDMDL
