MODEL 1
REMARK VINA RESULT:      -8.8      0.000      0.000
REMARK  Name = 
REMARK  6 active torsions:
REMARK  status: ('A' for Active; 'I' for Inactive)
REMARK    1  A    between atoms: C_1  and  C_2
REMARK    2  A    between atoms: C_5  and  C_6
REMARK    3  A    between atoms: C_10  and  N_11
REMARK    4  A    between atoms: C_12  and  C_14
REMARK    5  A    between atoms: C_17  and  N_18
REMARK    6  A    between atoms: C_21  and  O_22
REMARK                            x       y       z     vdW  Elec       q    Type
REMARK                         _______ _______ _______ _____ _____    ______ ____
ROOT
ATOM      1  N   UNL     1       2.323   8.468  18.345  0.00  0.00    +0.000 N 
ATOM      2  C   UNL     1       2.639   7.191  18.782  0.00  0.00    +0.000 C 
ATOM      3  O   UNL     1       2.012   6.541  19.615  0.00  0.00    +0.000 OA
ATOM      4  H   UNL     1       2.780   8.815  17.514  0.00  0.00    +0.000 HD
ENDROOT
BRANCH   1   9
ATOM      5  C   UNL     1      -0.916  10.321  18.419  0.00  0.00    +0.000 A 
ATOM      6  C   UNL     1      -1.002  10.645  19.782  0.00  0.00    +0.000 A 
ATOM      7  C   UNL     1       0.016  10.299  20.659  0.00  0.00    +0.000 A 
ATOM      8  C   UNL     1       1.128   9.608  20.188  0.00  0.00    +0.000 A 
ATOM      9  C   UNL     1       1.237   9.240  18.843  0.00  0.00    +0.000 A 
ATOM     10  C   UNL     1       0.223   9.633  17.954  0.00  0.00    +0.000 A 
BRANCH   5  15
ATOM     11  C   UNL     1      -3.601  10.153  14.411  0.00  0.00    +0.000 C 
ATOM     12  C   UNL     1      -3.255  10.581  15.775  0.00  0.00    +0.000 A 
ATOM     13  C   UNL     1      -3.886  11.334  16.735  0.00  0.00    +0.000 A 
ATOM     14  N   UNL     1      -3.110  11.395  17.860  0.00  0.00    +0.000 NA
ATOM     15  C   UNL     1      -2.043  10.676  17.559  0.00  0.00    +0.000 A 
ATOM     16  O   UNL     1      -2.059  10.159  16.287  0.00  0.00    +0.000 OA
ENDBRANCH   5  15
ENDBRANCH   1   9
BRANCH   2  17
ATOM     17  C   UNL     1       3.805   6.504  18.159  0.00  0.00    +0.000 A 
ATOM     18  C   UNL     1       4.497   7.016  17.057  0.00  0.00    +0.000 A 
ATOM     19  C   UNL     1       5.661   6.374  16.607  0.00  0.00    +0.000 A 
ATOM     20  C   UNL     1       6.139   5.225  17.266  0.00  0.00    +0.000 A 
ATOM     21  C   UNL     1       5.444   4.709  18.363  0.00  0.00    +0.000 A 
ATOM     22  C   UNL     1       4.282   5.344  18.797  0.00  0.00    +0.000 A 
BRANCH  20  23
ATOM     23  N   UNL     1       7.379   4.598  16.802  0.00  0.00    +0.000 N 
ATOM     24  O   UNL     1       8.161   4.155  17.656  0.00  0.00    +0.000 OA
ATOM     25  O   UNL     1       7.573   4.542  15.577  0.00  0.00    +0.000 OA
ENDBRANCH  20  23
BRANCH  21  26
ATOM     26  O   UNL     1       5.813   3.613  19.096  0.00  0.00    +0.000 OA
ATOM     27  H   UNL     1       5.532   3.718  20.030  0.00  0.00    +0.000 HD
ENDBRANCH  21  26
ENDBRANCH   2  17
TORSDOF 5
ENDMDL
MODEL 2
REMARK VINA RESULT:      -8.5      0.741      1.234
REMARK  Name = 
REMARK  6 active torsions:
REMARK  status: ('A' for Active; 'I' for Inactive)
REMARK    1  A    between atoms: C_1  and  C_2
REMARK    2  A    between atoms: C_5  and  C_6
REMARK    3  A    between atoms: C_10  and  N_11
REMARK    4  A    between atoms: C_12  and  C_14
REMARK    5  A    between atoms: C_17  and  N_18
REMARK    6  A    between atoms: C_21  and  O_22
REMARK                            x       y       z     vdW  Elec       q    Type
REMARK                         _______ _______ _______ _____ _____    ______ ____
ROOT
ATOM      1  N   UNL     1       2.315   8.524  18.302  0.00  0.00    +0.000 N 
ATOM      2  C   UNL     1       2.585   7.232  18.726  0.00  0.00    +0.000 C 
ATOM      3  O   UNL     1       1.895   6.570  19.496  0.00  0.00    +0.000 OA
ATOM      4  H   UNL     1       2.832   8.886  17.513  0.00  0.00    +0.000 HD
ENDROOT
BRANCH   1   9
ATOM      5  C   UNL     1      -0.995  10.248  18.260  0.00  0.00    +0.000 A 
ATOM      6  C   UNL     1      -1.073  10.699  19.587  0.00  0.00    +0.000 A 
ATOM      7  C   UNL     1      -0.029  10.479  20.474  0.00  0.00    +0.000 A 
ATOM      8  C   UNL     1       1.103   9.789  20.050  0.00  0.00    +0.000 A 
ATOM      9  C   UNL     1       1.207   9.297  18.744  0.00  0.00    +0.000 A 
ATOM     10  C   UNL     1       0.164   9.563  17.841  0.00  0.00    +0.000 A 
BRANCH   5  15
ATOM     11  C   UNL     1      -5.341  12.002  17.105  0.00  0.00    +0.000 C 
ATOM     12  C   UNL     1      -4.082  11.280  16.869  0.00  0.00    +0.000 A 
ATOM     13  C   UNL     1      -3.504  10.689  15.771  0.00  0.00    +0.000 A 
ATOM     14  N   UNL     1      -2.282  10.176  16.112  0.00  0.00    +0.000 NA
ATOM     15  C   UNL     1      -2.148  10.474  17.392  0.00  0.00    +0.000 A 
ATOM     16  O   UNL     1      -3.224  11.140  17.925  0.00  0.00    +0.000 OA
ENDBRANCH   5  15
ENDBRANCH   1   9
BRANCH   2  17
ATOM     17  C   UNL     1       3.784   6.546  18.166  0.00  0.00    +0.000 A 
ATOM     18  C   UNL     1       4.565   7.084  17.138  0.00  0.00    +0.000 A 
ATOM     19  C   UNL     1       5.748   6.436  16.752  0.00  0.00    +0.000 A 
ATOM     20  C   UNL     1       6.157   5.255  17.402  0.00  0.00    +0.000 A 
ATOM     21  C   UNL     1       5.373   4.713  18.424  0.00  0.00    +0.000 A 
ATOM     22  C   UNL     1       4.192   5.354  18.794  0.00  0.00    +0.000 A 
BRANCH  20  23
ATOM     23  N   UNL     1       7.417   4.622  17.009  0.00  0.00    +0.000 N 
ATOM     24  O   UNL     1       7.647   4.485  15.798  0.00  0.00    +0.000 OA
ATOM     25  O   UNL     1       8.189   4.262  17.914  0.00  0.00    +0.000 OA
ENDBRANCH  20  23
BRANCH  21  26
ATOM     26  O   UNL     1       5.667   3.585  19.141  0.00  0.00    +0.000 OA
ATOM     27  H   UNL     1       5.205   2.808  18.760  0.00  0.00    +0.000 HD
ENDBRANCH  21  26
ENDBRANCH   2  17
TORSDOF 5
ENDMDL
MODEL 3
REMARK VINA RESULT:      -8.4      3.167      9.099
REMARK  Name = 
REMARK  6 active torsions:
REMARK  status: ('A' for Active; 'I' for Inactive)
REMARK    1  A    between atoms: C_1  and  C_2
REMARK    2  A    between atoms: C_5  and  C_6
REMARK    3  A    between atoms: C_10  and  N_11
REMARK    4  A    between atoms: C_12  and  C_14
REMARK    5  A    between atoms: C_17  and  N_18
REMARK    6  A    between atoms: C_21  and  O_22
REMARK                            x       y       z     vdW  Elec       q    Type
REMARK                         _______ _______ _______ _____ _____    ______ ____
ROOT
ATOM      1  N   UNL     1       1.911   6.512  20.813  0.00  0.00    +0.000 N 
ATOM      2  C   UNL     1       1.776   7.680  20.080  0.00  0.00    +0.000 C 
ATOM      3  O   UNL     1       2.131   7.843  18.915  0.00  0.00    +0.000 OA
ATOM      4  H   UNL     1       1.397   6.429  21.678  0.00  0.00    +0.000 HD
ENDROOT
BRANCH   1   9
ATOM      5  C   UNL     1       4.370   4.306  19.076  0.00  0.00    +0.000 A 
ATOM      6  C   UNL     1       3.898   3.039  19.451  0.00  0.00    +0.000 A 
ATOM      7  C   UNL     1       2.755   2.910  20.229  0.00  0.00    +0.000 A 
ATOM      8  C   UNL     1       2.079   4.049  20.657  0.00  0.00    +0.000 A 
ATOM      9  C   UNL     1       2.535   5.330  20.329  0.00  0.00    +0.000 A 
ATOM     10  C   UNL     1       3.666   5.450  19.505  0.00  0.00    +0.000 A 
BRANCH   5  15
ATOM     11  C   UNL     1       6.992   4.646  15.037  0.00  0.00    +0.000 C 
ATOM     12  C   UNL     1       6.773   4.548  16.488  0.00  0.00    +0.000 A 
ATOM     13  C   UNL     1       7.593   4.602  17.589  0.00  0.00    +0.000 A 
ATOM     14  N   UNL     1       6.845   4.484  18.729  0.00  0.00    +0.000 NA
ATOM     15  C   UNL     1       5.603   4.373  18.294  0.00  0.00    +0.000 A 
ATOM     16  O   UNL     1       5.487   4.390  16.926  0.00  0.00    +0.000 OA
ENDBRANCH   5  15
ENDBRANCH   1   9
BRANCH   2  17
ATOM     17  C   UNL     1       1.090   8.837  20.722  0.00  0.00    +0.000 A 
ATOM     18  C   UNL     1       0.488   9.871  19.996  0.00  0.00    +0.000 A 
ATOM     19  C   UNL     1      -0.246  10.858  20.671  0.00  0.00    +0.000 A 
ATOM     20  C   UNL     1      -0.388  10.806  22.071  0.00  0.00    +0.000 A 
ATOM     21  C   UNL     1       0.219   9.778  22.797  0.00  0.00    +0.000 A 
ATOM     22  C   UNL     1       0.957   8.808  22.122  0.00  0.00    +0.000 A 
BRANCH  20  23
ATOM     23  N   UNL     1      -1.195  11.825  22.746  0.00  0.00    +0.000 N 
ATOM     24  O   UNL     1      -2.222  11.457  23.334  0.00  0.00    +0.000 OA
ATOM     25  O   UNL     1      -0.799  13.001  22.695  0.00  0.00    +0.000 OA
ENDBRANCH  20  23
BRANCH  21  26
ATOM     26  O   UNL     1       0.142   9.608  24.153  0.00  0.00    +0.000 OA
ATOM     27  H   UNL     1      -0.719   9.208  24.398  0.00  0.00    +0.000 HD
ENDBRANCH  21  26
ENDBRANCH   2  17
TORSDOF 5
ENDMDL
MODEL 4
REMARK VINA RESULT:      -8.3      0.771      1.554
REMARK  Name = 
REMARK  6 active torsions:
REMARK  status: ('A' for Active; 'I' for Inactive)
REMARK    1  A    between atoms: C_1  and  C_2
REMARK    2  A    between atoms: C_5  and  C_6
REMARK    3  A    between atoms: C_10  and  N_11
REMARK    4  A    between atoms: C_12  and  C_14
REMARK    5  A    between atoms: C_17  and  N_18
REMARK    6  A    between atoms: C_21  and  O_22
REMARK                            x       y       z     vdW  Elec       q    Type
REMARK                         _______ _______ _______ _____ _____    ______ ____
ROOT
ATOM      1  N   UNL     1       2.168   8.551  18.430  0.00  0.00    +0.000 N 
ATOM      2  C   UNL     1       2.537   7.361  19.037  0.00  0.00    +0.000 C 
ATOM      3  O   UNL     1       1.965   6.831  19.986  0.00  0.00    +0.000 OA
ATOM      4  H   UNL     1       2.578   8.778  17.535  0.00  0.00    +0.000 HD
ENDROOT
BRANCH   1   9
ATOM      5  C   UNL     1      -1.056  10.430  18.338  0.00  0.00    +0.000 A 
ATOM      6  C   UNL     1      -1.148  10.859  19.671  0.00  0.00    +0.000 A 
ATOM      7  C   UNL     1      -0.138  10.575  20.580  0.00  0.00    +0.000 A 
ATOM      8  C   UNL     1       0.971   9.840  20.171  0.00  0.00    +0.000 A 
ATOM      9  C   UNL     1       1.086   9.368  18.859  0.00  0.00    +0.000 A 
ATOM     10  C   UNL     1       0.081   9.699  17.935  0.00  0.00    +0.000 A 
BRANCH   5  15
ATOM     11  C   UNL     1      -3.609  10.126  14.253  0.00  0.00    +0.000 C 
ATOM     12  C   UNL     1      -3.326  10.570  15.626  0.00  0.00    +0.000 A 
ATOM     13  C   UNL     1      -4.025  11.286  16.568  0.00  0.00    +0.000 A 
ATOM     14  N   UNL     1      -3.286  11.386  17.715  0.00  0.00    +0.000 NA
ATOM     15  C   UNL     1      -2.174  10.726  17.445  0.00  0.00    +0.000 A 
ATOM     16  O   UNL     1      -2.125  10.210  16.173  0.00  0.00    +0.000 OA
ENDBRANCH   5  15
ENDBRANCH   1   9
BRANCH   2  17
ATOM     17  C   UNL     1       3.692   6.611  18.468  0.00  0.00    +0.000 A 
ATOM     18  C   UNL     1       4.260   5.493  19.087  0.00  0.00    +0.000 A 
ATOM     19  C   UNL     1       5.263   4.767  18.426  0.00  0.00    +0.000 A 
ATOM     20  C   UNL     1       5.690   5.152  17.141  0.00  0.00    +0.000 A 
ATOM     21  C   UNL     1       5.127   6.273  16.525  0.00  0.00    +0.000 A 
ATOM     22  C   UNL     1       4.141   6.997  17.191  0.00  0.00    +0.000 A 
BRANCH  20  23
ATOM     23  N   UNL     1       6.708   4.352  16.456  0.00  0.00    +0.000 N 
ATOM     24  O   UNL     1       6.360   3.696  15.463  0.00  0.00    +0.000 OA
ATOM     25  O   UNL     1       7.864   4.382  16.907  0.00  0.00    +0.000 OA
ENDBRANCH  20  23
BRANCH  21  26
ATOM     26  O   UNL     1       5.443   6.738  15.276  0.00  0.00    +0.000 OA
ATOM     27  H   UNL     1       6.392   6.585  15.085  0.00  0.00    +0.000 HD
ENDBRANCH  21  26
ENDBRANCH   2  17
TORSDOF 5
ENDMDL
MODEL 5
REMARK VINA RESULT:      -8.2      1.066      1.889
REMARK  Name = 
REMARK  6 active torsions:
REMARK  status: ('A' for Active; 'I' for Inactive)
REMARK    1  A    between atoms: C_1  and  C_2
REMARK    2  A    between atoms: C_5  and  C_6
REMARK    3  A    between atoms: C_10  and  N_11
REMARK    4  A    between atoms: C_12  and  C_14
REMARK    5  A    between atoms: C_17  and  N_18
REMARK    6  A    between atoms: C_21  and  O_22
REMARK                            x       y       z     vdW  Elec       q    Type
REMARK                         _______ _______ _______ _____ _____    ______ ____
ROOT
ATOM      1  N   UNL     1       2.155   8.554  18.378  0.00  0.00    +0.000 N 
ATOM      2  C   UNL     1       2.523   7.368  18.992  0.00  0.00    +0.000 C 
ATOM      3  O   UNL     1       1.947   6.840  19.940  0.00  0.00    +0.000 OA
ATOM      4  H   UNL     1       2.570   8.778  17.484  0.00  0.00    +0.000 HD
ENDROOT
BRANCH   1   9
ATOM      5  C   UNL     1      -1.104  10.370  18.279  0.00  0.00    +0.000 A 
ATOM      6  C   UNL     1      -1.174  10.856  19.594  0.00  0.00    +0.000 A 
ATOM      7  C   UNL     1      -0.139  10.628  20.491  0.00  0.00    +0.000 A 
ATOM      8  C   UNL     1       0.974   9.896  20.088  0.00  0.00    +0.000 A 
ATOM      9  C   UNL     1       1.068   9.370  18.796  0.00  0.00    +0.000 A 
ATOM     10  C   UNL     1       0.037   9.643  17.882  0.00  0.00    +0.000 A 
BRANCH   5  15
ATOM     11  C   UNL     1      -5.450  12.113  17.106  0.00  0.00    +0.000 C 
ATOM     12  C   UNL     1      -4.181  11.408  16.870  0.00  0.00    +0.000 A 
ATOM     13  C   UNL     1      -3.582  10.850  15.767  0.00  0.00    +0.000 A 
ATOM     14  N   UNL     1      -2.360  10.340  16.111  0.00  0.00    +0.000 NA
ATOM     15  C   UNL     1      -2.247  10.608  17.400  0.00  0.00    +0.000 A 
ATOM     16  O   UNL     1      -3.336  11.250  17.935  0.00  0.00    +0.000 OA
ENDBRANCH   5  15
ENDBRANCH   1   9
BRANCH   2  17
ATOM     17  C   UNL     1       3.684   6.618  18.433  0.00  0.00    +0.000 A 
ATOM     18  C   UNL     1       4.257   5.510  19.065  0.00  0.00    +0.000 A 
ATOM     19  C   UNL     1       5.266   4.783  18.415  0.00  0.00    +0.000 A 
ATOM     20  C   UNL     1       5.694   5.157  17.127  0.00  0.00    +0.000 A 
ATOM     21  C   UNL     1       5.127   6.268  16.498  0.00  0.00    +0.000 A 
ATOM     22  C   UNL     1       4.135   6.994  17.154  0.00  0.00    +0.000 A 
BRANCH  20  23
ATOM     23  N   UNL     1       6.718   4.356  16.453  0.00  0.00    +0.000 N 
ATOM     24  O   UNL     1       6.385   3.715  15.445  0.00  0.00    +0.000 OA
ATOM     25  O   UNL     1       7.866   4.370  16.927  0.00  0.00    +0.000 OA
ENDBRANCH  20  23
BRANCH  21  26
ATOM     26  O   UNL     1       5.444   6.723  15.245  0.00  0.00    +0.000 OA
ATOM     27  H   UNL     1       4.849   6.321  14.577  0.00  0.00    +0.000 HD
ENDBRANCH  21  26
ENDBRANCH   2  17
TORSDOF 5
ENDMDL
MODEL 6
REMARK VINA RESULT:      -8.1      2.849      8.857
REMARK  Name = 
REMARK  6 active torsions:
REMARK  status: ('A' for Active; 'I' for Inactive)
REMARK    1  A    between atoms: C_1  and  C_2
REMARK    2  A    between atoms: C_5  and  C_6
REMARK    3  A    between atoms: C_10  and  N_11
REMARK    4  A    between atoms: C_12  and  C_14
REMARK    5  A    between atoms: C_17  and  N_18
REMARK    6  A    between atoms: C_21  and  O_22
REMARK                            x       y       z     vdW  Elec       q    Type
REMARK                         _______ _______ _______ _____ _____    ______ ____
ROOT
ATOM      1  N   UNL     1       4.507   7.198  17.880  0.00  0.00    +0.000 N 
ATOM      2  C   UNL     1       3.206   6.878  18.235  0.00  0.00    +0.000 C 
ATOM      3  O   UNL     1       2.739   5.744  18.305  0.00  0.00    +0.000 OA
ATOM      4  H   UNL     1       4.835   8.136  18.062  0.00  0.00    +0.000 HD
ENDROOT
BRANCH   1   9
ATOM      5  C   UNL     1       6.580   4.995  15.695  0.00  0.00    +0.000 A 
ATOM      6  C   UNL     1       7.491   4.479  16.629  0.00  0.00    +0.000 A 
ATOM      7  C   UNL     1       7.396   4.815  17.973  0.00  0.00    +0.000 A 
ATOM      8  C   UNL     1       6.397   5.688  18.397  0.00  0.00    +0.000 A 
ATOM      9  C   UNL     1       5.489   6.246  17.491  0.00  0.00    +0.000 A 
ATOM     10  C   UNL     1       5.566   5.865  16.141  0.00  0.00    +0.000 A 
BRANCH   5  15
ATOM     11  C   UNL     1       5.646   2.567  11.628  0.00  0.00    +0.000 C 
ATOM     12  C   UNL     1       6.329   3.564  12.467  0.00  0.00    +0.000 A 
ATOM     13  C   UNL     1       7.253   4.552  12.225  0.00  0.00    +0.000 A 
ATOM     14  N   UNL     1       7.528   5.221  13.386  0.00  0.00    +0.000 NA
ATOM     15  C   UNL     1       6.764   4.634  14.290  0.00  0.00    +0.000 A 
ATOM     16  O   UNL     1       6.011   3.598  13.797  0.00  0.00    +0.000 OA
ENDBRANCH   5  15
ENDBRANCH   1   9
BRANCH   2  17
ATOM     17  C   UNL     1       2.292   7.987  18.628  0.00  0.00    +0.000 A 
ATOM     18  C   UNL     1       1.768   8.908  17.715  0.00  0.00    +0.000 A 
ATOM     19  C   UNL     1       0.816   9.846  18.142  0.00  0.00    +0.000 A 
ATOM     20  C   UNL     1       0.379   9.856  19.480  0.00  0.00    +0.000 A 
ATOM     21  C   UNL     1       0.906   8.941  20.394  0.00  0.00    +0.000 A 
ATOM     22  C   UNL     1       1.861   8.020  19.967  0.00  0.00    +0.000 A 
BRANCH  20  23
ATOM     23  N   UNL     1      -0.647  10.818  19.890  0.00  0.00    +0.000 N 
ATOM     24  O   UNL     1      -0.432  11.502  20.901  0.00  0.00    +0.000 OA
ATOM     25  O   UNL     1      -1.675  10.896  19.196  0.00  0.00    +0.000 OA
ENDBRANCH  20  23
BRANCH  21  26
ATOM     26  O   UNL     1       0.553   8.838  21.713  0.00  0.00    +0.000 OA
ATOM     27  H   UNL     1       0.020   9.615  21.985  0.00  0.00    +0.000 HD
ENDBRANCH  21  26
ENDBRANCH   2  17
TORSDOF 5
ENDMDL
MODEL 7
REMARK VINA RESULT:      -8.1      3.122      8.721
REMARK  Name = 
REMARK  6 active torsions:
REMARK  status: ('A' for Active; 'I' for Inactive)
REMARK    1  A    between atoms: C_1  and  C_2
REMARK    2  A    between atoms: C_5  and  C_6
REMARK    3  A    between atoms: C_10  and  N_11
REMARK    4  A    between atoms: C_12  and  C_14
REMARK    5  A    between atoms: C_17  and  N_18
REMARK    6  A    between atoms: C_21  and  O_22
REMARK                            x       y       z     vdW  Elec       q    Type
REMARK                         _______ _______ _______ _____ _____    ______ ____
ROOT
ATOM      1  N   UNL     1       4.374   6.785  17.893  0.00  0.00    +0.000 N 
ATOM      2  C   UNL     1       3.309   6.388  18.686  0.00  0.00    +0.000 C 
ATOM      3  O   UNL     1       3.092   5.244  19.078  0.00  0.00    +0.000 OA
ATOM      4  H   UNL     1       4.566   7.773  17.811  0.00  0.00    +0.000 HD
ENDROOT
BRANCH   1   9
ATOM      5  C   UNL     1       6.222   4.636  15.464  0.00  0.00    +0.000 A 
ATOM      6  C   UNL     1       7.335   4.267  16.234  0.00  0.00    +0.000 A 
ATOM      7  C   UNL     1       7.455   4.681  17.554  0.00  0.00    +0.000 A 
ATOM      8  C   UNL     1       6.469   5.487  18.116  0.00  0.00    +0.000 A 
ATOM      9  C   UNL     1       5.359   5.901  17.372  0.00  0.00    +0.000 A 
ATOM     10  C   UNL     1       5.224   5.440  16.052  0.00  0.00    +0.000 A 
BRANCH   5  15
ATOM     11  C   UNL     1       4.091   3.238  11.365  0.00  0.00    +0.000 C 
ATOM     12  C   UNL     1       5.224   3.600  12.230  0.00  0.00    +0.000 A 
ATOM     13  C   UNL     1       6.572   3.771  12.027  0.00  0.00    +0.000 A 
ATOM     14  N   UNL     1       7.172   4.147  13.198  0.00  0.00    +0.000 NA
ATOM     15  C   UNL     1       6.180   4.202  14.069  0.00  0.00    +0.000 A 
ATOM     16  O   UNL     1       4.957   3.864  13.545  0.00  0.00    +0.000 OA
ENDBRANCH   5  15
ENDBRANCH   1   9
BRANCH   2  17
ATOM     17  C   UNL     1       2.361   7.434  19.163  0.00  0.00    +0.000 A 
ATOM     18  C   UNL     1       1.849   7.468  20.465  0.00  0.00    +0.000 A 
ATOM     19  C   UNL     1       1.061   8.554  20.874  0.00  0.00    +0.000 A 
ATOM     20  C   UNL     1       0.794   9.614  19.985  0.00  0.00    +0.000 A 
ATOM     21  C   UNL     1       1.299   9.577  18.683  0.00  0.00    +0.000 A 
ATOM     22  C   UNL     1       2.070   8.488  18.278  0.00  0.00    +0.000 A 
BRANCH  20  23
ATOM     23  N   UNL     1       0.004  10.756  20.450  0.00  0.00    +0.000 N 
ATOM     24  O   UNL     1       0.349  11.310  21.505  0.00  0.00    +0.000 OA
ATOM     25  O   UNL     1      -0.964  11.108  19.757  0.00  0.00    +0.000 OA
ENDBRANCH  20  23
BRANCH  21  26
ATOM     26  O   UNL     1       1.125  10.547  17.733  0.00  0.00    +0.000 OA
ATOM     27  H   UNL     1       0.396  11.150  17.991  0.00  0.00    +0.000 HD
ENDBRANCH  21  26
ENDBRANCH   2  17
TORSDOF 5
ENDMDL
MODEL 8
REMARK VINA RESULT:      -8.1      5.514      8.075
REMARK  Name = 
REMARK  6 active torsions:
REMARK  status: ('A' for Active; 'I' for Inactive)
REMARK    1  A    between atoms: C_1  and  C_2
REMARK    2  A    between atoms: C_5  and  C_6
REMARK    3  A    between atoms: C_10  and  N_11
REMARK    4  A    between atoms: C_12  and  C_14
REMARK    5  A    between atoms: C_17  and  N_18
REMARK    6  A    between atoms: C_21  and  O_22
REMARK                            x       y       z     vdW  Elec       q    Type
REMARK                         _______ _______ _______ _____ _____    ______ ____
ROOT
ATOM      1  N   UNL     1       6.939   7.754  17.125  0.00  0.00    +0.000 N 
ATOM      2  C   UNL     1       7.901   7.979  18.096  0.00  0.00    +0.000 C 
ATOM      3  O   UNL     1       8.449   7.118  18.779  0.00  0.00    +0.000 OA
ATOM      4  H   UNL     1       6.718   8.506  16.487  0.00  0.00    +0.000 HD
ENDROOT
BRANCH   1   9
ATOM      5  C   UNL     1       4.625   4.826  17.125  0.00  0.00    +0.000 A 
ATOM      6  C   UNL     1       5.215   4.024  16.135  0.00  0.00    +0.000 A 
ATOM      7  C   UNL     1       6.387   4.420  15.507  0.00  0.00    +0.000 A 
ATOM      8  C   UNL     1       6.977   5.634  15.849  0.00  0.00    +0.000 A 
ATOM      9  C   UNL     1       6.403   6.475  16.808  0.00  0.00    +0.000 A 
ATOM     10  C   UNL     1       5.241   6.045  17.470  0.00  0.00    +0.000 A 
BRANCH   5  15
ATOM     11  C   UNL     1       1.257   4.496  20.567  0.00  0.00    +0.000 C 
ATOM     12  C   UNL     1       1.852   4.243  19.246  0.00  0.00    +0.000 A 
ATOM     13  C   UNL     1       1.418   3.621  18.100  0.00  0.00    +0.000 A 
ATOM     14  N   UNL     1       2.386   3.700  17.136  0.00  0.00    +0.000 NA
ATOM     15  C   UNL     1       3.367   4.369  17.714  0.00  0.00    +0.000 A 
ATOM     16  O   UNL     1       3.112   4.721  19.017  0.00  0.00    +0.000 OA
ENDBRANCH   5  15
ENDBRANCH   1   9
BRANCH   2  17
ATOM     17  C   UNL     1       8.371   9.378  18.308  0.00  0.00    +0.000 A 
ATOM     18  C   UNL     1       9.433   9.710  19.155  0.00  0.00    +0.000 A 
ATOM     19  C   UNL     1       9.895  11.033  19.205  0.00  0.00    +0.000 A 
ATOM     20  C   UNL     1       9.303  12.024  18.399  0.00  0.00    +0.000 A 
ATOM     21  C   UNL     1       8.236  11.695  17.558  0.00  0.00    +0.000 A 
ATOM     22  C   UNL     1       7.773  10.381  17.523  0.00  0.00    +0.000 A 
BRANCH  20  23
ATOM     23  N   UNL     1       9.832  13.389  18.438  0.00  0.00    +0.000 N 
ATOM     24  O   UNL     1       9.026  14.321  18.579  0.00  0.00    +0.000 OA
ATOM     25  O   UNL     1      11.061  13.535  18.333  0.00  0.00    +0.000 OA
ENDBRANCH  20  23
BRANCH  21  26
ATOM     26  O   UNL     1       7.589  12.560  16.717  0.00  0.00    +0.000 OA
ATOM     27  H   UNL     1       6.618  12.454  16.801  0.00  0.00    +0.000 HD
ENDBRANCH  21  26
ENDBRANCH   2  17
TORSDOF 5
ENDMDL
MODEL 9
REMARK VINA RESULT:      -7.9      1.156      1.485
REMARK  Name = 
REMARK  6 active torsions:
REMARK  status: ('A' for Active; 'I' for Inactive)
REMARK    1  A    between atoms: C_1  and  C_2
REMARK    2  A    between atoms: C_5  and  C_6
REMARK    3  A    between atoms: C_10  and  N_11
REMARK    4  A    between atoms: C_12  and  C_14
REMARK    5  A    between atoms: C_17  and  N_18
REMARK    6  A    between atoms: C_21  and  O_22
REMARK                            x       y       z     vdW  Elec       q    Type
REMARK                         _______ _______ _______ _____ _____    ______ ____
ROOT
ATOM      1  N   UNL     1       2.612   7.720  19.429  0.00  0.00    +0.000 N 
ATOM      2  C   UNL     1       2.665   6.341  19.297  0.00  0.00    +0.000 C 
ATOM      3  O   UNL     1       1.768   5.556  19.595  0.00  0.00    +0.000 OA
ATOM      4  H   UNL     1       3.315   8.272  18.959  0.00  0.00    +0.000 HD
ENDROOT
BRANCH   1   9
ATOM      5  C   UNL     1      -0.456   9.837  19.617  0.00  0.00    +0.000 A 
ATOM      6  C   UNL     1      -0.754   9.746  20.985  0.00  0.00    +0.000 A 
ATOM      7  C   UNL     1       0.070   9.036  21.846  0.00  0.00    +0.000 A 
ATOM      8  C   UNL     1       1.197   8.390  21.345  0.00  0.00    +0.000 A 
ATOM      9  C   UNL     1       1.512   8.431  19.983  0.00  0.00    +0.000 A 
ATOM     10  C   UNL     1       0.696   9.189  19.127  0.00  0.00    +0.000 A 
BRANCH   5  15
ATOM     11  C   UNL     1      -2.863  10.753  15.534  0.00  0.00    +0.000 C 
ATOM     12  C   UNL     1      -2.483  10.958  16.940  0.00  0.00    +0.000 A 
ATOM     13  C   UNL     1      -2.927  11.782  17.946  0.00  0.00    +0.000 A 
ATOM     14  N   UNL     1      -2.226  11.531  19.094  0.00  0.00    +0.000 NA
ATOM     15  C   UNL     1      -1.390  10.564  18.760  0.00  0.00    +0.000 A 
ATOM     16  O   UNL     1      -1.484  10.173  17.447  0.00  0.00    +0.000 OA
ENDBRANCH   5  15
ENDBRANCH   1   9
BRANCH   2  17
ATOM     17  C   UNL     1       3.885   5.740  18.689  0.00  0.00    +0.000 A 
ATOM     18  C   UNL     1       3.961   5.351  17.347  0.00  0.00    +0.000 A 
ATOM     19  C   UNL     1       5.184   4.909  16.820  0.00  0.00    +0.000 A 
ATOM     20  C   UNL     1       6.335   4.868  17.630  0.00  0.00    +0.000 A 
ATOM     21  C   UNL     1       6.258   5.249  18.972  0.00  0.00    +0.000 A 
ATOM     22  C   UNL     1       5.037   5.674  19.494  0.00  0.00    +0.000 A 
BRANCH  20  23
ATOM     23  N   UNL     1       7.608   4.443  17.044  0.00  0.00    +0.000 N 
ATOM     24  O   UNL     1       7.763   4.590  15.822  0.00  0.00    +0.000 OA
ATOM     25  O   UNL     1       8.464   3.966  17.807  0.00  0.00    +0.000 OA
ENDBRANCH  20  23
BRANCH  21  26
ATOM     26  O   UNL     1       7.304   5.269  19.856  0.00  0.00    +0.000 OA
ATOM     27  H   UNL     1       8.024   4.681  19.546  0.00  0.00    +0.000 HD
ENDBRANCH  21  26
ENDBRANCH   2  17
TORSDOF 5
ENDMDL
