MODEL 1
REMARK VINA RESULT:      -8.9      0.000      0.000
REMARK  Name = 
REMARK  7 active torsions:
REMARK  status: ('A' for Active; 'I' for Inactive)
REMARK    1  A    between atoms: C_1  and  C_2
REMARK    2  A    between atoms: C_5  and  N_6
REMARK    3  A    between atoms: N_6  and  S_7
REMARK    4  A    between atoms: S_7  and  C_10
REMARK    5  A    between atoms: C_13  and  N_14
REMARK    6  A    between atoms: N_17  and  C_18
REMARK    7  A    between atoms: C_28  and  C_29
REMARK                            x       y       z     vdW  Elec       q    Type
REMARK                         _______ _______ _______ _____ _____    ______ ____
ROOT
ATOM      1  C   UNL     1       6.557   5.648  17.326  0.00  0.00    +0.000 A 
ATOM      2  C   UNL     1       7.410   5.332  18.376  0.00  0.00    +0.000 A 
ATOM      3  C   UNL     1       8.177   6.337  18.964  0.00  0.00    +0.000 A 
ATOM      4  C   UNL     1       8.124   7.660  18.505  0.00  0.00    +0.000 A 
ATOM      5  C   UNL     1       7.259   7.964  17.444  0.00  0.00    +0.000 A 
ATOM      6  C   UNL     1       6.470   6.961  16.855  0.00  0.00    +0.000 A 
ENDROOT
BRANCH   4   7
ATOM      7  N   UNL     1       8.893   8.702  19.086  0.00  0.00    +0.000 N 
ATOM      8  C   UNL     1       8.929  10.013  18.643  0.00  0.00    +0.000 C 
ATOM      9  O   UNL     1       8.216  10.480  17.762  0.00  0.00    +0.000 OA
ATOM     10  N   UNL     1       9.911  10.760  19.282  0.00  0.00    +0.000 N 
ATOM     11  H   UNL     1       9.352   8.507  19.965  0.00  0.00    +0.000 HD
ATOM     12  H   UNL     1      10.756  10.247  19.499  0.00  0.00    +0.000 HD
BRANCH  10  13
ATOM     13  C   UNL     1      10.117  12.113  18.900  0.00  0.00    +0.000 A 
ATOM     14  C   UNL     1       9.298  13.148  19.372  0.00  0.00    +0.000 A 
ATOM     15  C   UNL     1       9.457  14.446  18.884  0.00  0.00    +0.000 A 
ATOM     16  C   UNL     1      10.432  14.703  17.926  0.00  0.00    +0.000 A 
ATOM     17  F   UNL     1      10.554  15.941  17.430  0.00  0.00    +0.000 F 
ATOM     18  C   UNL     1      11.274  13.697  17.469  0.00  0.00    +0.000 A 
ATOM     19  C   UNL     1      11.123  12.411  17.977  0.00  0.00    +0.000 A 
ATOM     20  F   UNL     1      11.909  11.427  17.512  0.00  0.00    +0.000 F 
ENDBRANCH  10  13
ENDBRANCH   4   7
BRANCH   1  21
ATOM     21  S   UNL     1       5.535   4.347  16.672  0.00  0.00    +0.000 S 
ATOM     22  O   UNL     1       6.338   3.606  15.720  0.00  0.00    +0.000 OA
ATOM     23  O   UNL     1       4.256   4.937  16.323  0.00  0.00    +0.000 OA
BRANCH  21  24
ATOM     24  N   UNL     1       5.287   3.415  18.084  0.00  0.00    +0.000 N 
ATOM     25  H   UNL     1       6.101   3.610  18.669  0.00  0.00    +0.000 HD
BRANCH  24  30
ATOM     26  C   UNL     1       0.776   3.816  20.232  0.00  0.00    +0.000 C 
ATOM     27  C   UNL     1       2.167   4.030  19.763  0.00  0.00    +0.000 A 
ATOM     28  N   UNL     1       2.910   5.018  20.275  0.00  0.00    +0.000 NA
ATOM     29  O   UNL     1       4.152   4.896  19.679  0.00  0.00    +0.000 OA
ATOM     30  C   UNL     1       4.134   3.868  18.792  0.00  0.00    +0.000 A 
ATOM     31  C   UNL     1       2.898   3.263  18.812  0.00  0.00    +0.000 A 
ATOM     32  C   UNL     1       2.439   2.065  18.078  0.00  0.00    +0.000 C 
ENDBRANCH  24  30
ENDBRANCH  21  24
ENDBRANCH   1  21
TORSDOF 5
ENDMDL
MODEL 2
REMARK VINA RESULT:      -8.8      0.889      1.250
REMARK  Name = 
REMARK  7 active torsions:
REMARK  status: ('A' for Active; 'I' for Inactive)
REMARK    1  A    between atoms: C_1  and  C_2
REMARK    2  A    between atoms: C_5  and  N_6
REMARK    3  A    between atoms: N_6  and  S_7
REMARK    4  A    between atoms: S_7  and  C_10
REMARK    5  A    between atoms: C_13  and  N_14
REMARK    6  A    between atoms: N_17  and  C_18
REMARK    7  A    between atoms: C_28  and  C_29
REMARK                            x       y       z     vdW  Elec       q    Type
REMARK                         _______ _______ _______ _____ _____    ______ ____
ROOT
ATOM      1  C   UNL     1       6.479   5.565  17.338  0.00  0.00    +0.000 A 
ATOM      2  C   UNL     1       7.274   5.278  18.441  0.00  0.00    +0.000 A 
ATOM      3  C   UNL     1       8.072   6.279  18.993  0.00  0.00    +0.000 A 
ATOM      4  C   UNL     1       8.108   7.569  18.446  0.00  0.00    +0.000 A 
ATOM      5  C   UNL     1       7.302   7.845  17.332  0.00  0.00    +0.000 A 
ATOM      6  C   UNL     1       6.483   6.846  16.778  0.00  0.00    +0.000 A 
ENDROOT
BRANCH   4   7
ATOM      7  N   UNL     1       8.910   8.606  18.988  0.00  0.00    +0.000 N 
ATOM      8  C   UNL     1       8.899   9.927  18.574  0.00  0.00    +0.000 C 
ATOM      9  O   UNL     1       8.116  10.405  17.761  0.00  0.00    +0.000 OA
ATOM     10  N   UNL     1       9.921  10.672  19.151  0.00  0.00    +0.000 N 
ATOM     11  H   UNL     1       9.438   8.398  19.825  0.00  0.00    +0.000 HD
ATOM     12  H   UNL     1      10.785  10.163  19.290  0.00  0.00    +0.000 HD
BRANCH  10  13
ATOM     13  C   UNL     1      10.084  12.035  18.785  0.00  0.00    +0.000 A 
ATOM     14  C   UNL     1      10.870  12.417  17.689  0.00  0.00    +0.000 A 
ATOM     15  C   UNL     1      11.102  13.768  17.430  0.00  0.00    +0.000 A 
ATOM     16  C   UNL     1      10.550  14.731  18.268  0.00  0.00    +0.000 A 
ATOM     17  F   UNL     1      10.809  16.025  18.040  0.00  0.00    +0.000 F 
ATOM     18  C   UNL     1       9.743  14.374  19.341  0.00  0.00    +0.000 A 
ATOM     19  C   UNL     1       9.498  13.025  19.579  0.00  0.00    +0.000 A 
ATOM     20  F   UNL     1       8.750  12.671  20.635  0.00  0.00    +0.000 F 
ENDBRANCH  10  13
ENDBRANCH   4   7
BRANCH   1  21
ATOM     21  S   UNL     1       5.414   4.278  16.730  0.00  0.00    +0.000 S 
ATOM     22  O   UNL     1       6.169   3.520  15.750  0.00  0.00    +0.000 OA
ATOM     23  O   UNL     1       4.132   4.886  16.427  0.00  0.00    +0.000 OA
BRANCH  21  24
ATOM     24  N   UNL     1       5.206   3.355  18.154  0.00  0.00    +0.000 N 
ATOM     25  H   UNL     1       6.027   3.568  18.722  0.00  0.00    +0.000 HD
BRANCH  24  30
ATOM     26  C   UNL     1       0.712   3.719  20.343  0.00  0.00    +0.000 C 
ATOM     27  C   UNL     1       2.099   3.941  19.867  0.00  0.00    +0.000 A 
ATOM     28  N   UNL     1       2.846   4.921  20.390  0.00  0.00    +0.000 NA
ATOM     29  O   UNL     1       4.084   4.809  19.782  0.00  0.00    +0.000 OA
ATOM     30  C   UNL     1       4.058   3.795  18.878  0.00  0.00    +0.000 A 
ATOM     31  C   UNL     1       2.823   3.191  18.897  0.00  0.00    +0.000 A 
ATOM     32  C   UNL     1       2.358   2.005  18.146  0.00  0.00    +0.000 C 
ENDBRANCH  24  30
ENDBRANCH  21  24
ENDBRANCH   1  21
TORSDOF 5
ENDMDL
MODEL 3
REMARK VINA RESULT:      -8.8      1.349      1.734
REMARK  Name = 
REMARK  7 active torsions:
REMARK  status: ('A' for Active; 'I' for Inactive)
REMARK    1  A    between atoms: C_1  and  C_2
REMARK    2  A    between atoms: C_5  and  N_6
REMARK    3  A    between atoms: N_6  and  S_7
REMARK    4  A    between atoms: S_7  and  C_10
REMARK    5  A    between atoms: C_13  and  N_14
REMARK    6  A    between atoms: N_17  and  C_18
REMARK    7  A    between atoms: C_28  and  C_29
REMARK                            x       y       z     vdW  Elec       q    Type
REMARK                         _______ _______ _______ _____ _____    ______ ____
ROOT
ATOM      1  C   UNL     1       6.451   5.625  17.523  0.00  0.00    +0.000 A 
ATOM      2  C   UNL     1       7.308   5.381  18.589  0.00  0.00    +0.000 A 
ATOM      3  C   UNL     1       8.126   6.406  19.063  0.00  0.00    +0.000 A 
ATOM      4  C   UNL     1       8.120   7.677  18.473  0.00  0.00    +0.000 A 
ATOM      5  C   UNL     1       7.251   7.910  17.398  0.00  0.00    +0.000 A 
ATOM      6  C   UNL     1       6.411   6.887  16.923  0.00  0.00    +0.000 A 
ENDROOT
BRANCH   4   7
ATOM      7  N   UNL     1       8.941   8.738  18.936  0.00  0.00    +0.000 N 
ATOM      8  C   UNL     1       8.908  10.040  18.466  0.00  0.00    +0.000 C 
ATOM      9  O   UNL     1       8.090  10.481  17.667  0.00  0.00    +0.000 OA
ATOM     10  N   UNL     1       9.951  10.810  18.967  0.00  0.00    +0.000 N 
ATOM     11  H   UNL     1       9.504   8.566  19.758  0.00  0.00    +0.000 HD
ATOM     12  H   UNL     1      10.822  10.308  19.091  0.00  0.00    +0.000 HD
BRANCH  10  13
ATOM     13  C   UNL     1      10.095  12.156  18.536  0.00  0.00    +0.000 A 
ATOM     14  C   UNL     1      10.896  12.499  17.439  0.00  0.00    +0.000 A 
ATOM     15  C   UNL     1      11.106  13.841  17.117  0.00  0.00    +0.000 A 
ATOM     16  C   UNL     1      10.517  14.832  17.894  0.00  0.00    +0.000 A 
ATOM     17  F   UNL     1      10.754  16.119  17.607  0.00  0.00    +0.000 F 
ATOM     18  C   UNL     1       9.694  14.512  18.967  0.00  0.00    +0.000 A 
ATOM     19  C   UNL     1       9.472  13.171  19.267  0.00  0.00    +0.000 A 
ATOM     20  F   UNL     1       8.709  12.855  20.325  0.00  0.00    +0.000 F 
ENDBRANCH  10  13
ENDBRANCH   4   7
BRANCH   1  21
ATOM     21  S   UNL     1       5.366   4.311  17.017  0.00  0.00    +0.000 S 
ATOM     22  O   UNL     1       6.035   3.583  15.956  0.00  0.00    +0.000 OA
ATOM     23  O   UNL     1       4.042   4.882  16.857  0.00  0.00    +0.000 OA
BRANCH  21  24
ATOM     24  N   UNL     1       5.337   3.372  18.446  0.00  0.00    +0.000 N 
ATOM     25  H   UNL     1       5.651   4.008  19.180  0.00  0.00    +0.000 HD
BRANCH  24  30
ATOM     26  C   UNL     1       0.564   3.239  19.973  0.00  0.00    +0.000 C 
ATOM     27  C   UNL     1       1.899   2.930  19.404  0.00  0.00    +0.000 A 
ATOM     28  N   UNL     1       2.078   1.835  18.654  0.00  0.00    +0.000 NA
ATOM     29  O   UNL     1       3.396   1.884  18.235  0.00  0.00    +0.000 OA
ATOM     30  C   UNL     1       4.003   2.978  18.764  0.00  0.00    +0.000 A 
ATOM     31  C   UNL     1       3.094   3.696  19.507  0.00  0.00    +0.000 A 
ATOM     32  C   UNL     1       3.277   4.989  20.200  0.00  0.00    +0.000 C 
ENDBRANCH  24  30
ENDBRANCH  21  24
ENDBRANCH   1  21
TORSDOF 5
ENDMDL
MODEL 4
REMARK VINA RESULT:      -8.8      1.012      1.259
REMARK  Name = 
REMARK  7 active torsions:
REMARK  status: ('A' for Active; 'I' for Inactive)
REMARK    1  A    between atoms: C_1  and  C_2
REMARK    2  A    between atoms: C_5  and  N_6
REMARK    3  A    between atoms: N_6  and  S_7
REMARK    4  A    between atoms: S_7  and  C_10
REMARK    5  A    between atoms: C_13  and  N_14
REMARK    6  A    between atoms: N_17  and  C_18
REMARK    7  A    between atoms: C_28  and  C_29
REMARK                            x       y       z     vdW  Elec       q    Type
REMARK                         _______ _______ _______ _____ _____    ______ ____
ROOT
ATOM      1  C   UNL     1       6.680   5.800  17.521  0.00  0.00    +0.000 A 
ATOM      2  C   UNL     1       7.486   5.556  18.625  0.00  0.00    +0.000 A 
ATOM      3  C   UNL     1       8.258   6.589  19.155  0.00  0.00    +0.000 A 
ATOM      4  C   UNL     1       8.256   7.869  18.584  0.00  0.00    +0.000 A 
ATOM      5  C   UNL     1       7.439   8.101  17.468  0.00  0.00    +0.000 A 
ATOM      6  C   UNL     1       6.645   7.070  16.937  0.00  0.00    +0.000 A 
ENDROOT
BRANCH   4   7
ATOM      7  N   UNL     1       9.032   8.938  19.102  0.00  0.00    +0.000 N 
ATOM      8  C   UNL     1       9.023  10.238  18.626  0.00  0.00    +0.000 C 
ATOM      9  O   UNL     1       8.263  10.670  17.766  0.00  0.00    +0.000 OA
ATOM     10  N   UNL     1      10.019  11.019  19.201  0.00  0.00    +0.000 N 
ATOM     11  H   UNL     1       9.533   8.774  19.965  0.00  0.00    +0.000 HD
ATOM     12  H   UNL     1      10.882  10.525  19.392  0.00  0.00    +0.000 HD
BRANCH  10  13
ATOM     13  C   UNL     1      10.183  12.365  18.776  0.00  0.00    +0.000 A 
ATOM     14  C   UNL     1       9.372  13.398  19.264  0.00  0.00    +0.000 A 
ATOM     15  C   UNL     1       9.484  14.685  18.737  0.00  0.00    +0.000 A 
ATOM     16  C   UNL     1      10.404  14.933  17.724  0.00  0.00    +0.000 A 
ATOM     17  F   UNL     1      10.481  16.161  17.193  0.00  0.00    +0.000 F 
ATOM     18  C   UNL     1      11.239  13.930  17.249  0.00  0.00    +0.000 A 
ATOM     19  C   UNL     1      11.136  12.654  17.795  0.00  0.00    +0.000 A 
ATOM     20  F   UNL     1      11.913  11.671  17.315  0.00  0.00    +0.000 F 
ENDBRANCH  10  13
ENDBRANCH   4   7
BRANCH   1  21
ATOM     21  S   UNL     1       5.648   4.472  16.942  0.00  0.00    +0.000 S 
ATOM     22  O   UNL     1       6.404   3.743  15.942  0.00  0.00    +0.000 OA
ATOM     23  O   UNL     1       4.336   5.030  16.675  0.00  0.00    +0.000 OA
BRANCH  21  24
ATOM     24  N   UNL     1       5.515   3.544  18.371  0.00  0.00    +0.000 N 
ATOM     25  H   UNL     1       5.688   4.206  19.128  0.00  0.00    +0.000 HD
BRANCH  24  30
ATOM     26  C   UNL     1       0.652   3.006  19.462  0.00  0.00    +0.000 C 
ATOM     27  C   UNL     1       2.043   2.828  18.980  0.00  0.00    +0.000 A 
ATOM     28  N   UNL     1       2.347   1.831  18.138  0.00  0.00    +0.000 NA
ATOM     29  O   UNL     1       3.688   1.991  17.842  0.00  0.00    +0.000 OA
ATOM     30  C   UNL     1       4.185   3.051  18.531  0.00  0.00    +0.000 A 
ATOM     31  C   UNL     1       3.179   3.637  19.264  0.00  0.00    +0.000 A 
ATOM     32  C   UNL     1       3.230   4.855  20.101  0.00  0.00    +0.000 C 
ENDBRANCH  24  30
ENDBRANCH  21  24
ENDBRANCH   1  21
TORSDOF 5
ENDMDL
MODEL 5
REMARK VINA RESULT:      -8.7      5.889      8.408
REMARK  Name = 
REMARK  7 active torsions:
REMARK  status: ('A' for Active; 'I' for Inactive)
REMARK    1  A    between atoms: C_1  and  C_2
REMARK    2  A    between atoms: C_5  and  N_6
REMARK    3  A    between atoms: N_6  and  S_7
REMARK    4  A    between atoms: S_7  and  C_10
REMARK    5  A    between atoms: C_13  and  N_14
REMARK    6  A    between atoms: N_17  and  C_18
REMARK    7  A    between atoms: C_28  and  C_29
REMARK                            x       y       z     vdW  Elec       q    Type
REMARK                         _______ _______ _______ _____ _____    ______ ____
ROOT
ATOM      1  C   UNL     1       2.346   4.618  18.849  0.00  0.00    +0.000 A 
ATOM      2  C   UNL     1       2.132   4.569  20.221  0.00  0.00    +0.000 A 
ATOM      3  C   UNL     1       1.953   5.755  20.932  0.00  0.00    +0.000 A 
ATOM      4  C   UNL     1       2.004   7.003  20.295  0.00  0.00    +0.000 A 
ATOM      5  C   UNL     1       2.222   7.038  18.911  0.00  0.00    +0.000 A 
ATOM      6  C   UNL     1       2.389   5.846  18.183  0.00  0.00    +0.000 A 
ENDROOT
BRANCH   4   7
ATOM      7  N   UNL     1       1.825   8.225  20.995  0.00  0.00    +0.000 N 
ATOM      8  C   UNL     1       0.618   8.881  21.162  0.00  0.00    +0.000 C 
ATOM      9  O   UNL     1      -0.477   8.443  20.828  0.00  0.00    +0.000 OA
ATOM     10  N   UNL     1       0.776  10.144  21.722  0.00  0.00    +0.000 N 
ATOM     11  H   UNL     1       2.612   8.580  21.521  0.00  0.00    +0.000 HD
ATOM     12  H   UNL     1       1.613  10.632  21.429  0.00  0.00    +0.000 HD
BRANCH  10  13
ATOM     13  C   UNL     1      -0.363  10.973  21.906  0.00  0.00    +0.000 A 
ATOM     14  C   UNL     1      -1.096  10.969  23.100  0.00  0.00    +0.000 A 
ATOM     15  C   UNL     1      -2.275  11.707  23.202  0.00  0.00    +0.000 A 
ATOM     16  C   UNL     1      -2.718  12.445  22.109  0.00  0.00    +0.000 A 
ATOM     17  F   UNL     1      -3.872  13.121  22.198  0.00  0.00    +0.000 F 
ATOM     18  C   UNL     1      -1.990  12.488  20.927  0.00  0.00    +0.000 A 
ATOM     19  C   UNL     1      -0.804  11.765  20.842  0.00  0.00    +0.000 A 
ATOM     20  F   UNL     1      -0.115  11.772  19.690  0.00  0.00    +0.000 F 
ENDBRANCH  10  13
ENDBRANCH   4   7
BRANCH   1  21
ATOM     21  S   UNL     1       2.478   3.073  17.979  0.00  0.00    +0.000 S 
ATOM     22  O   UNL     1       2.118   3.325  16.597  0.00  0.00    +0.000 OA
ATOM     23  O   UNL     1       1.817   2.064  18.786  0.00  0.00    +0.000 OA
BRANCH  21  24
ATOM     24  N   UNL     1       4.159   2.793  18.106  0.00  0.00    +0.000 N 
ATOM     25  H   UNL     1       4.315   1.917  17.605  0.00  0.00    +0.000 HD
BRANCH  24  30
ATOM     26  C   UNL     1       7.260   6.548  16.918  0.00  0.00    +0.000 C 
ATOM     27  C   UNL     1       6.279   5.435  16.899  0.00  0.00    +0.000 A 
ATOM     28  N   UNL     1       5.895   4.891  15.738  0.00  0.00    +0.000 NA
ATOM     29  O   UNL     1       5.043   3.855  16.077  0.00  0.00    +0.000 OA
ATOM     30  C   UNL     1       4.895   3.810  17.427  0.00  0.00    +0.000 A 
ATOM     31  C   UNL     1       5.672   4.784  18.009  0.00  0.00    +0.000 A 
ATOM     32  C   UNL     1       5.890   5.062  19.445  0.00  0.00    +0.000 C 
ENDBRANCH  24  30
ENDBRANCH  21  24
ENDBRANCH   1  21
TORSDOF 5
ENDMDL
MODEL 6
REMARK VINA RESULT:      -8.7      1.200      1.490
REMARK  Name = 
REMARK  7 active torsions:
REMARK  status: ('A' for Active; 'I' for Inactive)
REMARK    1  A    between atoms: C_1  and  C_2
REMARK    2  A    between atoms: C_5  and  N_6
REMARK    3  A    between atoms: N_6  and  S_7
REMARK    4  A    between atoms: S_7  and  C_10
REMARK    5  A    between atoms: C_13  and  N_14
REMARK    6  A    between atoms: N_17  and  C_18
REMARK    7  A    between atoms: C_28  and  C_29
REMARK                            x       y       z     vdW  Elec       q    Type
REMARK                         _______ _______ _______ _____ _____    ______ ____
ROOT
ATOM      1  C   UNL     1       6.527   5.492  17.434  0.00  0.00    +0.000 A 
ATOM      2  C   UNL     1       7.322   5.232  18.544  0.00  0.00    +0.000 A 
ATOM      3  C   UNL     1       8.093   6.256  19.093  0.00  0.00    +0.000 A 
ATOM      4  C   UNL     1       8.102   7.542  18.537  0.00  0.00    +0.000 A 
ATOM      5  C   UNL     1       7.297   7.791  17.416  0.00  0.00    +0.000 A 
ATOM      6  C   UNL     1       6.504   6.769  16.865  0.00  0.00    +0.000 A 
ENDROOT
BRANCH   4   7
ATOM      7  N   UNL     1       8.877   8.601  19.075  0.00  0.00    +0.000 N 
ATOM      8  C   UNL     1       8.870   9.910  18.622  0.00  0.00    +0.000 C 
ATOM      9  O   UNL     1       8.112  10.356  17.769  0.00  0.00    +0.000 OA
ATOM     10  N   UNL     1       9.865  10.680  19.213  0.00  0.00    +0.000 N 
ATOM     11  H   UNL     1       9.377   8.422  19.936  0.00  0.00    +0.000 HD
ATOM     12  H   UNL     1      10.728  10.183  19.396  0.00  0.00    +0.000 HD
BRANCH  10  13
ATOM     13  C   UNL     1      10.030  12.033  18.812  0.00  0.00    +0.000 A 
ATOM     14  C   UNL     1       9.210  13.056  19.307  0.00  0.00    +0.000 A 
ATOM     15  C   UNL     1       9.325  14.352  18.802  0.00  0.00    +0.000 A 
ATOM     16  C   UNL     1      10.256  14.619  17.805  0.00  0.00    +0.000 A 
ATOM     17  F   UNL     1      10.335  15.855  17.295  0.00  0.00    +0.000 F 
ATOM     18  C   UNL     1      11.100  13.626  17.324  0.00  0.00    +0.000 A 
ATOM     19  C   UNL     1      10.994  12.341  17.847  0.00  0.00    +0.000 A 
ATOM     20  F   UNL     1      11.780  11.368  17.360  0.00  0.00    +0.000 F 
ENDBRANCH  10  13
ENDBRANCH   4   7
BRANCH   1  21
ATOM     21  S   UNL     1       5.496   4.176  16.830  0.00  0.00    +0.000 S 
ATOM     22  O   UNL     1       5.420   3.173  17.875  0.00  0.00    +0.000 OA
ATOM     23  O   UNL     1       5.936   3.867  15.482  0.00  0.00    +0.000 OA
BRANCH  21  24
ATOM     24  N   UNL     1       4.002   4.997  16.693  0.00  0.00    +0.000 N 
ATOM     25  H   UNL     1       3.722   4.862  15.720  0.00  0.00    +0.000 HD
BRANCH  24  30
ATOM     26  C   UNL     1       0.772   3.865  20.355  0.00  0.00    +0.000 C 
ATOM     27  C   UNL     1       1.569   3.903  19.104  0.00  0.00    +0.000 A 
ATOM     28  N   UNL     1       1.224   3.142  18.058  0.00  0.00    +0.000 NA
ATOM     29  O   UNL     1       2.119   3.464  17.054  0.00  0.00    +0.000 OA
ATOM     30  C   UNL     1       3.010   4.381  17.513  0.00  0.00    +0.000 A 
ATOM     31  C   UNL     1       2.701   4.714  18.811  0.00  0.00    +0.000 A 
ATOM     32  C   UNL     1       3.340   5.719  19.688  0.00  0.00    +0.000 C 
ENDBRANCH  24  30
ENDBRANCH  21  24
ENDBRANCH   1  21
TORSDOF 5
ENDMDL
MODEL 7
REMARK VINA RESULT:      -8.6      1.579      1.964
REMARK  Name = 
REMARK  7 active torsions:
REMARK  status: ('A' for Active; 'I' for Inactive)
REMARK    1  A    between atoms: C_1  and  C_2
REMARK    2  A    between atoms: C_5  and  N_6
REMARK    3  A    between atoms: N_6  and  S_7
REMARK    4  A    between atoms: S_7  and  C_10
REMARK    5  A    between atoms: C_13  and  N_14
REMARK    6  A    between atoms: N_17  and  C_18
REMARK    7  A    between atoms: C_28  and  C_29
REMARK                            x       y       z     vdW  Elec       q    Type
REMARK                         _______ _______ _______ _____ _____    ______ ____
ROOT
ATOM      1  C   UNL     1       6.070   5.317  17.123  0.00  0.00    +0.000 A 
ATOM      2  C   UNL     1       6.990   4.895  18.074  0.00  0.00    +0.000 A 
ATOM      3  C   UNL     1       7.838   5.827  18.672  0.00  0.00    +0.000 A 
ATOM      4  C   UNL     1       7.799   7.182  18.318  0.00  0.00    +0.000 A 
ATOM      5  C   UNL     1       6.867   7.594  17.355  0.00  0.00    +0.000 A 
ATOM      6  C   UNL     1       5.997   6.665  16.759  0.00  0.00    +0.000 A 
ENDROOT
BRANCH   4   7
ATOM      7  N   UNL     1       8.650   8.151  18.911  0.00  0.00    +0.000 N 
ATOM      8  C   UNL     1       8.729   9.482  18.538  0.00  0.00    +0.000 C 
ATOM      9  O   UNL     1       7.996  10.031  17.724  0.00  0.00    +0.000 OA
ATOM     10  N   UNL     1       9.780  10.144  19.161  0.00  0.00    +0.000 N 
ATOM     11  H   UNL     1       9.143   7.885  19.752  0.00  0.00    +0.000 HD
ATOM     12  H   UNL     1      10.608   9.579  19.303  0.00  0.00    +0.000 HD
BRANCH  10  13
ATOM     13  C   UNL     1      10.035  11.505  18.842  0.00  0.00    +0.000 A 
ATOM     14  C   UNL     1      10.817  11.871  17.738  0.00  0.00    +0.000 A 
ATOM     15  C   UNL     1      11.143  13.211  17.524  0.00  0.00    +0.000 A 
ATOM     16  C   UNL     1      10.688  14.178  18.414  0.00  0.00    +0.000 A 
ATOM     17  F   UNL     1      11.037  15.458  18.227  0.00  0.00    +0.000 F 
ATOM     18  C   UNL     1       9.886  13.838  19.496  0.00  0.00    +0.000 A 
ATOM     19  C   UNL     1       9.548  12.503  19.690  0.00  0.00    +0.000 A 
ATOM     20  F   UNL     1       8.804  12.163  20.755  0.00  0.00    +0.000 F 
ENDBRANCH  10  13
ENDBRANCH   4   7
BRANCH   1  21
ATOM     21  S   UNL     1       4.952   4.104  16.459  0.00  0.00    +0.000 S 
ATOM     22  O   UNL     1       5.108   2.897  17.248  0.00  0.00    +0.000 OA
ATOM     23  O   UNL     1       5.107   4.118  15.016  0.00  0.00    +0.000 OA
BRANCH  21  24
ATOM     24  N   UNL     1       3.453   4.846  16.809  0.00  0.00    +0.000 N 
ATOM     25  H   UNL     1       2.939   4.819  15.927  0.00  0.00    +0.000 HD
BRANCH  24  30
ATOM     26  C   UNL     1       1.204   3.123  20.944  0.00  0.00    +0.000 C 
ATOM     27  C   UNL     1       1.702   3.336  19.563  0.00  0.00    +0.000 A 
ATOM     28  N   UNL     1       1.197   2.628  18.545  0.00  0.00    +0.000 NA
ATOM     29  O   UNL     1       1.821   3.114  17.410  0.00  0.00    +0.000 OA
ATOM     30  C   UNL     1       2.716   4.074  17.757  0.00  0.00    +0.000 A 
ATOM     31  C   UNL     1       2.675   4.274  19.117  0.00  0.00    +0.000 A 
ATOM     32  C   UNL     1       3.409   5.265  19.932  0.00  0.00    +0.000 C 
ENDBRANCH  24  30
ENDBRANCH  21  24
ENDBRANCH   1  21
TORSDOF 5
ENDMDL
MODEL 8
REMARK VINA RESULT:      -8.6      6.134      8.526
REMARK  Name = 
REMARK  7 active torsions:
REMARK  status: ('A' for Active; 'I' for Inactive)
REMARK    1  A    between atoms: C_1  and  C_2
REMARK    2  A    between atoms: C_5  and  N_6
REMARK    3  A    between atoms: N_6  and  S_7
REMARK    4  A    between atoms: S_7  and  C_10
REMARK    5  A    between atoms: C_13  and  N_14
REMARK    6  A    between atoms: N_17  and  C_18
REMARK    7  A    between atoms: C_28  and  C_29
REMARK                            x       y       z     vdW  Elec       q    Type
REMARK                         _______ _______ _______ _____ _____    ______ ____
ROOT
ATOM      1  C   UNL     1       2.433   4.954  18.967  0.00  0.00    +0.000 A 
ATOM      2  C   UNL     1       2.270   5.170  20.330  0.00  0.00    +0.000 A 
ATOM      3  C   UNL     1       2.034   6.462  20.798  0.00  0.00    +0.000 A 
ATOM      4  C   UNL     1       1.978   7.557  19.925  0.00  0.00    +0.000 A 
ATOM      5  C   UNL     1       2.146   7.325  18.553  0.00  0.00    +0.000 A 
ATOM      6  C   UNL     1       2.369   6.024  18.069  0.00  0.00    +0.000 A 
ENDROOT
BRANCH   4   7
ATOM      7  N   UNL     1       1.739   8.881  20.375  0.00  0.00    +0.000 N 
ATOM      8  C   UNL     1       0.538   9.351  20.877  0.00  0.00    +0.000 C 
ATOM      9  O   UNL     1      -0.449   8.662  21.107  0.00  0.00    +0.000 OA
ATOM     10  N   UNL     1       0.544  10.730  21.059  0.00  0.00    +0.000 N 
ATOM     11  H   UNL     1       2.537   9.496  20.458  0.00  0.00    +0.000 HD
ATOM     12  H   UNL     1       1.070  11.243  20.363  0.00  0.00    +0.000 HD
BRANCH  10  13
ATOM     13  C   UNL     1      -0.635  11.379  21.514  0.00  0.00    +0.000 A 
ATOM     14  C   UNL     1      -1.055  11.299  22.849  0.00  0.00    +0.000 A 
ATOM     15  C   UNL     1      -2.278  11.850  23.232  0.00  0.00    +0.000 A 
ATOM     16  C   UNL     1      -3.077  12.476  22.281  0.00  0.00    +0.000 A 
ATOM     17  F   UNL     1      -4.268  12.967  22.645  0.00  0.00    +0.000 F 
ATOM     18  C   UNL     1      -2.665  12.592  20.960  0.00  0.00    +0.000 A 
ATOM     19  C   UNL     1      -1.434  12.059  20.590  0.00  0.00    +0.000 A 
ATOM     20  F   UNL     1      -1.046  12.134  19.307  0.00  0.00    +0.000 F 
ENDBRANCH  10  13
ENDBRANCH   4   7
BRANCH   1  21
ATOM     21  S   UNL     1       2.641   3.277  18.415  0.00  0.00    +0.000 S 
ATOM     22  O   UNL     1       1.404   2.878  17.773  0.00  0.00    +0.000 OA
ATOM     23  O   UNL     1       3.227   2.531  19.514  0.00  0.00    +0.000 OA
BRANCH  21  24
ATOM     24  N   UNL     1       3.870   3.490  17.246  0.00  0.00    +0.000 N 
ATOM     25  H   UNL     1       3.471   4.141  16.567  0.00  0.00    +0.000 HD
BRANCH  24  30
ATOM     26  C   UNL     1       7.658   6.592  18.320  0.00  0.00    +0.000 C 
ATOM     27  C   UNL     1       6.655   5.499  18.313  0.00  0.00    +0.000 A 
ATOM     28  N   UNL     1       6.521   4.695  19.376  0.00  0.00    +0.000 NA
ATOM     29  O   UNL     1       5.473   3.847  19.070  0.00  0.00    +0.000 OA
ATOM     30  C   UNL     1       5.013   4.121  17.822  0.00  0.00    +0.000 A 
ATOM     31  C   UNL     1       5.716   5.178  17.292  0.00  0.00    +0.000 A 
ATOM     32  C   UNL     1       5.518   5.870  16.001  0.00  0.00    +0.000 C 
ENDBRANCH  24  30
ENDBRANCH  21  24
ENDBRANCH   1  21
TORSDOF 5
ENDMDL
MODEL 9
REMARK VINA RESULT:      -8.6      6.254      8.628
REMARK  Name = 
REMARK  7 active torsions:
REMARK  status: ('A' for Active; 'I' for Inactive)
REMARK    1  A    between atoms: C_1  and  C_2
REMARK    2  A    between atoms: C_5  and  N_6
REMARK    3  A    between atoms: N_6  and  S_7
REMARK    4  A    between atoms: S_7  and  C_10
REMARK    5  A    between atoms: C_13  and  N_14
REMARK    6  A    between atoms: N_17  and  C_18
REMARK    7  A    between atoms: C_28  and  C_29
REMARK                            x       y       z     vdW  Elec       q    Type
REMARK                         _______ _______ _______ _____ _____    ______ ____
ROOT
ATOM      1  C   UNL     1       2.459   4.965  18.996  0.00  0.00    +0.000 A 
ATOM      2  C   UNL     1       2.139   5.136  20.337  0.00  0.00    +0.000 A 
ATOM      3  C   UNL     1       1.861   6.414  20.820  0.00  0.00    +0.000 A 
ATOM      4  C   UNL     1       1.918   7.539  19.987  0.00  0.00    +0.000 A 
ATOM      5  C   UNL     1       2.244   7.353  18.636  0.00  0.00    +0.000 A 
ATOM      6  C   UNL     1       2.510   6.066  18.135  0.00  0.00    +0.000 A 
ENDROOT
BRANCH   4   7
ATOM      7  N   UNL     1       1.640   8.850  20.453  0.00  0.00    +0.000 N 
ATOM      8  C   UNL     1       0.398   9.309  20.859  0.00  0.00    +0.000 C 
ATOM      9  O   UNL     1      -0.606   8.615  20.979  0.00  0.00    +0.000 OA
ATOM     10  N   UNL     1       0.388  10.681  21.082  0.00  0.00    +0.000 N 
ATOM     11  H   UNL     1       2.427   9.460  20.625  0.00  0.00    +0.000 HD
ATOM     12  H   UNL     1       0.974  11.213  20.451  0.00  0.00    +0.000 HD
BRANCH  10  13
ATOM     13  C   UNL     1      -0.827  11.319  21.449  0.00  0.00    +0.000 A 
ATOM     14  C   UNL     1      -1.559  12.094  20.539  0.00  0.00    +0.000 A 
ATOM     15  C   UNL     1      -2.684  12.801  20.966  0.00  0.00    +0.000 A 
ATOM     16  C   UNL     1      -3.071  12.731  22.300  0.00  0.00    +0.000 A 
ATOM     17  F   UNL     1      -4.127  13.443  22.715  0.00  0.00    +0.000 F 
ATOM     18  C   UNL     1      -2.377  11.943  23.210  0.00  0.00    +0.000 A 
ATOM     19  C   UNL     1      -1.270  11.225  22.771  0.00  0.00    +0.000 A 
ATOM     20  F   UNL     1      -0.573  10.491  23.653  0.00  0.00    +0.000 F 
ENDBRANCH  10  13
ENDBRANCH   4   7
BRANCH   1  21
ATOM     21  S   UNL     1       2.715   3.306  18.412  0.00  0.00    +0.000 S 
ATOM     22  O   UNL     1       1.484   2.877  17.778  0.00  0.00    +0.000 OA
ATOM     23  O   UNL     1       3.339   2.561  19.490  0.00  0.00    +0.000 OA
BRANCH  21  24
ATOM     24  N   UNL     1       3.921   3.579  17.232  0.00  0.00    +0.000 N 
ATOM     25  H   UNL     1       3.505   4.254  16.588  0.00  0.00    +0.000 HD
BRANCH  24  30
ATOM     26  C   UNL     1       7.718   6.654  18.350  0.00  0.00    +0.000 C 
ATOM     27  C   UNL     1       6.715   5.563  18.325  0.00  0.00    +0.000 A 
ATOM     28  N   UNL     1       6.587   4.735  19.370  0.00  0.00    +0.000 NA
ATOM     29  O   UNL     1       5.536   3.895  19.053  0.00  0.00    +0.000 OA
ATOM     30  C   UNL     1       5.068   4.196  17.814  0.00  0.00    +0.000 A 
ATOM     31  C   UNL     1       5.769   5.264  17.304  0.00  0.00    +0.000 A 
ATOM     32  C   UNL     1       5.563   5.986  16.029  0.00  0.00    +0.000 C 
ENDBRANCH  24  30
ENDBRANCH  21  24
ENDBRANCH   1  21
TORSDOF 5
ENDMDL
