MODEL 1
REMARK VINA RESULT:      -9.1      0.000      0.000
REMARK  Name = 
REMARK  4 active torsions:
REMARK  status: ('A' for Active; 'I' for Inactive)
REMARK    1  A    between atoms: C_2  and  C_23
REMARK    2  A    between atoms: N_3  and  C_4
REMARK    3  A    between atoms: C_8  and  C_10
REMARK    4  A    between atoms: N_13  and  C_14
REMARK                            x       y       z     vdW  Elec       q    Type
REMARK                         _______ _______ _______ _____ _____    ______ ____
ROOT
ATOM      1  C   UNL     1       1.680   6.147  20.373  0.00  0.00    +0.000 C 
ATOM      2  C   UNL     1       2.445   5.035  21.038  0.00  0.00    +0.000 C 
ATOM      3  C   UNL     1       3.450   4.263  20.250  0.00  0.00    +0.000 C 
ATOM      4  N   UNL     1       2.688   3.762  19.104  0.00  0.00    +0.000 N 
ATOM      5  C   UNL     1       3.168   3.384  17.864  0.00  0.00    +0.000 C 
ATOM      6  O   UNL     1       2.410   2.915  17.010  0.00  0.00    +0.000 OA
ATOM      7  C   UNL     1       1.249   3.782  19.357  0.00  0.00    +0.000 C 
ATOM      8  C   UNL     1       1.091   4.759  20.485  0.00  0.00    +0.000 C 
ENDROOT
BRANCH   5   9
ATOM      9  C   UNL     1       4.627   3.685  17.545  0.00  0.00    +0.000 C 
ATOM     10  C   UNL     1       4.997   5.170  17.602  0.00  0.00    +0.000 C 
ATOM     11  C   UNL     1       5.073   5.635  16.153  0.00  0.00    +0.000 C 
ATOM     12  N   UNL     1       5.413   4.430  15.412  0.00  0.00    +0.000 N 
ATOM     13  C   UNL     1       5.052   3.228  16.155  0.00  0.00    +0.000 C 
BRANCH  12  14
ATOM     14  C   UNL     1       6.118   4.368  14.231  0.00  0.00    +0.000 A 
ATOM     15  C   UNL     1       5.762   3.512  13.180  0.00  0.00    +0.000 A 
ATOM     16  C   UNL     1       6.438   3.523  11.951  0.00  0.00    +0.000 A 
ATOM     17  C   UNL     1       7.516   4.377  11.751  0.00  0.00    +0.000 A 
ATOM     18  C   UNL     1       7.924   5.208  12.784  0.00  0.00    +0.000 A 
ATOM     19  C   UNL     1       7.234   5.195  14.002  0.00  0.00    +0.000 A 
ENDBRANCH  12  14
ENDBRANCH   5   9
BRANCH   1  22
ATOM     20  O   UNL     1       1.556   8.739  19.411  0.00  0.00    +0.000 OA
ATOM     21  C   UNL     1       1.151   8.514  20.549  0.00  0.00    +0.000 C 
ATOM     22  N   UNL     1       1.236   7.264  21.147  0.00  0.00    +0.000 N 
ATOM     23  H   UNL     1       0.722   7.087  22.000  0.00  0.00    +0.000 HD
BRANCH  21  24
ATOM     24  C   UNL     1       0.494   9.601  21.318  0.00  0.00    +0.000 A 
ATOM     25  C   UNL     1      -0.204   9.244  22.482  0.00  0.00    +0.000 A 
ATOM     26  C   UNL     1      -0.879  10.214  23.226  0.00  0.00    +0.000 A 
ATOM     27  C   UNL     1      -0.861  11.535  22.797  0.00  0.00    +0.000 A 
ATOM     28  F   UNL     1      -1.521  12.464  23.498  0.00  0.00    +0.000 F 
ATOM     29  C   UNL     1      -0.174  11.906  21.644  0.00  0.00    +0.000 A 
ATOM     30  C   UNL     1       0.507  10.938  20.897  0.00  0.00    +0.000 A 
ENDBRANCH  21  24
ENDBRANCH   1  22
TORSDOF 4
ENDMDL
MODEL 2
REMARK VINA RESULT:      -7.9      4.030      5.432
REMARK  Name = 
REMARK  4 active torsions:
REMARK  status: ('A' for Active; 'I' for Inactive)
REMARK    1  A    between atoms: C_2  and  C_23
REMARK    2  A    between atoms: N_3  and  C_4
REMARK    3  A    between atoms: C_8  and  C_10
REMARK    4  A    between atoms: N_13  and  C_14
REMARK                            x       y       z     vdW  Elec       q    Type
REMARK                         _______ _______ _______ _____ _____    ______ ____
ROOT
ATOM      1  C   UNL     1      -0.957  10.416  19.280  0.00  0.00    +0.000 C 
ATOM      2  C   UNL     1       0.415  10.867  18.855  0.00  0.00    +0.000 C 
ATOM      3  C   UNL     1       1.414   9.852  18.410  0.00  0.00    +0.000 C 
ATOM      4  N   UNL     1       1.493   8.919  19.536  0.00  0.00    +0.000 N 
ATOM      5  C   UNL     1       1.895   7.596  19.517  0.00  0.00    +0.000 C 
ATOM      6  O   UNL     1       1.975   6.946  20.563  0.00  0.00    +0.000 OA
ATOM      7  C   UNL     1       0.984   9.512  20.771  0.00  0.00    +0.000 C 
ATOM      8  C   UNL     1       0.131  10.654  20.301  0.00  0.00    +0.000 C 
ENDROOT
BRANCH   5   9
ATOM      9  C   UNL     1       2.107   6.937  18.160  0.00  0.00    +0.000 C 
ATOM     10  C   UNL     1       1.716   5.458  18.104  0.00  0.00    +0.000 C 
ATOM     11  C   UNL     1       3.025   4.680  18.160  0.00  0.00    +0.000 C 
ATOM     12  N   UNL     1       4.006   5.595  17.596  0.00  0.00    +0.000 N 
ATOM     13  C   UNL     1       3.554   6.980  17.683  0.00  0.00    +0.000 C 
BRANCH  12  14
ATOM     14  C   UNL     1       5.154   5.249  16.922  0.00  0.00    +0.000 A 
ATOM     15  C   UNL     1       5.270   5.330  15.528  0.00  0.00    +0.000 A 
ATOM     16  C   UNL     1       6.474   5.056  14.864  0.00  0.00    +0.000 A 
ATOM     17  C   UNL     1       7.597   4.662  15.582  0.00  0.00    +0.000 A 
ATOM     18  C   UNL     1       7.508   4.528  16.960  0.00  0.00    +0.000 A 
ATOM     19  C   UNL     1       6.303   4.815  17.612  0.00  0.00    +0.000 A 
ENDBRANCH  12  14
ENDBRANCH   5   9
BRANCH   1  22
ATOM     20  O   UNL     1      -3.103   9.836  17.629  0.00  0.00    +0.000 OA
ATOM     21  C   UNL     1      -3.133  10.870  18.292  0.00  0.00    +0.000 C 
ATOM     22  N   UNL     1      -2.078  11.285  19.094  0.00  0.00    +0.000 N 
ATOM     23  H   UNL     1      -2.224  12.032  19.759  0.00  0.00    +0.000 HD
BRANCH  21  24
ATOM     24  C   UNL     1      -4.362  11.703  18.290  0.00  0.00    +0.000 A 
ATOM     25  C   UNL     1      -5.061  11.829  17.079  0.00  0.00    +0.000 A 
ATOM     26  C   UNL     1      -6.200  12.632  17.001  0.00  0.00    +0.000 A 
ATOM     27  C   UNL     1      -6.631  13.313  18.132  0.00  0.00    +0.000 A 
ATOM     28  F   UNL     1      -7.712  14.097  18.057  0.00  0.00    +0.000 F 
ATOM     29  C   UNL     1      -5.950  13.200  19.341  0.00  0.00    +0.000 A 
ATOM     30  C   UNL     1      -4.809  12.393  19.425  0.00  0.00    +0.000 A 
ENDBRANCH  21  24
ENDBRANCH   1  22
TORSDOF 4
ENDMDL
MODEL 3
REMARK VINA RESULT:      -7.9      4.787     10.293
REMARK  Name = 
REMARK  4 active torsions:
REMARK  status: ('A' for Active; 'I' for Inactive)
REMARK    1  A    between atoms: C_2  and  C_23
REMARK    2  A    between atoms: N_3  and  C_4
REMARK    3  A    between atoms: C_8  and  C_10
REMARK    4  A    between atoms: N_13  and  C_14
REMARK                            x       y       z     vdW  Elec       q    Type
REMARK                         _______ _______ _______ _____ _____    ______ ____
ROOT
ATOM      1  C   UNL     1       1.429   8.488  20.844  0.00  0.00    +0.000 C 
ATOM      2  C   UNL     1       0.405   9.017  19.875  0.00  0.00    +0.000 C 
ATOM      3  C   UNL     1       0.425  10.463  19.506  0.00  0.00    +0.000 C 
ATOM      4  N   UNL     1       0.337  11.156  20.793  0.00  0.00    +0.000 N 
ATOM      5  C   UNL     1       0.748  12.440  21.097  0.00  0.00    +0.000 C 
ATOM      6  O   UNL     1       0.549  12.918  22.218  0.00  0.00    +0.000 OA
ATOM      7  C   UNL     1      -0.178  10.283  21.847  0.00  0.00    +0.000 C 
ATOM      8  C   UNL     1       0.054   8.898  21.317  0.00  0.00    +0.000 C 
ENDROOT
BRANCH   5   9
ATOM      9  C   UNL     1       1.566  13.189  20.053  0.00  0.00    +0.000 C 
ATOM     10  C   UNL     1       2.613  14.145  20.633  0.00  0.00    +0.000 C 
ATOM     11  C   UNL     1       2.023  15.543  20.490  0.00  0.00    +0.000 C 
ATOM     12  N   UNL     1       1.124  15.433  19.352  0.00  0.00    +0.000 N 
ATOM     13  C   UNL     1       0.721  14.050  19.122  0.00  0.00    +0.000 C 
BRANCH  12  14
ATOM     14  C   UNL     1       0.782  16.442  18.480  0.00  0.00    +0.000 A 
ATOM     15  C   UNL     1      -0.518  16.956  18.389  0.00  0.00    +0.000 A 
ATOM     16  C   UNL     1      -0.832  18.042  17.557  0.00  0.00    +0.000 A 
ATOM     17  C   UNL     1       0.150  18.628  16.768  0.00  0.00    +0.000 A 
ATOM     18  C   UNL     1       1.440  18.117  16.800  0.00  0.00    +0.000 A 
ATOM     19  C   UNL     1       1.742  17.040  17.641  0.00  0.00    +0.000 A 
ENDBRANCH  12  14
ENDBRANCH   5   9
BRANCH   1  22
ATOM     20  O   UNL     1       2.490   7.373  18.543  0.00  0.00    +0.000 OA
ATOM     21  C   UNL     1       2.441   6.687  19.561  0.00  0.00    +0.000 C 
ATOM     22  N   UNL     1       1.864   7.129  20.744  0.00  0.00    +0.000 N 
ATOM     23  H   UNL     1       2.019   6.609  21.596  0.00  0.00    +0.000 HD
BRANCH  21  24
ATOM     24  C   UNL     1       3.066   5.340  19.564  0.00  0.00    +0.000 A 
ATOM     25  C   UNL     1       2.274   4.255  19.971  0.00  0.00    +0.000 A 
ATOM     26  C   UNL     1       2.815   2.970  20.035  0.00  0.00    +0.000 A 
ATOM     27  C   UNL     1       4.149   2.777  19.701  0.00  0.00    +0.000 A 
ATOM     28  F   UNL     1       4.677   1.549  19.778  0.00  0.00    +0.000 F 
ATOM     29  C   UNL     1       4.950   3.841  19.296  0.00  0.00    +0.000 A 
ATOM     30  C   UNL     1       4.411   5.131  19.227  0.00  0.00    +0.000 A 
ENDBRANCH  21  24
ENDBRANCH   1  22
TORSDOF 4
ENDMDL
MODEL 4
REMARK VINA RESULT:      -7.8      3.745      4.924
REMARK  Name = 
REMARK  4 active torsions:
REMARK  status: ('A' for Active; 'I' for Inactive)
REMARK    1  A    between atoms: C_2  and  C_23
REMARK    2  A    between atoms: N_3  and  C_4
REMARK    3  A    between atoms: C_8  and  C_10
REMARK    4  A    between atoms: N_13  and  C_14
REMARK                            x       y       z     vdW  Elec       q    Type
REMARK                         _______ _______ _______ _____ _____    ______ ____
ROOT
ATOM      1  C   UNL     1      -0.684   9.941  19.393  0.00  0.00    +0.000 C 
ATOM      2  C   UNL     1       0.681  10.289  18.862  0.00  0.00    +0.000 C 
ATOM      3  C   UNL     1       1.586   9.197  18.398  0.00  0.00    +0.000 C 
ATOM      4  N   UNL     1       1.685   8.306  19.556  0.00  0.00    +0.000 N 
ATOM      5  C   UNL     1       2.006   6.962  19.569  0.00  0.00    +0.000 C 
ATOM      6  O   UNL     1       2.116   6.350  20.636  0.00  0.00    +0.000 OA
ATOM      7  C   UNL     1       1.296   8.979  20.794  0.00  0.00    +0.000 C 
ATOM      8  C   UNL     1       0.482  10.152  20.331  0.00  0.00    +0.000 C 
ENDROOT
BRANCH   5   9
ATOM      9  C   UNL     1       2.087   6.237  18.232  0.00  0.00    +0.000 C 
ATOM     10  C   UNL     1       1.889   4.721  18.318  0.00  0.00    +0.000 C 
ATOM     11  C   UNL     1       3.281   4.113  18.197  0.00  0.00    +0.000 C 
ATOM     12  N   UNL     1       4.032   5.097  17.433  0.00  0.00    +0.000 N 
ATOM     13  C   UNL     1       3.423   6.420  17.522  0.00  0.00    +0.000 C 
BRANCH  12  14
ATOM     14  C   UNL     1       5.097   4.845  16.598  0.00  0.00    +0.000 A 
ATOM     15  C   UNL     1       4.936   4.419  15.273  0.00  0.00    +0.000 A 
ATOM     16  C   UNL     1       6.028   4.249  14.409  0.00  0.00    +0.000 A 
ATOM     17  C   UNL     1       7.322   4.476  14.861  0.00  0.00    +0.000 A 
ATOM     18  C   UNL     1       7.523   4.856  16.180  0.00  0.00    +0.000 A 
ATOM     19  C   UNL     1       6.424   5.033  17.029  0.00  0.00    +0.000 A 
ENDBRANCH  12  14
ENDBRANCH   5   9
BRANCH   1  22
ATOM     20  O   UNL     1      -2.577   9.795  17.378  0.00  0.00    +0.000 OA
ATOM     21  C   UNL     1      -2.694  10.670  18.234  0.00  0.00    +0.000 C 
ATOM     22  N   UNL     1      -1.761  10.870  19.242  0.00  0.00    +0.000 N 
ATOM     23  H   UNL     1      -1.996  11.468  20.023  0.00  0.00    +0.000 HD
BRANCH  21  24
ATOM     24  C   UNL     1      -3.905  11.529  18.237  0.00  0.00    +0.000 A 
ATOM     25  C   UNL     1      -4.219  12.207  19.426  0.00  0.00    +0.000 A 
ATOM     26  C   UNL     1      -5.368  12.996  19.506  0.00  0.00    +0.000 A 
ATOM     27  C   UNL     1      -6.202  13.098  18.401  0.00  0.00    +0.000 A 
ATOM     28  F   UNL     1      -7.313  13.839  18.479  0.00  0.00    +0.000 F 
ATOM     29  C   UNL     1      -5.906  12.432  17.214  0.00  0.00    +0.000 A 
ATOM     30  C   UNL     1      -4.754  11.642  17.127  0.00  0.00    +0.000 A 
ENDBRANCH  21  24
ENDBRANCH   1  22
TORSDOF 4
ENDMDL
MODEL 5
REMARK VINA RESULT:      -7.6      5.317      8.606
REMARK  Name = 
REMARK  4 active torsions:
REMARK  status: ('A' for Active; 'I' for Inactive)
REMARK    1  A    between atoms: C_2  and  C_23
REMARK    2  A    between atoms: N_3  and  C_4
REMARK    3  A    between atoms: C_8  and  C_10
REMARK    4  A    between atoms: N_13  and  C_14
REMARK                            x       y       z     vdW  Elec       q    Type
REMARK                         _______ _______ _______ _____ _____    ______ ____
ROOT
ATOM      1  C   UNL     1       7.648   7.172  18.581  0.00  0.00    +0.000 C 
ATOM      2  C   UNL     1       7.325   6.666  17.200  0.00  0.00    +0.000 C 
ATOM      3  C   UNL     1       5.928   6.249  16.880  0.00  0.00    +0.000 C 
ATOM      4  N   UNL     1       5.622   5.238  17.894  0.00  0.00    +0.000 N 
ATOM      5  C   UNL     1       4.380   4.846  18.355  0.00  0.00    +0.000 C 
ATOM      6  O   UNL     1       4.271   3.926  19.172  0.00  0.00    +0.000 OA
ATOM      7  C   UNL     1       6.835   4.693  18.503  0.00  0.00    +0.000 C 
ATOM      8  C   UNL     1       7.884   5.726  18.210  0.00  0.00    +0.000 C 
ENDROOT
BRANCH   5   9
ATOM      9  C   UNL     1       3.170   5.666  17.924  0.00  0.00    +0.000 C 
ATOM     10  C   UNL     1       3.511   6.933  17.134  0.00  0.00    +0.000 C 
ATOM     11  C   UNL     1       3.356   8.089  18.114  0.00  0.00    +0.000 C 
ATOM     12  N   UNL     1       2.379   7.607  19.079  0.00  0.00    +0.000 N 
ATOM     13  C   UNL     1       2.317   6.149  19.091  0.00  0.00    +0.000 C 
BRANCH  12  14
ATOM     14  C   UNL     1       1.497   8.376  19.802  0.00  0.00    +0.000 A 
ATOM     15  C   UNL     1       1.143   8.081  21.126  0.00  0.00    +0.000 A 
ATOM     16  C   UNL     1       0.310   8.922  21.878  0.00  0.00    +0.000 A 
ATOM     17  C   UNL     1      -0.218  10.075  21.311  0.00  0.00    +0.000 A 
ATOM     18  C   UNL     1       0.075  10.377  19.989  0.00  0.00    +0.000 A 
ATOM     19  C   UNL     1       0.916   9.535  19.253  0.00  0.00    +0.000 A 
ENDBRANCH  12  14
ENDBRANCH   5   9
BRANCH   1  22
ATOM     20  O   UNL     1       7.503   9.797  17.716  0.00  0.00    +0.000 OA
ATOM     21  C   UNL     1       8.496   9.438  18.344  0.00  0.00    +0.000 C 
ATOM     22  N   UNL     1       8.696   8.129  18.759  0.00  0.00    +0.000 N 
ATOM     23  H   UNL     1       9.425   7.926  19.429  0.00  0.00    +0.000 HD
BRANCH  21  24
ATOM     24  C   UNL     1       9.517  10.444  18.730  0.00  0.00    +0.000 A 
ATOM     25  C   UNL     1       9.619  10.781  20.089  0.00  0.00    +0.000 A 
ATOM     26  C   UNL     1      10.530  11.751  20.511  0.00  0.00    +0.000 A 
ATOM     27  C   UNL     1      11.330  12.387  19.570  0.00  0.00    +0.000 A 
ATOM     28  F   UNL     1      12.192  13.329  19.968  0.00  0.00    +0.000 F 
ATOM     29  C   UNL     1      11.242  12.067  18.218  0.00  0.00    +0.000 A 
ATOM     30  C   UNL     1      10.332  11.092  17.791  0.00  0.00    +0.000 A 
ENDBRANCH  21  24
ENDBRANCH   1  22
TORSDOF 4
ENDMDL
MODEL 6
REMARK VINA RESULT:      -7.6      5.361      8.617
REMARK  Name = 
REMARK  4 active torsions:
REMARK  status: ('A' for Active; 'I' for Inactive)
REMARK    1  A    between atoms: C_2  and  C_23
REMARK    2  A    between atoms: N_3  and  C_4
REMARK    3  A    between atoms: C_8  and  C_10
REMARK    4  A    between atoms: N_13  and  C_14
REMARK                            x       y       z     vdW  Elec       q    Type
REMARK                         _______ _______ _______ _____ _____    ______ ____
ROOT
ATOM      1  C   UNL     1       7.685   7.180  18.677  0.00  0.00    +0.000 C 
ATOM      2  C   UNL     1       7.405   6.689  17.281  0.00  0.00    +0.000 C 
ATOM      3  C   UNL     1       6.027   6.236  16.927  0.00  0.00    +0.000 C 
ATOM      4  N   UNL     1       5.733   5.198  17.917  0.00  0.00    +0.000 N 
ATOM      5  C   UNL     1       4.494   4.760  18.346  0.00  0.00    +0.000 C 
ATOM      6  O   UNL     1       4.398   3.824  19.145  0.00  0.00    +0.000 OA
ATOM      7  C   UNL     1       6.950   4.680  18.540  0.00  0.00    +0.000 C 
ATOM      8  C   UNL     1       7.972   5.749  18.286  0.00  0.00    +0.000 C 
ENDROOT
BRANCH   5   9
ATOM      9  C   UNL     1       3.269   5.551  17.905  0.00  0.00    +0.000 C 
ATOM     10  C   UNL     1       3.582   6.783  17.051  0.00  0.00    +0.000 C 
ATOM     11  C   UNL     1       3.437   7.981  17.982  0.00  0.00    +0.000 C 
ATOM     12  N   UNL     1       2.486   7.535  18.988  0.00  0.00    +0.000 N 
ATOM     13  C   UNL     1       2.437   6.079  19.067  0.00  0.00    +0.000 C 
BRANCH  12  14
ATOM     14  C   UNL     1       1.612   8.329  19.695  0.00  0.00    +0.000 A 
ATOM     15  C   UNL     1       1.023   9.479  19.152  0.00  0.00    +0.000 A 
ATOM     16  C   UNL     1       0.069  10.229  19.856  0.00  0.00    +0.000 A 
ATOM     17  C   UNL     1      -0.302   9.860  21.143  0.00  0.00    +0.000 A 
ATOM     18  C   UNL     1       0.292   8.753  21.730  0.00  0.00    +0.000 A 
ATOM     19  C   UNL     1       1.235   8.007  21.013  0.00  0.00    +0.000 A 
ENDBRANCH  12  14
ENDBRANCH   5   9
BRANCH   1  22
ATOM     20  O   UNL     1       7.560   9.763  17.690  0.00  0.00    +0.000 OA
ATOM     21  C   UNL     1       8.509   9.452  18.406  0.00  0.00    +0.000 C 
ATOM     22  N   UNL     1       8.699   8.165  18.891  0.00  0.00    +0.000 N 
ATOM     23  H   UNL     1       9.379   8.006  19.623  0.00  0.00    +0.000 HD
BRANCH  21  24
ATOM     24  C   UNL     1       9.479  10.494  18.824  0.00  0.00    +0.000 A 
ATOM     25  C   UNL     1      10.250  11.107  17.823  0.00  0.00    +0.000 A 
ATOM     26  C   UNL     1      11.210  12.063  18.156  0.00  0.00    +0.000 A 
ATOM     27  C   UNL     1      11.402  12.398  19.490  0.00  0.00    +0.000 A 
ATOM     28  F   UNL     1      12.333  13.302  19.816  0.00  0.00    +0.000 F 
ATOM     29  C   UNL     1      10.648  11.800  20.497  0.00  0.00    +0.000 A 
ATOM     30  C   UNL     1       9.682  10.842  20.167  0.00  0.00    +0.000 A 
ENDBRANCH  21  24
ENDBRANCH   1  22
TORSDOF 4
ENDMDL
MODEL 7
REMARK VINA RESULT:      -7.3      3.401      4.601
REMARK  Name = 
REMARK  4 active torsions:
REMARK  status: ('A' for Active; 'I' for Inactive)
REMARK    1  A    between atoms: C_2  and  C_23
REMARK    2  A    between atoms: N_3  and  C_4
REMARK    3  A    between atoms: C_8  and  C_10
REMARK    4  A    between atoms: N_13  and  C_14
REMARK                            x       y       z     vdW  Elec       q    Type
REMARK                         _______ _______ _______ _____ _____    ______ ____
ROOT
ATOM      1  C   UNL     1      -0.504   9.761  19.945  0.00  0.00    +0.000 C 
ATOM      2  C   UNL     1       0.863  10.164  19.458  0.00  0.00    +0.000 C 
ATOM      3  C   UNL     1       1.742   9.143  18.814  0.00  0.00    +0.000 C 
ATOM      4  N   UNL     1       1.834   8.078  19.815  0.00  0.00    +0.000 N 
ATOM      5  C   UNL     1       2.128   6.743  19.611  0.00  0.00    +0.000 C 
ATOM      6  O   UNL     1       2.237   5.968  20.565  0.00  0.00    +0.000 OA
ATOM      7  C   UNL     1       1.470   8.552  21.150  0.00  0.00    +0.000 C 
ATOM      8  C   UNL     1       0.676   9.799  20.889  0.00  0.00    +0.000 C 
ENDROOT
BRANCH   5   9
ATOM      9  C   UNL     1       2.182   6.240  18.174  0.00  0.00    +0.000 C 
ATOM     10  C   UNL     1       1.853   4.753  18.010  0.00  0.00    +0.000 C 
ATOM     11  C   UNL     1       3.191   4.052  17.808  0.00  0.00    +0.000 C 
ATOM     12  N   UNL     1       4.043   5.076  17.224  0.00  0.00    +0.000 N 
ATOM     13  C   UNL     1       3.546   6.415  17.519  0.00  0.00    +0.000 C 
BRANCH  12  14
ATOM     14  C   UNL     1       5.104   4.868  16.371  0.00  0.00    +0.000 A 
ATOM     15  C   UNL     1       4.941   4.413  15.056  0.00  0.00    +0.000 A 
ATOM     16  C   UNL     1       6.024   4.288  14.173  0.00  0.00    +0.000 A 
ATOM     17  C   UNL     1       7.312   4.592  14.596  0.00  0.00    +0.000 A 
ATOM     18  C   UNL     1       7.517   5.003  15.905  0.00  0.00    +0.000 A 
ATOM     19  C   UNL     1       6.427   5.133  16.773  0.00  0.00    +0.000 A 
ENDBRANCH  12  14
ENDBRANCH   5   9
BRANCH   1  22
ATOM     20  O   UNL     1      -2.099  10.326  17.754  0.00  0.00    +0.000 OA
ATOM     21  C   UNL     1      -2.346  10.883  18.821  0.00  0.00    +0.000 C 
ATOM     22  N   UNL     1      -1.564  10.722  19.957  0.00  0.00    +0.000 N 
ATOM     23  H   UNL     1      -1.912  11.044  20.849  0.00  0.00    +0.000 HD
BRANCH  21  24
ATOM     24  C   UNL     1      -3.558  11.732  18.938  0.00  0.00    +0.000 A 
ATOM     25  C   UNL     1      -4.505  11.661  17.904  0.00  0.00    +0.000 A 
ATOM     26  C   UNL     1      -5.646  12.465  17.934  0.00  0.00    +0.000 A 
ATOM     27  C   UNL     1      -5.831  13.343  18.993  0.00  0.00    +0.000 A 
ATOM     28  F   UNL     1      -6.914  14.129  19.017  0.00  0.00    +0.000 F 
ATOM     29  C   UNL     1      -4.902  13.428  20.027  0.00  0.00    +0.000 A 
ATOM     30  C   UNL     1      -3.758  12.621  20.003  0.00  0.00    +0.000 A 
ENDBRANCH  21  24
ENDBRANCH   1  22
TORSDOF 4
ENDMDL
MODEL 8
REMARK VINA RESULT:      -7.3      4.524     11.780
REMARK  Name = 
REMARK  4 active torsions:
REMARK  status: ('A' for Active; 'I' for Inactive)
REMARK    1  A    between atoms: C_2  and  C_23
REMARK    2  A    between atoms: N_3  and  C_4
REMARK    3  A    between atoms: C_8  and  C_10
REMARK    4  A    between atoms: N_13  and  C_14
REMARK                            x       y       z     vdW  Elec       q    Type
REMARK                         _______ _______ _______ _____ _____    ______ ____
ROOT
ATOM      1  C   UNL     1       1.168   9.017  19.226  0.00  0.00    +0.000 C 
ATOM      2  C   UNL     1       1.658  10.353  18.731  0.00  0.00    +0.000 C 
ATOM      3  C   UNL     1       1.119  11.603  19.344  0.00  0.00    +0.000 C 
ATOM      4  N   UNL     1      -0.330  11.480  19.175  0.00  0.00    +0.000 N 
ATOM      5  C   UNL     1      -1.326  12.091  19.914  0.00  0.00    +0.000 C 
ATOM      6  O   UNL     1      -2.515  11.945  19.613  0.00  0.00    +0.000 OA
ATOM      7  C   UNL     1      -0.678  10.509  18.140  0.00  0.00    +0.000 C 
ATOM      8  C   UNL     1       0.556   9.664  18.005  0.00  0.00    +0.000 C 
ENDROOT
BRANCH   5   9
ATOM      9  C   UNL     1      -0.918  12.836  21.178  0.00  0.00    +0.000 C 
ATOM     10  C   UNL     1      -0.909  11.978  22.447  0.00  0.00    +0.000 C 
ATOM     11  C   UNL     1      -2.178  12.345  23.205  0.00  0.00    +0.000 C 
ATOM     12  N   UNL     1      -2.460  13.709  22.785  0.00  0.00    +0.000 N 
ATOM     13  C   UNL     1      -1.824  14.016  21.508  0.00  0.00    +0.000 C 
BRANCH  12  14
ATOM     14  C   UNL     1      -3.108  14.674  23.522  0.00  0.00    +0.000 A 
ATOM     15  C   UNL     1      -2.434  15.546  24.388  0.00  0.00    +0.000 A 
ATOM     16  C   UNL     1      -3.097  16.580  25.066  0.00  0.00    +0.000 A 
ATOM     17  C   UNL     1      -4.468  16.751  24.916  0.00  0.00    +0.000 A 
ATOM     18  C   UNL     1      -5.175  15.880  24.101  0.00  0.00    +0.000 A 
ATOM     19  C   UNL     1      -4.500  14.859  23.422  0.00  0.00    +0.000 A 
ENDBRANCH  12  14
ENDBRANCH   5   9
BRANCH   1  22
ATOM     20  O   UNL     1       1.235   7.038  21.159  0.00  0.00    +0.000 OA
ATOM     21  C   UNL     1       1.944   6.913  20.164  0.00  0.00    +0.000 C 
ATOM     22  N   UNL     1       2.035   7.881  19.174  0.00  0.00    +0.000 N 
ATOM     23  H   UNL     1       2.476   7.651  18.294  0.00  0.00    +0.000 HD
BRANCH  21  24
ATOM     24  C   UNL     1       2.708   5.655  19.966  0.00  0.00    +0.000 A 
ATOM     25  C   UNL     1       2.220   4.492  20.584  0.00  0.00    +0.000 A 
ATOM     26  C   UNL     1       2.915   3.287  20.472  0.00  0.00    +0.000 A 
ATOM     27  C   UNL     1       4.100   3.251  19.749  0.00  0.00    +0.000 A 
ATOM     28  F   UNL     1       4.779   2.102  19.653  0.00  0.00    +0.000 F 
ATOM     29  C   UNL     1       4.600   4.394  19.130  0.00  0.00    +0.000 A 
ATOM     30  C   UNL     1       3.904   5.604  19.237  0.00  0.00    +0.000 A 
ENDBRANCH  21  24
ENDBRANCH   1  22
TORSDOF 4
ENDMDL
MODEL 9
REMARK VINA RESULT:      -7.2      4.459     12.124
REMARK  Name = 
REMARK  4 active torsions:
REMARK  status: ('A' for Active; 'I' for Inactive)
REMARK    1  A    between atoms: C_2  and  C_23
REMARK    2  A    between atoms: N_3  and  C_4
REMARK    3  A    between atoms: C_8  and  C_10
REMARK    4  A    between atoms: N_13  and  C_14
REMARK                            x       y       z     vdW  Elec       q    Type
REMARK                         _______ _______ _______ _____ _____    ______ ____
ROOT
ATOM      1  C   UNL     1       0.857   9.423  19.349  0.00  0.00    +0.000 C 
ATOM      2  C   UNL     1       1.319  10.802  18.957  0.00  0.00    +0.000 C 
ATOM      3  C   UNL     1       0.728  11.993  19.635  0.00  0.00    +0.000 C 
ATOM      4  N   UNL     1      -0.713  11.840  19.420  0.00  0.00    +0.000 N 
ATOM      5  C   UNL     1      -1.745  12.372  20.170  0.00  0.00    +0.000 C 
ATOM      6  O   UNL     1      -2.921  12.213  19.828  0.00  0.00    +0.000 OA
ATOM      7  C   UNL     1      -1.005  10.930  18.314  0.00  0.00    +0.000 C 
ATOM      8  C   UNL     1       0.257  10.132  18.157  0.00  0.00    +0.000 C 
ENDROOT
BRANCH   5   9
ATOM      9  C   UNL     1      -1.391  13.043  21.491  0.00  0.00    +0.000 C 
ATOM     10  C   UNL     1      -1.579  12.156  22.725  0.00  0.00    +0.000 C 
ATOM     11  C   UNL     1      -2.875  12.620  23.377  0.00  0.00    +0.000 C 
ATOM     12  N   UNL     1      -2.991  14.015  22.980  0.00  0.00    +0.000 N 
ATOM     13  C   UNL     1      -2.213  14.293  21.777  0.00  0.00    +0.000 C 
BRANCH  12  14
ATOM     14  C   UNL     1      -3.615  15.017  23.687  0.00  0.00    +0.000 A 
ATOM     15  C   UNL     1      -2.925  15.877  24.553  0.00  0.00    +0.000 A 
ATOM     16  C   UNL     1      -3.559  16.947  25.200  0.00  0.00    +0.000 A 
ATOM     17  C   UNL     1      -4.919  17.170  25.019  0.00  0.00    +0.000 A 
ATOM     18  C   UNL     1      -5.644  16.313  24.203  0.00  0.00    +0.000 A 
ATOM     19  C   UNL     1      -4.996  15.255  23.555  0.00  0.00    +0.000 A 
ENDBRANCH  12  14
ENDBRANCH   5   9
BRANCH   1  22
ATOM     20  O   UNL     1       1.010   7.378  21.208  0.00  0.00    +0.000 OA
ATOM     21  C   UNL     1       1.711   7.311  20.201  0.00  0.00    +0.000 C 
ATOM     22  N   UNL     1       1.759   8.318  19.246  0.00  0.00    +0.000 N 
ATOM     23  H   UNL     1       2.197   8.135  18.353  0.00  0.00    +0.000 HD
BRANCH  21  24
ATOM     24  C   UNL     1       2.511   6.087  19.949  0.00  0.00    +0.000 A 
ATOM     25  C   UNL     1       3.552   6.170  19.010  0.00  0.00    +0.000 A 
ATOM     26  C   UNL     1       4.314   5.043  18.698  0.00  0.00    +0.000 A 
ATOM     27  C   UNL     1       4.026   3.835  19.319  0.00  0.00    +0.000 A 
ATOM     28  F   UNL     1       4.743   2.748  19.009  0.00  0.00    +0.000 F 
ATOM     29  C   UNL     1       2.997   3.733  20.251  0.00  0.00    +0.000 A 
ATOM     30  C   UNL     1       2.233   4.861  20.570  0.00  0.00    +0.000 A 
ENDBRANCH  21  24
ENDBRANCH   1  22
TORSDOF 4
ENDMDL
