MODEL 1
REMARK VINA RESULT:      -8.6      0.000      0.000
REMARK  Name = 
REMARK  5 active torsions:
REMARK  status: ('A' for Active; 'I' for Inactive)
REMARK    1  A    between atoms: C_2  and  C_16
REMARK    2  A    between atoms: N_3  and  C_4
REMARK    3  A    between atoms: C_8  and  O_9
REMARK    4  A    between atoms: O_9  and  C_10
REMARK    5  A    between atoms: C_20  and  N_21
REMARK                            x       y       z     vdW  Elec       q    Type
REMARK                         _______ _______ _______ _____ _____    ______ ____
ROOT
ATOM      1  O   UNL     1       2.186   7.766  18.973  0.00  0.00    +0.000 OA
ATOM      2  C   UNL     1       1.792   7.570  20.118  0.00  0.00    +0.000 C 
ATOM      3  N   UNL     1       1.858   6.376  20.825  0.00  0.00    +0.000 N 
ATOM      4  H   UNL     1       1.326   6.302  21.681  0.00  0.00    +0.000 HD
ENDROOT
BRANCH   3   5
ATOM      5  C   UNL     1       2.395   5.170  20.306  0.00  0.00    +0.000 A 
ATOM      6  C   UNL     1       1.693   3.963  20.363  0.00  0.00    +0.000 A 
ATOM      7  C   UNL     1       2.277   2.771  19.948  0.00  0.00    +0.000 A 
ATOM      8  C   UNL     1       3.571   2.770  19.445  0.00  0.00    +0.000 A 
ATOM      9  C   UNL     1       4.283   3.964  19.341  0.00  0.00    +0.000 A 
ATOM     10  C   UNL     1       3.682   5.169  19.745  0.00  0.00    +0.000 A 
BRANCH   9  11
ATOM     11  O   UNL     1       5.562   4.054  18.850  0.00  0.00    +0.000 OA
BRANCH  11  12
ATOM     12  C   UNL     1       5.730   4.741  17.603  0.00  0.00    +0.000 C 
ATOM     13  C   UNL     1       4.925   4.085  16.482  0.00  0.00    +0.000 C 
ATOM     14  C   UNL     1       5.761   4.187  15.215  0.00  0.00    +0.000 C 
ATOM     15  C   UNL     1       7.140   4.679  15.630  0.00  0.00    +0.000 C 
ATOM     16  C   UNL     1       7.183   4.616  17.148  0.00  0.00    +0.000 C 
ENDBRANCH  11  12
ENDBRANCH   9  11
ENDBRANCH   3   5
BRANCH   2  17
ATOM     17  C   UNL     1       1.108   8.707  20.780  0.00  0.00    +0.000 A 
ATOM     18  C   UNL     1       0.574   8.482  22.053  0.00  0.00    +0.000 A 
ATOM     19  C   UNL     1      -0.102   9.498  22.709  0.00  0.00    +0.000 A 
ATOM     20  C   UNL     1      -0.240  10.746  22.096  0.00  0.00    +0.000 A 
ATOM     21  C   UNL     1       0.281  10.997  20.816  0.00  0.00    +0.000 A 
ATOM     22  C   UNL     1       0.941   9.949  20.155  0.00  0.00    +0.000 A 
BRANCH  21  23
ATOM     23  N   UNL     1       0.170  12.279  20.214  0.00  0.00    +0.000 N 
ATOM     24  C   UNL     1      -0.740  12.557  19.129  0.00  0.00    +0.000 C 
ATOM     25  C   UNL     1      -0.203  13.829  18.512  0.00  0.00    +0.000 C 
ATOM     26  C   UNL     1       0.419  14.563  19.683  0.00  0.00    +0.000 C 
ATOM     27  C   UNL     1       0.855  13.443  20.600  0.00  0.00    +0.000 C 
ATOM     28  O   UNL     1       1.636  13.617  21.522  0.00  0.00    +0.000 OA
ENDBRANCH  21  23
ENDBRANCH   2  17
TORSDOF 5
ENDMDL
MODEL 2
REMARK VINA RESULT:      -8.5      0.922      1.168
REMARK  Name = 
REMARK  5 active torsions:
REMARK  status: ('A' for Active; 'I' for Inactive)
REMARK    1  A    between atoms: C_2  and  C_16
REMARK    2  A    between atoms: N_3  and  C_4
REMARK    3  A    between atoms: C_8  and  O_9
REMARK    4  A    between atoms: O_9  and  C_10
REMARK    5  A    between atoms: C_20  and  N_21
REMARK                            x       y       z     vdW  Elec       q    Type
REMARK                         _______ _______ _______ _____ _____    ______ ____
ROOT
ATOM      1  O   UNL     1       2.281   7.646  18.942  0.00  0.00    +0.000 OA
ATOM      2  C   UNL     1       1.843   7.526  20.082  0.00  0.00    +0.000 C 
ATOM      3  N   UNL     1       1.833   6.368  20.849  0.00  0.00    +0.000 N 
ATOM      4  H   UNL     1       1.272   6.360  21.689  0.00  0.00    +0.000 HD
ENDROOT
BRANCH   3   5
ATOM      5  C   UNL     1       2.332   5.115  20.408  0.00  0.00    +0.000 A 
ATOM      6  C   UNL     1       1.608   3.931  20.574  0.00  0.00    +0.000 A 
ATOM      7  C   UNL     1       2.156   2.700  20.235  0.00  0.00    +0.000 A 
ATOM      8  C   UNL     1       3.436   2.632  19.701  0.00  0.00    +0.000 A 
ATOM      9  C   UNL     1       4.169   3.799  19.489  0.00  0.00    +0.000 A 
ATOM     10  C   UNL     1       3.603   5.044  19.817  0.00  0.00    +0.000 A 
BRANCH   9  11
ATOM     11  O   UNL     1       5.436   3.824  18.961  0.00  0.00    +0.000 OA
BRANCH  11  12
ATOM     12  C   UNL     1       5.620   4.580  17.756  0.00  0.00    +0.000 C 
ATOM     13  C   UNL     1       4.908   3.934  16.569  0.00  0.00    +0.000 C 
ATOM     14  C   UNL     1       5.795   4.146  15.350  0.00  0.00    +0.000 C 
ATOM     15  C   UNL     1       7.122   4.695  15.854  0.00  0.00    +0.000 C 
ATOM     16  C   UNL     1       7.097   4.561  17.369  0.00  0.00    +0.000 C 
ENDBRANCH  11  12
ENDBRANCH   9  11
ENDBRANCH   3   5
BRANCH   2  17
ATOM     17  C   UNL     1       1.189   8.724  20.663  0.00  0.00    +0.000 A 
ATOM     18  C   UNL     1       0.612   8.589  21.931  0.00  0.00    +0.000 A 
ATOM     19  C   UNL     1      -0.037   9.665  22.513  0.00  0.00    +0.000 A 
ATOM     20  C   UNL     1      -0.106  10.883  21.831  0.00  0.00    +0.000 A 
ATOM     21  C   UNL     1       0.459  11.044  20.556  0.00  0.00    +0.000 A 
ATOM     22  C   UNL     1       1.092   9.936  19.969  0.00  0.00    +0.000 A 
BRANCH  21  23
ATOM     23  N   UNL     1       0.418  12.295  19.885  0.00  0.00    +0.000 N 
ATOM     24  C   UNL     1       1.544  13.197  19.842  0.00  0.00    +0.000 C 
ATOM     25  C   UNL     1       0.936  14.532  19.473  0.00  0.00    +0.000 C 
ATOM     26  C   UNL     1      -0.248  14.159  18.604  0.00  0.00    +0.000 C 
ATOM     27  C   UNL     1      -0.656  12.806  19.138  0.00  0.00    +0.000 C 
ATOM     28  O   UNL     1      -1.734  12.296  18.877  0.00  0.00    +0.000 OA
ENDBRANCH  21  23
ENDBRANCH   2  17
TORSDOF 5
ENDMDL
MODEL 3
REMARK VINA RESULT:      -8.2      2.225      8.602
REMARK  Name = 
REMARK  5 active torsions:
REMARK  status: ('A' for Active; 'I' for Inactive)
REMARK    1  A    between atoms: C_2  and  C_16
REMARK    2  A    between atoms: N_3  and  C_4
REMARK    3  A    between atoms: C_8  and  O_9
REMARK    4  A    between atoms: O_9  and  C_10
REMARK    5  A    between atoms: C_20  and  N_21
REMARK                            x       y       z     vdW  Elec       q    Type
REMARK                         _______ _______ _______ _____ _____    ______ ____
ROOT
ATOM      1  O   UNL     1       0.387   5.852  20.768  0.00  0.00    +0.000 OA
ATOM      2  C   UNL     1       1.548   6.225  20.637  0.00  0.00    +0.000 C 
ATOM      3  N   UNL     1       2.019   7.527  20.744  0.00  0.00    +0.000 N 
ATOM      4  H   UNL     1       2.958   7.720  20.424  0.00  0.00    +0.000 HD
ENDROOT
BRANCH   3   5
ATOM      5  C   UNL     1       1.198   8.652  21.017  0.00  0.00    +0.000 A 
ATOM      6  C   UNL     1       0.884   9.040  22.321  0.00  0.00    +0.000 A 
ATOM      7  C   UNL     1      -0.008  10.077  22.569  0.00  0.00    +0.000 A 
ATOM      8  C   UNL     1      -0.586  10.763  21.509  0.00  0.00    +0.000 A 
ATOM      9  C   UNL     1      -0.263  10.424  20.196  0.00  0.00    +0.000 A 
ATOM     10  C   UNL     1       0.653   9.386  19.951  0.00  0.00    +0.000 A 
BRANCH   9  11
ATOM     11  O   UNL     1      -0.783  11.054  19.092  0.00  0.00    +0.000 OA
BRANCH  11  12
ATOM     12  C   UNL     1      -1.956  10.471  18.507  0.00  0.00    +0.000 C 
ATOM     13  C   UNL     1      -1.672   9.898  17.119  0.00  0.00    +0.000 C 
ATOM     14  C   UNL     1      -2.906  10.161  16.268  0.00  0.00    +0.000 C 
ATOM     15  C   UNL     1      -3.809  11.089  17.068  0.00  0.00    +0.000 C 
ATOM     16  C   UNL     1      -2.994  11.564  18.261  0.00  0.00    +0.000 C 
ENDBRANCH  11  12
ENDBRANCH   9  11
ENDBRANCH   3   5
BRANCH   2  17
ATOM     17  C   UNL     1       2.531   5.184  20.248  0.00  0.00    +0.000 A 
ATOM     18  C   UNL     1       2.292   3.878  20.689  0.00  0.00    +0.000 A 
ATOM     19  C   UNL     1       3.191   2.870  20.380  0.00  0.00    +0.000 A 
ATOM     20  C   UNL     1       4.329   3.163  19.624  0.00  0.00    +0.000 A 
ATOM     21  C   UNL     1       4.595   4.466  19.174  0.00  0.00    +0.000 A 
ATOM     22  C   UNL     1       3.687   5.482  19.516  0.00  0.00    +0.000 A 
BRANCH  21  23
ATOM     23  N   UNL     1       5.733   4.751  18.373  0.00  0.00    +0.000 N 
ATOM     24  C   UNL     1       6.889   5.452  18.878  0.00  0.00    +0.000 C 
ATOM     25  C   UNL     1       7.600   5.940  17.635  0.00  0.00    +0.000 C 
ATOM     26  C   UNL     1       7.284   4.878  16.601  0.00  0.00    +0.000 C 
ATOM     27  C   UNL     1       5.933   4.361  17.038  0.00  0.00    +0.000 C 
ATOM     28  O   UNL     1       5.221   3.688  16.310  0.00  0.00    +0.000 OA
ENDBRANCH  21  23
ENDBRANCH   2  17
TORSDOF 5
ENDMDL
MODEL 4
REMARK VINA RESULT:      -8.2      2.101      4.006
REMARK  Name = 
REMARK  5 active torsions:
REMARK  status: ('A' for Active; 'I' for Inactive)
REMARK    1  A    between atoms: C_2  and  C_16
REMARK    2  A    between atoms: N_3  and  C_4
REMARK    3  A    between atoms: C_8  and  O_9
REMARK    4  A    between atoms: O_9  and  C_10
REMARK    5  A    between atoms: C_20  and  N_21
REMARK                            x       y       z     vdW  Elec       q    Type
REMARK                         _______ _______ _______ _____ _____    ______ ____
ROOT
ATOM      1  O   UNL     1       1.845   7.541  20.335  0.00  0.00    +0.000 OA
ATOM      2  C   UNL     1       1.814   8.182  19.289  0.00  0.00    +0.000 C 
ATOM      3  N   UNL     1       2.296   7.775  18.051  0.00  0.00    +0.000 N 
ATOM      4  H   UNL     1       2.381   8.471  17.324  0.00  0.00    +0.000 HD
ENDROOT
BRANCH   3   5
ATOM      5  C   UNL     1       2.924   6.526  17.812  0.00  0.00    +0.000 A 
ATOM      6  C   UNL     1       4.265   6.434  17.428  0.00  0.00    +0.000 A 
ATOM      7  C   UNL     1       4.834   5.211  17.093  0.00  0.00    +0.000 A 
ATOM      8  C   UNL     1       4.076   4.050  17.157  0.00  0.00    +0.000 A 
ATOM      9  C   UNL     1       2.746   4.105  17.573  0.00  0.00    +0.000 A 
ATOM     10  C   UNL     1       2.179   5.341  17.928  0.00  0.00    +0.000 A 
BRANCH   9  11
ATOM     11  O   UNL     1       1.928   3.007  17.671  0.00  0.00    +0.000 OA
BRANCH  11  12
ATOM     12  C   UNL     1       1.839   2.379  18.957  0.00  0.00    +0.000 C 
ATOM     13  C   UNL     1       0.764   3.026  19.830  0.00  0.00    +0.000 C 
ATOM     14  C   UNL     1       1.291   3.023  21.258  0.00  0.00    +0.000 C 
ATOM     15  C   UNL     1       2.752   2.603  21.194  0.00  0.00    +0.000 C 
ATOM     16  C   UNL     1       3.140   2.610  19.724  0.00  0.00    +0.000 C 
ENDBRANCH  11  12
ENDBRANCH   9  11
ENDBRANCH   3   5
BRANCH   2  17
ATOM     17  C   UNL     1       1.276   9.561  19.381  0.00  0.00    +0.000 A 
ATOM     18  C   UNL     1       1.788  10.511  18.490  0.00  0.00    +0.000 A 
ATOM     19  C   UNL     1       1.344  11.822  18.547  0.00  0.00    +0.000 A 
ATOM     20  C   UNL     1       0.381  12.187  19.492  0.00  0.00    +0.000 A 
ATOM     21  C   UNL     1      -0.145  11.255  20.401  0.00  0.00    +0.000 A 
ATOM     22  C   UNL     1       0.334   9.936  20.347  0.00  0.00    +0.000 A 
BRANCH  21  23
ATOM     23  N   UNL     1      -1.151  11.623  21.334  0.00  0.00    +0.000 N 
ATOM     24  C   UNL     1      -2.355  12.322  20.952  0.00  0.00    +0.000 C 
ATOM     25  C   UNL     1      -2.869  12.909  22.247  0.00  0.00    +0.000 C 
ATOM     26  C   UNL     1      -2.427  11.909  23.296  0.00  0.00    +0.000 C 
ATOM     27  C   UNL     1      -1.163  11.327  22.708  0.00  0.00    +0.000 C 
ATOM     28  O   UNL     1      -0.367  10.682  23.371  0.00  0.00    +0.000 OA
ENDBRANCH  21  23
ENDBRANCH   2  17
TORSDOF 5
ENDMDL
MODEL 5
REMARK VINA RESULT:      -8.2      0.713      1.008
REMARK  Name = 
REMARK  5 active torsions:
REMARK  status: ('A' for Active; 'I' for Inactive)
REMARK    1  A    between atoms: C_2  and  C_16
REMARK    2  A    between atoms: N_3  and  C_4
REMARK    3  A    between atoms: C_8  and  O_9
REMARK    4  A    between atoms: O_9  and  C_10
REMARK    5  A    between atoms: C_20  and  N_21
REMARK                            x       y       z     vdW  Elec       q    Type
REMARK                         _______ _______ _______ _____ _____    ______ ____
ROOT
ATOM      1  O   UNL     1       1.871   8.336  19.146  0.00  0.00    +0.000 OA
ATOM      2  C   UNL     1       1.519   8.081  20.293  0.00  0.00    +0.000 C 
ATOM      3  N   UNL     1       1.628   6.858  20.943  0.00  0.00    +0.000 N 
ATOM      4  H   UNL     1       1.126   6.736  21.811  0.00  0.00    +0.000 HD
ENDROOT
BRANCH   3   5
ATOM      5  C   UNL     1       2.167   5.686  20.351  0.00  0.00    +0.000 A 
ATOM      6  C   UNL     1       1.471   4.475  20.343  0.00  0.00    +0.000 A 
ATOM      7  C   UNL     1       2.057   3.312  19.856  0.00  0.00    +0.000 A 
ATOM      8  C   UNL     1       3.348   3.346  19.347  0.00  0.00    +0.000 A 
ATOM      9  C   UNL     1       4.054   4.547  19.307  0.00  0.00    +0.000 A 
ATOM     10  C   UNL     1       3.451   5.724  19.784  0.00  0.00    +0.000 A 
BRANCH   9  11
ATOM     11  O   UNL     1       5.330   4.671  18.815  0.00  0.00    +0.000 OA
BRANCH  11  12
ATOM     12  C   UNL     1       5.526   4.336  17.434  0.00  0.00    +0.000 C 
ATOM     13  C   UNL     1       6.992   4.467  17.023  0.00  0.00    +0.000 C 
ATOM     14  C   UNL     1       7.008   5.001  15.598  0.00  0.00    +0.000 C 
ATOM     15  C   UNL     1       5.582   5.408  15.258  0.00  0.00    +0.000 C 
ATOM     16  C   UNL     1       4.795   5.351  16.559  0.00  0.00    +0.000 C 
ENDBRANCH  11  12
ENDBRANCH   9  11
ENDBRANCH   3   5
BRANCH   2  17
ATOM     17  C   UNL     1       0.838   9.175  21.029  0.00  0.00    +0.000 A 
ATOM     18  C   UNL     1       0.231   8.849  22.247  0.00  0.00    +0.000 A 
ATOM     19  C   UNL     1      -0.445   9.823  22.965  0.00  0.00    +0.000 A 
ATOM     20  C   UNL     1      -0.509  11.128  22.470  0.00  0.00    +0.000 A 
ATOM     21  C   UNL     1       0.087  11.480  21.248  0.00  0.00    +0.000 A 
ATOM     22  C   UNL     1       0.746  10.476  20.520  0.00  0.00    +0.000 A 
BRANCH  21  23
ATOM     23  N   UNL     1       0.050  12.817  20.770  0.00  0.00    +0.000 N 
ATOM     24  C   UNL     1      -1.051  13.342  19.999  0.00  0.00    +0.000 C 
ATOM     25  C   UNL     1      -0.480  14.569  19.324  0.00  0.00    +0.000 C 
ATOM     26  C   UNL     1       0.552  15.075  20.312  0.00  0.00    +0.000 C 
ATOM     27  C   UNL     1       1.010  13.815  21.009  0.00  0.00    +0.000 C 
ATOM     28  O   UNL     1       2.026  13.772  21.684  0.00  0.00    +0.000 OA
ENDBRANCH  21  23
ENDBRANCH   2  17
TORSDOF 5
ENDMDL
MODEL 6
REMARK VINA RESULT:      -8.2      2.334      8.847
REMARK  Name = 
REMARK  5 active torsions:
REMARK  status: ('A' for Active; 'I' for Inactive)
REMARK    1  A    between atoms: C_2  and  C_16
REMARK    2  A    between atoms: N_3  and  C_4
REMARK    3  A    between atoms: C_8  and  O_9
REMARK    4  A    between atoms: O_9  and  C_10
REMARK    5  A    between atoms: C_20  and  N_21
REMARK                            x       y       z     vdW  Elec       q    Type
REMARK                         _______ _______ _______ _____ _____    ______ ____
ROOT
ATOM      1  O   UNL     1       1.917   9.001  18.965  0.00  0.00    +0.000 OA
ATOM      2  C   UNL     1       1.577   8.200  19.829  0.00  0.00    +0.000 C 
ATOM      3  N   UNL     1       0.678   8.427  20.864  0.00  0.00    +0.000 N 
ATOM      4  H   UNL     1       0.636   7.750  21.613  0.00  0.00    +0.000 HD
ENDROOT
BRANCH   3   5
ATOM      5  C   UNL     1       0.013   9.661  21.087  0.00  0.00    +0.000 A 
ATOM      6  C   UNL     1      -0.092  10.225  22.360  0.00  0.00    +0.000 A 
ATOM      7  C   UNL     1      -0.839  11.377  22.577  0.00  0.00    +0.000 A 
ATOM      8  C   UNL     1      -1.478  12.001  21.514  0.00  0.00    +0.000 A 
ATOM      9  C   UNL     1      -1.361  11.483  20.225  0.00  0.00    +0.000 A 
ATOM     10  C   UNL     1      -0.590  10.327  20.008  0.00  0.00    +0.000 A 
BRANCH   9  11
ATOM     11  O   UNL     1      -1.953  12.039  19.119  0.00  0.00    +0.000 OA
BRANCH  11  12
ATOM     12  C   UNL     1      -2.809  11.186  18.345  0.00  0.00    +0.000 C 
ATOM     13  C   UNL     1      -2.376  11.130  16.880  0.00  0.00    +0.000 C 
ATOM     14  C   UNL     1      -3.647  11.060  16.044  0.00  0.00    +0.000 C 
ATOM     15  C   UNL     1      -4.814  11.315  16.986  0.00  0.00    +0.000 C 
ATOM     16  C   UNL     1      -4.214  11.782  18.303  0.00  0.00    +0.000 C 
ENDBRANCH  11  12
ENDBRANCH   9  11
ENDBRANCH   3   5
BRANCH   2  17
ATOM     17  C   UNL     1       2.256   6.882  19.805  0.00  0.00    +0.000 A 
ATOM     18  C   UNL     1       1.717   5.867  20.604  0.00  0.00    +0.000 A 
ATOM     19  C   UNL     1       2.326   4.623  20.645  0.00  0.00    +0.000 A 
ATOM     20  C   UNL     1       3.472   4.387  19.880  0.00  0.00    +0.000 A 
ATOM     21  C   UNL     1       4.035   5.389  19.074  0.00  0.00    +0.000 A 
ATOM     22  C   UNL     1       3.421   6.652  19.064  0.00  0.00    +0.000 A 
BRANCH  21  23
ATOM     23  N   UNL     1       5.178   5.132  18.271  0.00  0.00    +0.000 N 
ATOM     24  C   UNL     1       5.100   4.914  16.846  0.00  0.00    +0.000 C 
ATOM     25  C   UNL     1       6.404   4.230  16.503  0.00  0.00    +0.000 C 
ATOM     26  C   UNL     1       7.384   4.802  17.507  0.00  0.00    +0.000 C 
ATOM     27  C   UNL     1       6.514   5.107  18.704  0.00  0.00    +0.000 C 
ATOM     28  O   UNL     1       6.977   5.330  19.812  0.00  0.00    +0.000 OA
ENDBRANCH  21  23
ENDBRANCH   2  17
TORSDOF 5
ENDMDL
MODEL 7
REMARK VINA RESULT:      -8.2      1.641      8.448
REMARK  Name = 
REMARK  5 active torsions:
REMARK  status: ('A' for Active; 'I' for Inactive)
REMARK    1  A    between atoms: C_2  and  C_16
REMARK    2  A    between atoms: N_3  and  C_4
REMARK    3  A    between atoms: C_8  and  O_9
REMARK    4  A    between atoms: O_9  and  C_10
REMARK    5  A    between atoms: C_20  and  N_21
REMARK                            x       y       z     vdW  Elec       q    Type
REMARK                         _______ _______ _______ _____ _____    ______ ____
ROOT
ATOM      1  O   UNL     1       1.798   8.485  19.115  0.00  0.00    +0.000 OA
ATOM      2  C   UNL     1       1.760   7.700  20.057  0.00  0.00    +0.000 C 
ATOM      3  N   UNL     1       1.224   7.938  21.316  0.00  0.00    +0.000 N 
ATOM      4  H   UNL     1       1.430   7.278  22.052  0.00  0.00    +0.000 HD
ENDROOT
BRANCH   3   5
ATOM      5  C   UNL     1       0.635   9.167  21.712  0.00  0.00    +0.000 A 
ATOM      6  C   UNL     1      -0.209   9.259  22.821  0.00  0.00    +0.000 A 
ATOM      7  C   UNL     1      -0.862  10.446  23.131  0.00  0.00    +0.000 A 
ATOM      8  C   UNL     1      -0.664  11.574  22.345  0.00  0.00    +0.000 A 
ATOM      9  C   UNL     1       0.202  11.524  21.254  0.00  0.00    +0.000 A 
ATOM     10  C   UNL     1       0.874  10.325  20.955  0.00  0.00    +0.000 A 
BRANCH   9  11
ATOM     11  O   UNL     1       0.460  12.591  20.430  0.00  0.00    +0.000 OA
BRANCH  11  12
ATOM     12  C   UNL     1       1.794  12.703  19.914  0.00  0.00    +0.000 C 
ATOM     13  C   UNL     1       2.608  13.750  20.673  0.00  0.00    +0.000 C 
ATOM     14  C   UNL     1       3.499  14.444  19.654  0.00  0.00    +0.000 C 
ATOM     15  C   UNL     1       3.044  13.983  18.277  0.00  0.00    +0.000 C 
ATOM     16  C   UNL     1       1.739  13.230  18.482  0.00  0.00    +0.000 C 
ENDBRANCH  11  12
ENDBRANCH   9  11
ENDBRANCH   3   5
BRANCH   2  17
ATOM     17  C   UNL     1       2.426   6.391  19.847  0.00  0.00    +0.000 A 
ATOM     18  C   UNL     1       1.983   5.313  20.621  0.00  0.00    +0.000 A 
ATOM     19  C   UNL     1       2.586   4.073  20.490  0.00  0.00    +0.000 A 
ATOM     20  C   UNL     1       3.631   3.905  19.577  0.00  0.00    +0.000 A 
ATOM     21  C   UNL     1       4.098   4.970  18.792  0.00  0.00    +0.000 A 
ATOM     22  C   UNL     1       3.493   6.227  18.955  0.00  0.00    +0.000 A 
BRANCH  21  23
ATOM     23  N   UNL     1       5.136   4.784  17.839  0.00  0.00    +0.000 N 
ATOM     24  C   UNL     1       4.885   4.661  16.423  0.00  0.00    +0.000 C 
ATOM     25  C   UNL     1       6.141   4.021  15.877  0.00  0.00    +0.000 C 
ATOM     26  C   UNL     1       7.234   4.537  16.792  0.00  0.00    +0.000 C 
ATOM     27  C   UNL     1       6.515   4.749  18.104  0.00  0.00    +0.000 C 
ATOM     28  O   UNL     1       7.108   4.904  19.159  0.00  0.00    +0.000 OA
ENDBRANCH  21  23
ENDBRANCH   2  17
TORSDOF 5
ENDMDL
MODEL 8
REMARK VINA RESULT:      -8.1      1.667      2.173
REMARK  Name = 
REMARK  5 active torsions:
REMARK  status: ('A' for Active; 'I' for Inactive)
REMARK    1  A    between atoms: C_2  and  C_16
REMARK    2  A    between atoms: N_3  and  C_4
REMARK    3  A    between atoms: C_8  and  O_9
REMARK    4  A    between atoms: O_9  and  C_10
REMARK    5  A    between atoms: C_20  and  N_21
REMARK                            x       y       z     vdW  Elec       q    Type
REMARK                         _______ _______ _______ _____ _____    ______ ____
ROOT
ATOM      1  O   UNL     1       2.077   8.577  18.533  0.00  0.00    +0.000 OA
ATOM      2  C   UNL     1       1.831   8.092  19.632  0.00  0.00    +0.000 C 
ATOM      3  N   UNL     1       2.121   6.800  20.054  0.00  0.00    +0.000 N 
ATOM      4  H   UNL     1       1.693   6.473  20.909  0.00  0.00    +0.000 HD
ENDROOT
BRANCH   3   5
ATOM      5  C   UNL     1       2.751   5.820  19.245  0.00  0.00    +0.000 A 
ATOM      6  C   UNL     1       2.049   5.098  18.276  0.00  0.00    +0.000 A 
ATOM      7  C   UNL     1       2.655   4.067  17.568  0.00  0.00    +0.000 A 
ATOM      8  C   UNL     1       3.988   3.753  17.802  0.00  0.00    +0.000 A 
ATOM      9  C   UNL     1       4.725   4.480  18.736  0.00  0.00    +0.000 A 
ATOM     10  C   UNL     1       4.112   5.534  19.437  0.00  0.00    +0.000 A 
BRANCH   9  11
ATOM     11  O   UNL     1       6.046   4.241  19.024  0.00  0.00    +0.000 OA
BRANCH  11  12
ATOM     12  C   UNL     1       7.016   5.007  18.295  0.00  0.00    +0.000 C 
ATOM     13  C   UNL     1       7.909   5.823  19.228  0.00  0.00    +0.000 C 
ATOM     14  C   UNL     1       8.188   7.147  18.530  0.00  0.00    +0.000 C 
ATOM     15  C   UNL     1       7.278   7.209  17.313  0.00  0.00    +0.000 C 
ATOM     16  C   UNL     1       6.299   6.053  17.445  0.00  0.00    +0.000 C 
ENDBRANCH  11  12
ENDBRANCH   9  11
ENDBRANCH   3   5
BRANCH   2  17
ATOM     17  C   UNL     1       1.078   8.954  20.576  0.00  0.00    +0.000 A 
ATOM     18  C   UNL     1       0.633   8.368  21.766  0.00  0.00    +0.000 A 
ATOM     19  C   UNL     1      -0.100   9.117  22.673  0.00  0.00    +0.000 A 
ATOM     20  C   UNL     1      -0.384  10.456  22.395  0.00  0.00    +0.000 A 
ATOM     21  C   UNL     1       0.046  11.067  21.207  0.00  0.00    +0.000 A 
ATOM     22  C   UNL     1       0.766  10.288  20.286  0.00  0.00    +0.000 A 
BRANCH  21  23
ATOM     23  N   UNL     1      -0.214  12.439  20.948  0.00  0.00    +0.000 N 
ATOM     24  C   UNL     1       0.771  13.474  21.152  0.00  0.00    +0.000 C 
ATOM     25  C   UNL     1      -0.039  14.749  21.221  0.00  0.00    +0.000 C 
ATOM     26  C   UNL     1      -1.219  14.475  20.310  0.00  0.00    +0.000 C 
ATOM     27  C   UNL     1      -1.399  12.978  20.419  0.00  0.00    +0.000 C 
ATOM     28  O   UNL     1      -2.412  12.410  20.044  0.00  0.00    +0.000 OA
ENDBRANCH  21  23
ENDBRANCH   2  17
TORSDOF 5
ENDMDL
MODEL 9
REMARK VINA RESULT:      -8.1      2.466      3.405
REMARK  Name = 
REMARK  5 active torsions:
REMARK  status: ('A' for Active; 'I' for Inactive)
REMARK    1  A    between atoms: C_2  and  C_16
REMARK    2  A    between atoms: N_3  and  C_4
REMARK    3  A    between atoms: C_8  and  O_9
REMARK    4  A    between atoms: O_9  and  C_10
REMARK    5  A    between atoms: C_20  and  N_21
REMARK                            x       y       z     vdW  Elec       q    Type
REMARK                         _______ _______ _______ _____ _____    ______ ____
ROOT
ATOM      1  O   UNL     1       2.280   8.646  17.277  0.00  0.00    +0.000 OA
ATOM      2  C   UNL     1       1.733   8.918  18.341  0.00  0.00    +0.000 C 
ATOM      3  N   UNL     1       1.717   8.137  19.490  0.00  0.00    +0.000 N 
ATOM      4  H   UNL     1       1.073   8.389  20.226  0.00  0.00    +0.000 HD
ENDROOT
BRANCH   3   5
ATOM      5  C   UNL     1       2.339   6.866  19.599  0.00  0.00    +0.000 A 
ATOM      6  C   UNL     1       1.784   5.834  20.361  0.00  0.00    +0.000 A 
ATOM      7  C   UNL     1       2.459   4.633  20.544  0.00  0.00    +0.000 A 
ATOM      8  C   UNL     1       3.697   4.433  19.948  0.00  0.00    +0.000 A 
ATOM      9  C   UNL     1       4.259   5.430  19.151  0.00  0.00    +0.000 A 
ATOM     10  C   UNL     1       3.565   6.636  18.953  0.00  0.00    +0.000 A 
BRANCH   9  11
ATOM     11  O   UNL     1       5.473   5.313  18.520  0.00  0.00    +0.000 OA
BRANCH  11  12
ATOM     12  C   UNL     1       5.480   5.482  17.095  0.00  0.00    +0.000 C 
ATOM     13  C   UNL     1       4.864   4.280  16.381  0.00  0.00    +0.000 C 
ATOM     14  C   UNL     1       5.661   4.067  15.101  0.00  0.00    +0.000 C 
ATOM     15  C   UNL     1       6.879   4.976  15.179  0.00  0.00    +0.000 C 
ATOM     16  C   UNL     1       6.924   5.519  16.598  0.00  0.00    +0.000 C 
ENDBRANCH  11  12
ENDBRANCH   9  11
ENDBRANCH   3   5
BRANCH   2  17
ATOM     17  C   UNL     1       0.947  10.175  18.372  0.00  0.00    +0.000 A 
ATOM     18  C   UNL     1       1.630  11.353  18.694  0.00  0.00    +0.000 A 
ATOM     19  C   UNL     1       0.942  12.553  18.766  0.00  0.00    +0.000 A 
ATOM     20  C   UNL     1      -0.432  12.580  18.509  0.00  0.00    +0.000 A 
ATOM     21  C   UNL     1      -1.142  11.412  18.190  0.00  0.00    +0.000 A 
ATOM     22  C   UNL     1      -0.435  10.200  18.146  0.00  0.00    +0.000 A 
BRANCH  21  23
ATOM     23  N   UNL     1      -2.531  11.453  17.893  0.00  0.00    +0.000 N 
ATOM     24  C   UNL     1      -3.526  11.849  18.860  0.00  0.00    +0.000 C 
ATOM     25  C   UNL     1      -4.822  11.303  18.304  0.00  0.00    +0.000 C 
ATOM     26  C   UNL     1      -4.620  11.356  16.803  0.00  0.00    +0.000 C 
ATOM     27  C   UNL     1      -3.126  11.183  16.650  0.00  0.00    +0.000 C 
ATOM     28  O   UNL     1      -2.605  10.903  15.582  0.00  0.00    +0.000 OA
ENDBRANCH  21  23
ENDBRANCH   2  17
TORSDOF 5
ENDMDL
