MODEL 1
REMARK VINA RESULT:      -9.3      0.000      0.000
REMARK  Name = 
REMARK  6 active torsions:
REMARK  status: ('A' for Active; 'I' for Inactive)
REMARK    1  A    between atoms: C_1  and  N_2
REMARK    2  A    between atoms: N_2  and  C_3
REMARK    3  A    between atoms: C_3  and  C_4
REMARK    4  A    between atoms: N_8  and  C_9
REMARK    5  A    between atoms: C_12  and  C_14
REMARK    6  A    between atoms: C_16  and  C_17
REMARK                            x       y       z     vdW  Elec       q    Type
REMARK                         _______ _______ _______ _____ _____    ______ ____
ROOT
ATOM      1  C   UNL     1       7.480   6.851  17.605  0.00  0.00    +0.000 A 
ATOM      2  C   UNL     1       7.713   8.244  17.441  0.00  0.00    +0.000 A 
ATOM      3  C   UNL     1       8.489   8.637  18.512  0.00  0.00    +0.000 A 
ATOM      4  N   UNL     1       8.618   7.512  19.272  0.00  0.00    +0.000 N 
ATOM      5  N   UNL     1       8.063   6.420  18.741  0.00  0.00    +0.000 NA
ATOM      6  H   UNL     1       9.091   7.420  20.166  0.00  0.00    +0.000 HD
ENDROOT
BRANCH   3   7
ATOM      7  C   UNL     1       9.080   9.917  18.863  0.00  0.00    +0.000 A 
ATOM      8  C   UNL     1       9.233  10.267  20.205  0.00  0.00    +0.000 A 
ATOM      9  C   UNL     1       9.771  11.504  20.554  0.00  0.00    +0.000 A 
ATOM     10  C   UNL     1      10.159  12.420  19.568  0.00  0.00    +0.000 A 
ATOM     11  C   UNL     1      10.686  13.670  19.904  0.00  0.00    +0.000 A 
ATOM     12  C   UNL     1      11.058  14.579  18.912  0.00  0.00    +0.000 A 
ATOM     13  C   UNL     1      10.909  14.243  17.569  0.00  0.00    +0.000 A 
ATOM     14  C   UNL     1      10.389  12.997  17.215  0.00  0.00    +0.000 A 
ATOM     15  C   UNL     1      10.010  12.075  18.203  0.00  0.00    +0.000 A 
ATOM     16  C   UNL     1       9.472  10.824  17.867  0.00  0.00    +0.000 A 
ENDBRANCH   3   7
BRANCH   1  19
ATOM     17  C   UNL     1       5.022   4.423  16.043  0.00  0.00    +0.000 C 
ATOM     18  N   UNL     1       5.668   5.216  17.070  0.00  0.00    +0.000 N 
ATOM     19  C   UNL     1       6.760   5.993  16.639  0.00  0.00    +0.000 C 
ATOM     20  O   UNL     1       7.153   5.939  15.471  0.00  0.00    +0.000 OA
BRANCH  18  21
ATOM     21  C   UNL     1       4.875   5.529  18.275  0.00  0.00    +0.000 C 
BRANCH  21  22
ATOM     22  C   UNL     1       4.537   4.282  19.036  0.00  0.00    +0.000 A 
ATOM     23  N   UNL     1       5.412   3.338  19.360  0.00  0.00    +0.000 NA
ATOM     24  C   UNL     1       4.714   2.384  20.042  0.00  0.00    +0.000 A 
ATOM     25  C   UNL     1       3.397   2.738  20.162  0.00  0.00    +0.000 A 
ATOM     26  N   UNL     1       3.287   3.942  19.523  0.00  0.00    +0.000 N 
BRANCH  26  27
ATOM     27  C   UNL     1       2.053   4.712  19.443  0.00  0.00    +0.000 C 
ATOM     28  C   UNL     1       1.678   5.709  20.537  0.00  0.00    +0.000 C 
ATOM     29  C   UNL     1       0.884   4.461  20.390  0.00  0.00    +0.000 C 
ENDBRANCH  26  27
ENDBRANCH  21  22
ENDBRANCH  18  21
ENDBRANCH   1  19
TORSDOF 5
ENDMDL
MODEL 2
REMARK VINA RESULT:      -9.0      0.785      1.424
REMARK  Name = 
REMARK  6 active torsions:
REMARK  status: ('A' for Active; 'I' for Inactive)
REMARK    1  A    between atoms: C_1  and  N_2
REMARK    2  A    between atoms: N_2  and  C_3
REMARK    3  A    between atoms: C_3  and  C_4
REMARK    4  A    between atoms: N_8  and  C_9
REMARK    5  A    between atoms: C_12  and  C_14
REMARK    6  A    between atoms: C_16  and  C_17
REMARK                            x       y       z     vdW  Elec       q    Type
REMARK                         _______ _______ _______ _____ _____    ______ ____
ROOT
ATOM      1  C   UNL     1       7.486   6.454  17.489  0.00  0.00    +0.000 A 
ATOM      2  C   UNL     1       7.509   7.836  17.151  0.00  0.00    +0.000 A 
ATOM      3  C   UNL     1       8.199   8.471  18.163  0.00  0.00    +0.000 A 
ATOM      4  N   UNL     1       8.485   7.482  19.057  0.00  0.00    +0.000 N 
ATOM      5  N   UNL     1       8.110   6.261  18.668  0.00  0.00    +0.000 NA
ATOM      6  H   UNL     1       8.951   7.575  19.954  0.00  0.00    +0.000 HD
ENDROOT
BRANCH   3   7
ATOM      7  C   UNL     1       8.583   9.860  18.349  0.00  0.00    +0.000 A 
ATOM      8  C   UNL     1       8.115  10.835  17.467  0.00  0.00    +0.000 A 
ATOM      9  C   UNL     1       8.500  12.166  17.617  0.00  0.00    +0.000 A 
ATOM     10  C   UNL     1       9.368  12.547  18.648  0.00  0.00    +0.000 A 
ATOM     11  C   UNL     1       9.774  13.876  18.802  0.00  0.00    +0.000 A 
ATOM     12  C   UNL     1      10.650  14.242  19.826  0.00  0.00    +0.000 A 
ATOM     13  C   UNL     1      11.125  13.279  20.712  0.00  0.00    +0.000 A 
ATOM     14  C   UNL     1      10.726  11.948  20.577  0.00  0.00    +0.000 A 
ATOM     15  C   UNL     1       9.849  11.567  19.550  0.00  0.00    +0.000 A 
ATOM     16  C   UNL     1       9.447  10.233  19.389  0.00  0.00    +0.000 A 
ENDBRANCH   3   7
BRANCH   1  19
ATOM     17  C   UNL     1       5.338   3.614  16.188  0.00  0.00    +0.000 C 
ATOM     18  N   UNL     1       5.828   4.627  17.101  0.00  0.00    +0.000 N 
ATOM     19  C   UNL     1       6.920   5.384  16.639  0.00  0.00    +0.000 C 
ATOM     20  O   UNL     1       7.442   5.141  15.548  0.00  0.00    +0.000 OA
BRANCH  18  21
ATOM     21  C   UNL     1       4.892   5.103  18.140  0.00  0.00    +0.000 C 
BRANCH  21  22
ATOM     22  C   UNL     1       4.495   3.986  19.059  0.00  0.00    +0.000 A 
ATOM     23  N   UNL     1       5.311   3.023  19.468  0.00  0.00    +0.000 NA
ATOM     24  C   UNL     1       4.573   2.215  20.285  0.00  0.00    +0.000 A 
ATOM     25  C   UNL     1       3.292   2.683  20.403  0.00  0.00    +0.000 A 
ATOM     26  N   UNL     1       3.245   3.807  19.624  0.00  0.00    +0.000 N 
BRANCH  26  27
ATOM     27  C   UNL     1       2.069   4.656  19.490  0.00  0.00    +0.000 C 
ATOM     28  C   UNL     1       1.686   5.645  20.589  0.00  0.00    +0.000 C 
ATOM     29  C   UNL     1       0.827   4.455  20.353  0.00  0.00    +0.000 C 
ENDBRANCH  26  27
ENDBRANCH  21  22
ENDBRANCH  18  21
ENDBRANCH   1  19
TORSDOF 5
ENDMDL
MODEL 3
REMARK VINA RESULT:      -8.9      0.867      1.672
REMARK  Name = 
REMARK  6 active torsions:
REMARK  status: ('A' for Active; 'I' for Inactive)
REMARK    1  A    between atoms: C_1  and  N_2
REMARK    2  A    between atoms: N_2  and  C_3
REMARK    3  A    between atoms: C_3  and  C_4
REMARK    4  A    between atoms: N_8  and  C_9
REMARK    5  A    between atoms: C_12  and  C_14
REMARK    6  A    between atoms: C_16  and  C_17
REMARK                            x       y       z     vdW  Elec       q    Type
REMARK                         _______ _______ _______ _____ _____    ______ ____
ROOT
ATOM      1  C   UNL     1       7.277   6.831  17.652  0.00  0.00    +0.000 A 
ATOM      2  C   UNL     1       7.498   8.229  17.510  0.00  0.00    +0.000 A 
ATOM      3  C   UNL     1       8.411   8.578  18.484  0.00  0.00    +0.000 A 
ATOM      4  N   UNL     1       8.631   7.425  19.178  0.00  0.00    +0.000 N 
ATOM      5  N   UNL     1       8.002   6.355  18.684  0.00  0.00    +0.000 NA
ATOM      6  H   UNL     1       9.216   7.298  19.997  0.00  0.00    +0.000 HD
ENDROOT
BRANCH   3   7
ATOM      7  C   UNL     1       9.053   9.843  18.801  0.00  0.00    +0.000 A 
ATOM      8  C   UNL     1       9.181  10.242  20.132  0.00  0.00    +0.000 A 
ATOM      9  C   UNL     1       9.768  11.466  20.448  0.00  0.00    +0.000 A 
ATOM     10  C   UNL     1      10.231  12.319  19.439  0.00  0.00    +0.000 A 
ATOM     11  C   UNL     1      10.808  13.556  19.741  0.00  0.00    +0.000 A 
ATOM     12  C   UNL     1      11.254  14.404  18.725  0.00  0.00    +0.000 A 
ATOM     13  C   UNL     1      11.130  14.018  17.393  0.00  0.00    +0.000 A 
ATOM     14  C   UNL     1      10.561  12.784  17.073  0.00  0.00    +0.000 A 
ATOM     15  C   UNL     1      10.107  11.925  18.085  0.00  0.00    +0.000 A 
ATOM     16  C   UNL     1       9.519  10.687  17.783  0.00  0.00    +0.000 A 
ENDBRANCH   3   7
BRANCH   1  19
ATOM     17  C   UNL     1       4.993   4.125  16.299  0.00  0.00    +0.000 C 
ATOM     18  N   UNL     1       5.814   4.847  17.250  0.00  0.00    +0.000 N 
ATOM     19  C   UNL     1       6.430   6.013  16.758  0.00  0.00    +0.000 C 
ATOM     20  O   UNL     1       6.306   6.343  15.576  0.00  0.00    +0.000 OA
BRANCH  18  21
ATOM     21  C   UNL     1       5.543   4.615  18.683  0.00  0.00    +0.000 C 
BRANCH  21  22
ATOM     22  C   UNL     1       4.161   5.069  19.049  0.00  0.00    +0.000 A 
ATOM     23  N   UNL     1       3.751   6.331  19.019  0.00  0.00    +0.000 NA
ATOM     24  C   UNL     1       2.445   6.321  19.416  0.00  0.00    +0.000 A 
ATOM     25  C   UNL     1       2.027   5.044  19.680  0.00  0.00    +0.000 A 
ATOM     26  N   UNL     1       3.118   4.251  19.447  0.00  0.00    +0.000 N 
BRANCH  26  27
ATOM     27  C   UNL     1       3.110   2.800  19.565  0.00  0.00    +0.000 C 
ATOM     28  C   UNL     1       2.902   1.914  18.339  0.00  0.00    +0.000 C 
ATOM     29  C   UNL     1       1.836   1.983  19.373  0.00  0.00    +0.000 C 
ENDBRANCH  26  27
ENDBRANCH  21  22
ENDBRANCH  18  21
ENDBRANCH   1  19
TORSDOF 5
ENDMDL
MODEL 4
REMARK VINA RESULT:      -8.7      1.184      2.090
REMARK  Name = 
REMARK  6 active torsions:
REMARK  status: ('A' for Active; 'I' for Inactive)
REMARK    1  A    between atoms: C_1  and  N_2
REMARK    2  A    between atoms: N_2  and  C_3
REMARK    3  A    between atoms: C_3  and  C_4
REMARK    4  A    between atoms: N_8  and  C_9
REMARK    5  A    between atoms: C_12  and  C_14
REMARK    6  A    between atoms: C_16  and  C_17
REMARK                            x       y       z     vdW  Elec       q    Type
REMARK                         _______ _______ _______ _____ _____    ______ ____
ROOT
ATOM      1  C   UNL     1       7.156   6.800  17.662  0.00  0.00    +0.000 A 
ATOM      2  C   UNL     1       7.252   8.179  17.327  0.00  0.00    +0.000 A 
ATOM      3  C   UNL     1       8.208   8.716  18.164  0.00  0.00    +0.000 A 
ATOM      4  N   UNL     1       8.573   7.682  18.975  0.00  0.00    +0.000 N 
ATOM      5  N   UNL     1       7.996   6.516  18.677  0.00  0.00    +0.000 NA
ATOM      6  H   UNL     1       9.230   7.706  19.749  0.00  0.00    +0.000 HD
ENDROOT
BRANCH   3   7
ATOM      7  C   UNL     1       8.769  10.053  18.263  0.00  0.00    +0.000 A 
ATOM      8  C   UNL     1       8.131  11.122  17.632  0.00  0.00    +0.000 A 
ATOM      9  C   UNL     1       8.675  12.404  17.694  0.00  0.00    +0.000 A 
ATOM     10  C   UNL     1       9.873  12.640  18.381  0.00  0.00    +0.000 A 
ATOM     11  C   UNL     1      10.437  13.918  18.439  0.00  0.00    +0.000 A 
ATOM     12  C   UNL     1      11.638  14.139  19.116  0.00  0.00    +0.000 A 
ATOM     13  C   UNL     1      12.285  13.080  19.748  0.00  0.00    +0.000 A 
ATOM     14  C   UNL     1      11.733  11.799  19.705  0.00  0.00    +0.000 A 
ATOM     15  C   UNL     1      10.528  11.564  19.026  0.00  0.00    +0.000 A 
ATOM     16  C   UNL     1       9.965  10.280  18.959  0.00  0.00    +0.000 A 
ENDBRANCH   3   7
BRANCH   1  19
ATOM     17  C   UNL     1       4.866   3.877  16.897  0.00  0.00    +0.000 C 
ATOM     18  N   UNL     1       5.686   4.781  17.678  0.00  0.00    +0.000 N 
ATOM     19  C   UNL     1       6.310   5.815  16.955  0.00  0.00    +0.000 C 
ATOM     20  O   UNL     1       6.194   5.888  15.729  0.00  0.00    +0.000 OA
BRANCH  18  21
ATOM     21  C   UNL     1       5.406   4.859  19.126  0.00  0.00    +0.000 C 
BRANCH  21  22
ATOM     22  C   UNL     1       4.058   5.463  19.382  0.00  0.00    +0.000 A 
ATOM     23  N   UNL     1       3.694   6.681  18.997  0.00  0.00    +0.000 NA
ATOM     24  C   UNL     1       2.405   6.848  19.415  0.00  0.00    +0.000 A 
ATOM     25  C   UNL     1       1.951   5.723  20.051  0.00  0.00    +0.000 A 
ATOM     26  N   UNL     1       3.001   4.846  20.028  0.00  0.00    +0.000 N 
BRANCH  26  27
ATOM     27  C   UNL     1       2.944   3.493  20.564  0.00  0.00    +0.000 C 
ATOM     28  C   UNL     1       2.366   2.346  19.738  0.00  0.00    +0.000 C 
ATOM     29  C   UNL     1       1.621   2.828  20.931  0.00  0.00    +0.000 C 
ENDBRANCH  26  27
ENDBRANCH  21  22
ENDBRANCH  18  21
ENDBRANCH   1  19
TORSDOF 5
ENDMDL
MODEL 5
REMARK VINA RESULT:      -8.7      0.918      1.492
REMARK  Name = 
REMARK  6 active torsions:
REMARK  status: ('A' for Active; 'I' for Inactive)
REMARK    1  A    between atoms: C_1  and  N_2
REMARK    2  A    between atoms: N_2  and  C_3
REMARK    3  A    between atoms: C_3  and  C_4
REMARK    4  A    between atoms: N_8  and  C_9
REMARK    5  A    between atoms: C_12  and  C_14
REMARK    6  A    between atoms: C_16  and  C_17
REMARK                            x       y       z     vdW  Elec       q    Type
REMARK                         _______ _______ _______ _____ _____    ______ ____
ROOT
ATOM      1  C   UNL     1       7.502   6.967  17.598  0.00  0.00    +0.000 A 
ATOM      2  C   UNL     1       7.617   8.332  17.213  0.00  0.00    +0.000 A 
ATOM      3  C   UNL     1       8.396   8.942  18.174  0.00  0.00    +0.000 A 
ATOM      4  N   UNL     1       8.642   7.961  19.089  0.00  0.00    +0.000 N 
ATOM      5  N   UNL     1       8.158   6.762  18.757  0.00  0.00    +0.000 NA
ATOM      6  H   UNL     1       9.152   8.045  19.963  0.00  0.00    +0.000 HD
ENDROOT
BRANCH   3   7
ATOM      7  C   UNL     1       8.894  10.301  18.298  0.00  0.00    +0.000 A 
ATOM      8  C   UNL     1       8.174  11.359  17.741  0.00  0.00    +0.000 A 
ATOM      9  C   UNL     1       8.655  12.663  17.827  0.00  0.00    +0.000 A 
ATOM     10  C   UNL     1       9.872  12.936  18.464  0.00  0.00    +0.000 A 
ATOM     11  C   UNL     1      10.374  14.238  18.545  0.00  0.00    +0.000 A 
ATOM     12  C   UNL     1      11.594  14.496  19.173  0.00  0.00    +0.000 A 
ATOM     13  C   UNL     1      12.323  13.450  19.732  0.00  0.00    +0.000 A 
ATOM     14  C   UNL     1      11.835  12.144  19.665  0.00  0.00    +0.000 A 
ATOM     15  C   UNL     1      10.611  11.872  19.035  0.00  0.00    +0.000 A 
ATOM     16  C   UNL     1      10.110  10.564  18.945  0.00  0.00    +0.000 A 
ENDBRANCH   3   7
BRANCH   1  19
ATOM     17  C   UNL     1       5.273   4.078  16.571  0.00  0.00    +0.000 C 
ATOM     18  N   UNL     1       5.898   5.059  17.434  0.00  0.00    +0.000 N 
ATOM     19  C   UNL     1       6.820   5.919  16.809  0.00  0.00    +0.000 C 
ATOM     20  O   UNL     1       7.100   5.785  15.615  0.00  0.00    +0.000 OA
BRANCH  18  21
ATOM     21  C   UNL     1       5.191   5.401  18.685  0.00  0.00    +0.000 C 
BRANCH  21  22
ATOM     22  C   UNL     1       4.577   4.181  19.306  0.00  0.00    +0.000 A 
ATOM     23  N   UNL     1       5.267   3.157  19.791  0.00  0.00    +0.000 NA
ATOM     24  C   UNL     1       4.348   2.263  20.263  0.00  0.00    +0.000 A 
ATOM     25  C   UNL     1       3.075   2.737  20.087  0.00  0.00    +0.000 A 
ATOM     26  N   UNL     1       3.223   3.954  19.480  0.00  0.00    +0.000 N 
BRANCH  26  27
ATOM     27  C   UNL     1       2.114   4.835  19.143  0.00  0.00    +0.000 C 
ATOM     28  C   UNL     1       1.398   4.717  17.800  0.00  0.00    +0.000 C 
ATOM     29  C   UNL     1       2.238   5.913  18.072  0.00  0.00    +0.000 C 
ENDBRANCH  26  27
ENDBRANCH  21  22
ENDBRANCH  18  21
ENDBRANCH   1  19
TORSDOF 5
ENDMDL
MODEL 6
REMARK VINA RESULT:      -8.6      0.927      1.103
REMARK  Name = 
REMARK  6 active torsions:
REMARK  status: ('A' for Active; 'I' for Inactive)
REMARK    1  A    between atoms: C_1  and  N_2
REMARK    2  A    between atoms: N_2  and  C_3
REMARK    3  A    between atoms: C_3  and  C_4
REMARK    4  A    between atoms: N_8  and  C_9
REMARK    5  A    between atoms: C_12  and  C_14
REMARK    6  A    between atoms: C_16  and  C_17
REMARK                            x       y       z     vdW  Elec       q    Type
REMARK                         _______ _______ _______ _____ _____    ______ ____
ROOT
ATOM      1  C   UNL     1       7.401   6.782  17.512  0.00  0.00    +0.000 A 
ATOM      2  C   UNL     1       7.536   8.183  17.307  0.00  0.00    +0.000 A 
ATOM      3  C   UNL     1       8.309   8.655  18.348  0.00  0.00    +0.000 A 
ATOM      4  N   UNL     1       8.533   7.562  19.131  0.00  0.00    +0.000 N 
ATOM      5  N   UNL     1       8.040   6.421  18.642  0.00  0.00    +0.000 NA
ATOM      6  H   UNL     1       9.032   7.526  20.015  0.00  0.00    +0.000 HD
ENDROOT
BRANCH   3   7
ATOM      7  C   UNL     1       8.819   9.981  18.651  0.00  0.00    +0.000 A 
ATOM      8  C   UNL     1       9.722  10.155  19.702  0.00  0.00    +0.000 A 
ATOM      9  C   UNL     1      10.196  11.425  20.021  0.00  0.00    +0.000 A 
ATOM     10  C   UNL     1       9.771  12.549  19.303  0.00  0.00    +0.000 A 
ATOM     11  C   UNL     1      10.227  13.832  19.623  0.00  0.00    +0.000 A 
ATOM     12  C   UNL     1       9.787  14.946  18.906  0.00  0.00    +0.000 A 
ATOM     13  C   UNL     1       8.886  14.787  17.857  0.00  0.00    +0.000 A 
ATOM     14  C   UNL     1       8.423  13.514  17.521  0.00  0.00    +0.000 A 
ATOM     15  C   UNL     1       8.857  12.386  18.234  0.00  0.00    +0.000 A 
ATOM     16  C   UNL     1       8.393  11.100  17.920  0.00  0.00    +0.000 A 
ENDBRANCH   3   7
BRANCH   1  19
ATOM     17  C   UNL     1       5.038   4.197  16.060  0.00  0.00    +0.000 C 
ATOM     18  N   UNL     1       5.649   5.063  17.049  0.00  0.00    +0.000 N 
ATOM     19  C   UNL     1       6.718   5.853  16.586  0.00  0.00    +0.000 C 
ATOM     20  O   UNL     1       7.123   5.753  15.425  0.00  0.00    +0.000 OA
BRANCH  18  21
ATOM     21  C   UNL     1       4.836   5.411  18.231  0.00  0.00    +0.000 C 
BRANCH  21  22
ATOM     22  C   UNL     1       4.502   4.188  19.033  0.00  0.00    +0.000 A 
ATOM     23  N   UNL     1       5.400   3.389  19.595  0.00  0.00    +0.000 NA
ATOM     24  C   UNL     1       4.697   2.404  20.228  0.00  0.00    +0.000 A 
ATOM     25  C   UNL     1       3.349   2.596  20.076  0.00  0.00    +0.000 A 
ATOM     26  N   UNL     1       3.229   3.728  19.318  0.00  0.00    +0.000 N 
BRANCH  26  27
ATOM     27  C   UNL     1       1.954   4.326  18.947  0.00  0.00    +0.000 C 
ATOM     28  C   UNL     1       0.756   3.455  18.578  0.00  0.00    +0.000 C 
ATOM     29  C   UNL     1       1.418   4.262  17.520  0.00  0.00    +0.000 C 
ENDBRANCH  26  27
ENDBRANCH  21  22
ENDBRANCH  18  21
ENDBRANCH   1  19
TORSDOF 5
ENDMDL
MODEL 7
REMARK VINA RESULT:      -8.5      1.110      2.358
REMARK  Name = 
REMARK  6 active torsions:
REMARK  status: ('A' for Active; 'I' for Inactive)
REMARK    1  A    between atoms: C_1  and  N_2
REMARK    2  A    between atoms: N_2  and  C_3
REMARK    3  A    between atoms: C_3  and  C_4
REMARK    4  A    between atoms: N_8  and  C_9
REMARK    5  A    between atoms: C_12  and  C_14
REMARK    6  A    between atoms: C_16  and  C_17
REMARK                            x       y       z     vdW  Elec       q    Type
REMARK                         _______ _______ _______ _____ _____    ______ ____
ROOT
ATOM      1  C   UNL     1       7.628   6.766  17.626  0.00  0.00    +0.000 A 
ATOM      2  C   UNL     1       7.775   8.156  17.363  0.00  0.00    +0.000 A 
ATOM      3  C   UNL     1       8.478   8.681  18.429  0.00  0.00    +0.000 A 
ATOM      4  N   UNL     1       8.651   7.627  19.277  0.00  0.00    +0.000 N 
ATOM      5  N   UNL     1       8.192   6.462  18.812  0.00  0.00    +0.000 NA
ATOM      6  H   UNL     1       9.091   7.636  20.192  0.00  0.00    +0.000 HD
ENDROOT
BRANCH   3   7
ATOM      7  C   UNL     1       8.966  10.021  18.701  0.00  0.00    +0.000 A 
ATOM      8  C   UNL     1       9.493  10.793  17.664  0.00  0.00    +0.000 A 
ATOM      9  C   UNL     1       9.992  12.069  17.917  0.00  0.00    +0.000 A 
ATOM     10  C   UNL     1       9.982  12.596  19.214  0.00  0.00    +0.000 A 
ATOM     11  C   UNL     1      10.493  13.869  19.485  0.00  0.00    +0.000 A 
ATOM     12  C   UNL     1      10.488  14.379  20.785  0.00  0.00    +0.000 A 
ATOM     13  C   UNL     1       9.967  13.620  21.829  0.00  0.00    +0.000 A 
ATOM     14  C   UNL     1       9.448  12.349  21.576  0.00  0.00    +0.000 A 
ATOM     15  C   UNL     1       9.449  11.824  20.275  0.00  0.00    +0.000 A 
ATOM     16  C   UNL     1       8.945  10.543  20.003  0.00  0.00    +0.000 A 
ENDBRANCH   3   7
BRANCH   1  19
ATOM     17  C   UNL     1       5.701   3.813  16.234  0.00  0.00    +0.000 C 
ATOM     18  N   UNL     1       6.282   4.701  17.220  0.00  0.00    +0.000 N 
ATOM     19  C   UNL     1       7.008   5.791  16.704  0.00  0.00    +0.000 C 
ATOM     20  O   UNL     1       7.171   5.923  15.488  0.00  0.00    +0.000 OA
BRANCH  18  21
ATOM     21  C   UNL     1       5.677   4.696  18.568  0.00  0.00    +0.000 C 
BRANCH  21  22
ATOM     22  C   UNL     1       4.243   5.130  18.515  0.00  0.00    +0.000 A 
ATOM     23  N   UNL     1       3.837   6.346  18.172  0.00  0.00    +0.000 NA
ATOM     24  C   UNL     1       2.474   6.333  18.247  0.00  0.00    +0.000 A 
ATOM     25  C   UNL     1       2.020   5.097  18.623  0.00  0.00    +0.000 A 
ATOM     26  N   UNL     1       3.144   4.335  18.792  0.00  0.00    +0.000 N 
BRANCH  26  27
ATOM     27  C   UNL     1       3.125   2.925  19.154  0.00  0.00    +0.000 C 
ATOM     28  C   UNL     1       3.081   1.840  18.081  0.00  0.00    +0.000 C 
ATOM     29  C   UNL     1       1.889   2.056  18.943  0.00  0.00    +0.000 C 
ENDBRANCH  26  27
ENDBRANCH  21  22
ENDBRANCH  18  21
ENDBRANCH   1  19
TORSDOF 5
ENDMDL
MODEL 8
REMARK VINA RESULT:      -8.5      0.915      1.196
REMARK  Name = 
REMARK  6 active torsions:
REMARK  status: ('A' for Active; 'I' for Inactive)
REMARK    1  A    between atoms: C_1  and  N_2
REMARK    2  A    between atoms: N_2  and  C_3
REMARK    3  A    between atoms: C_3  and  C_4
REMARK    4  A    between atoms: N_8  and  C_9
REMARK    5  A    between atoms: C_12  and  C_14
REMARK    6  A    between atoms: C_16  and  C_17
REMARK                            x       y       z     vdW  Elec       q    Type
REMARK                         _______ _______ _______ _____ _____    ______ ____
ROOT
ATOM      1  C   UNL     1       7.178   7.057  17.622  0.00  0.00    +0.000 A 
ATOM      2  C   UNL     1       7.420   8.456  17.528  0.00  0.00    +0.000 A 
ATOM      3  C   UNL     1       8.404   8.742  18.452  0.00  0.00    +0.000 A 
ATOM      4  N   UNL     1       8.643   7.554  19.077  0.00  0.00    +0.000 N 
ATOM      5  N   UNL     1       7.959   6.520  18.580  0.00  0.00    +0.000 NA
ATOM      6  H   UNL     1       9.278   7.378  19.850  0.00  0.00    +0.000 HD
ENDROOT
BRANCH   3   7
ATOM      7  C   UNL     1       9.093   9.977  18.782  0.00  0.00    +0.000 A 
ATOM      8  C   UNL     1       9.265  10.343  20.118  0.00  0.00    +0.000 A 
ATOM      9  C   UNL     1       9.898  11.539  20.446  0.00  0.00    +0.000 A 
ATOM     10  C   UNL     1      10.366  12.400  19.445  0.00  0.00    +0.000 A 
ATOM     11  C   UNL     1      10.990  13.610  19.760  0.00  0.00    +0.000 A 
ATOM     12  C   UNL     1      11.441  14.465  18.753  0.00  0.00    +0.000 A 
ATOM     13  C   UNL     1      11.275  14.114  17.416  0.00  0.00    +0.000 A 
ATOM     14  C   UNL     1      10.658  12.906  17.083  0.00  0.00    +0.000 A 
ATOM     15  C   UNL     1      10.199  12.040  18.086  0.00  0.00    +0.000 A 
ATOM     16  C   UNL     1       9.564  10.829  17.771  0.00  0.00    +0.000 A 
ENDBRANCH   3   7
BRANCH   1  19
ATOM     17  C   UNL     1       4.981   4.326  16.177  0.00  0.00    +0.000 C 
ATOM     18  N   UNL     1       5.903   4.977  17.086  0.00  0.00    +0.000 N 
ATOM     19  C   UNL     1       6.255   6.298  16.751  0.00  0.00    +0.000 C 
ATOM     20  O   UNL     1       5.836   6.821  15.715  0.00  0.00    +0.000 OA
BRANCH  18  21
ATOM     21  C   UNL     1       5.983   4.440  18.459  0.00  0.00    +0.000 C 
BRANCH  21  22
ATOM     22  C   UNL     1       4.633   4.005  18.947  0.00  0.00    +0.000 A 
ATOM     23  N   UNL     1       4.269   2.742  19.123  0.00  0.00    +0.000 NA
ATOM     24  C   UNL     1       2.980   2.772  19.574  0.00  0.00    +0.000 A 
ATOM     25  C   UNL     1       2.539   4.063  19.696  0.00  0.00    +0.000 A 
ATOM     26  N   UNL     1       3.590   4.843  19.298  0.00  0.00    +0.000 N 
BRANCH  26  27
ATOM     27  C   UNL     1       3.572   6.299  19.310  0.00  0.00    +0.000 C 
ATOM     28  C   UNL     1       2.260   7.067  19.463  0.00  0.00    +0.000 C 
ATOM     29  C   UNL     1       2.976   7.107  18.161  0.00  0.00    +0.000 C 
ENDBRANCH  26  27
ENDBRANCH  21  22
ENDBRANCH  18  21
ENDBRANCH   1  19
TORSDOF 5
ENDMDL
MODEL 9
REMARK VINA RESULT:      -8.4      1.844      2.505
REMARK  Name = 
REMARK  6 active torsions:
REMARK  status: ('A' for Active; 'I' for Inactive)
REMARK    1  A    between atoms: C_1  and  N_2
REMARK    2  A    between atoms: N_2  and  C_3
REMARK    3  A    between atoms: C_3  and  C_4
REMARK    4  A    between atoms: N_8  and  C_9
REMARK    5  A    between atoms: C_12  and  C_14
REMARK    6  A    between atoms: C_16  and  C_17
REMARK                            x       y       z     vdW  Elec       q    Type
REMARK                         _______ _______ _______ _____ _____    ______ ____
ROOT
ATOM      1  C   UNL     1       7.523   6.478  17.625  0.00  0.00    +0.000 A 
ATOM      2  C   UNL     1       7.569   7.838  17.208  0.00  0.00    +0.000 A 
ATOM      3  C   UNL     1       8.258   8.521  18.188  0.00  0.00    +0.000 A 
ATOM      4  N   UNL     1       8.522   7.581  19.141  0.00  0.00    +0.000 N 
ATOM      5  N   UNL     1       8.134   6.345  18.819  0.00  0.00    +0.000 NA
ATOM      6  H   UNL     1       8.981   7.720  20.036  0.00  0.00    +0.000 HD
ENDROOT
BRANCH   3   7
ATOM      7  C   UNL     1       8.660   9.913  18.298  0.00  0.00    +0.000 A 
ATOM      8  C   UNL     1       8.041  10.880  17.505  0.00  0.00    +0.000 A 
ATOM      9  C   UNL     1       8.438  12.214  17.579  0.00  0.00    +0.000 A 
ATOM     10  C   UNL     1       9.468  12.606  18.443  0.00  0.00    +0.000 A 
ATOM     11  C   UNL     1       9.887  13.938  18.517  0.00  0.00    +0.000 A 
ATOM     12  C   UNL     1      10.923  14.315  19.374  0.00  0.00    +0.000 A 
ATOM     13  C   UNL     1      11.550  13.360  20.169  0.00  0.00    +0.000 A 
ATOM     14  C   UNL     1      11.142  12.026  20.112  0.00  0.00    +0.000 A 
ATOM     15  C   UNL     1      10.103  11.634  19.254  0.00  0.00    +0.000 A 
ATOM     16  C   UNL     1       9.688  10.297  19.172  0.00  0.00    +0.000 A 
ENDBRANCH   3   7
BRANCH   1  19
ATOM     17  C   UNL     1       5.098   4.170  15.847  0.00  0.00    +0.000 C 
ATOM     18  N   UNL     1       5.557   5.284  16.652  0.00  0.00    +0.000 N 
ATOM     19  C   UNL     1       6.950   5.369  16.833  0.00  0.00    +0.000 C 
ATOM     20  O   UNL     1       7.702   4.505  16.373  0.00  0.00    +0.000 OA
BRANCH  18  21
ATOM     21  C   UNL     1       4.652   6.445  16.770  0.00  0.00    +0.000 C 
BRANCH  21  22
ATOM     22  C   UNL     1       3.824   6.356  18.018  0.00  0.00    +0.000 A 
ATOM     23  N   UNL     1       3.923   5.387  18.918  0.00  0.00    +0.000 NA
ATOM     24  C   UNL     1       3.009   5.671  19.891  0.00  0.00    +0.000 A 
ATOM     25  C   UNL     1       2.344   6.834  19.609  0.00  0.00    +0.000 A 
ATOM     26  N   UNL     1       2.863   7.267  18.419  0.00  0.00    +0.000 N 
BRANCH  26  27
ATOM     27  C   UNL     1       2.469   8.505  17.762  0.00  0.00    +0.000 C 
ATOM     28  C   UNL     1       1.901   9.673  18.565  0.00  0.00    +0.000 C 
ATOM     29  C   UNL     1       1.007   8.924  17.643  0.00  0.00    +0.000 C 
ENDBRANCH  26  27
ENDBRANCH  21  22
ENDBRANCH  18  21
ENDBRANCH   1  19
TORSDOF 5
ENDMDL
