MODEL 1
REMARK VINA RESULT:      -8.2      0.000      0.000
REMARK  Name = 
REMARK  5 active torsions:
REMARK  status: ('A' for Active; 'I' for Inactive)
REMARK    1  A    between atoms: C_1  and  N_2
REMARK    2  A    between atoms: C_4  and  C_5
REMARK    3  A    between atoms: C_5  and  C_6
REMARK    4  A    between atoms: C_12  and  C_13
REMARK    5  A    between atoms: C_13  and  C_14
REMARK                            x       y       z     vdW  Elec       q    Type
REMARK                         _______ _______ _______ _____ _____    ______ ____
ROOT
ATOM      1  C   UNL     1       1.606   8.158  19.573  0.00  0.00    +0.000 C 
ATOM      2  O   UNL     1       1.100   8.127  18.448  0.00  0.00    +0.000 OA
ATOM      3  N   UNL     1       1.089   8.955  20.570  0.00  0.00    +0.000 N 
ATOM      4  C   UNL     1       1.509   9.010  21.962  0.00  0.00    +0.000 C 
ATOM      5  C   UNL     1       0.211   9.184  22.727  0.00  0.00    +0.000 C 
ATOM      6  C   UNL     1      -0.615  10.067  21.806  0.00  0.00    +0.000 C 
ATOM      7  C   UNL     1      -0.195   9.642  20.386  0.00  0.00    +0.000 C 
ENDROOT
BRANCH   1   8
ATOM      8  C   UNL     1       2.774   7.253  19.883  0.00  0.00    +0.000 C 
BRANCH   8  12
ATOM      9  C   UNL     1       0.976   2.829  19.789  0.00  0.00    +0.000 C 
ATOM     10  N   UNL     1       1.869   3.776  19.150  0.00  0.00    +0.000 N 
ATOM     11  N   UNL     1       1.939   5.020  19.709  0.00  0.00    +0.000 NA
ATOM     12  C   UNL     1       2.769   5.894  19.225  0.00  0.00    +0.000 A 
ATOM     13  C   UNL     1       3.656   5.613  18.075  0.00  0.00    +0.000 A 
ATOM     14  C   UNL     1       4.579   6.535  17.564  0.00  0.00    +0.000 A 
ATOM     15  C   UNL     1       5.400   6.181  16.490  0.00  0.00    +0.000 A 
ATOM     16  C   UNL     1       5.289   4.922  15.904  0.00  0.00    +0.000 A 
ATOM     17  C   UNL     1       4.358   4.008  16.398  0.00  0.00    +0.000 A 
ATOM     18  C   UNL     1       3.550   4.354  17.489  0.00  0.00    +0.000 A 
ATOM     19  C   UNL     1       2.598   3.371  18.039  0.00  0.00    +0.000 A 
ATOM     20  O   UNL     1       2.504   2.259  17.524  0.00  0.00    +0.000 OA
ENDBRANCH   8  12
ENDBRANCH   1   8
BRANCH   7  21
ATOM     21  C   UNL     1      -0.124  10.839  19.415  0.00  0.00    +0.000 C 
BRANCH  21  22
ATOM     22  C   UNL     1      -1.344  10.926  18.524  0.00  0.00    +0.000 A 
ATOM     23  C   UNL     1      -2.417  11.765  18.864  0.00  0.00    +0.000 A 
ATOM     24  C   UNL     1      -3.583  11.763  18.097  0.00  0.00    +0.000 A 
ATOM     25  C   UNL     1      -3.672  10.931  16.988  0.00  0.00    +0.000 A 
ATOM     26  F   UNL     1      -4.805  10.904  16.272  0.00  0.00    +0.000 F 
ATOM     27  C   UNL     1      -2.607  10.123  16.611  0.00  0.00    +0.000 A 
ATOM     28  C   UNL     1      -1.438  10.129  17.373  0.00  0.00    +0.000 A 
ENDBRANCH  21  22
ENDBRANCH   7  21
TORSDOF 4
ENDMDL
MODEL 2
REMARK VINA RESULT:      -8.1      1.156      2.565
REMARK  Name = 
REMARK  5 active torsions:
REMARK  status: ('A' for Active; 'I' for Inactive)
REMARK    1  A    between atoms: C_1  and  N_2
REMARK    2  A    between atoms: C_4  and  C_5
REMARK    3  A    between atoms: C_5  and  C_6
REMARK    4  A    between atoms: C_12  and  C_13
REMARK    5  A    between atoms: C_13  and  C_14
REMARK                            x       y       z     vdW  Elec       q    Type
REMARK                         _______ _______ _______ _____ _____    ______ ____
ROOT
ATOM      1  C   UNL     1       1.391   8.217  19.989  0.00  0.00    +0.000 C 
ATOM      2  O   UNL     1       0.870   8.178  18.871  0.00  0.00    +0.000 OA
ATOM      3  N   UNL     1       0.937   9.080  20.962  0.00  0.00    +0.000 N 
ATOM      4  C   UNL     1       1.378   9.160  22.346  0.00  0.00    +0.000 C 
ATOM      5  C   UNL     1       0.104   9.440  23.118  0.00  0.00    +0.000 C 
ATOM      6  C   UNL     1      -0.680  10.338  22.175  0.00  0.00    +0.000 C 
ATOM      7  C   UNL     1      -0.306   9.837  20.767  0.00  0.00    +0.000 C 
ENDROOT
BRANCH   1   8
ATOM      8  C   UNL     1       2.506   7.255  20.319  0.00  0.00    +0.000 C 
BRANCH   8  12
ATOM      9  C   UNL     1       5.105   6.375  16.409  0.00  0.00    +0.000 C 
ATOM     10  N   UNL     1       4.179   5.830  17.383  0.00  0.00    +0.000 N 
ATOM     11  N   UNL     1       3.771   6.676  18.374  0.00  0.00    +0.000 NA
ATOM     12  C   UNL     1       2.890   6.270  19.240  0.00  0.00    +0.000 A 
ATOM     13  C   UNL     1       2.298   4.916  19.213  0.00  0.00    +0.000 A 
ATOM     14  C   UNL     1       1.324   4.476  20.120  0.00  0.00    +0.000 A 
ATOM     15  C   UNL     1       0.796   3.188  20.010  0.00  0.00    +0.000 A 
ATOM     16  C   UNL     1       1.252   2.323  19.017  0.00  0.00    +0.000 A 
ATOM     17  C   UNL     1       2.234   2.750  18.125  0.00  0.00    +0.000 A 
ATOM     18  C   UNL     1       2.749   4.049  18.220  0.00  0.00    +0.000 A 
ATOM     19  C   UNL     1       3.756   4.514  17.248  0.00  0.00    +0.000 A 
ATOM     20  O   UNL     1       4.153   3.752  16.370  0.00  0.00    +0.000 OA
ENDBRANCH   8  12
ENDBRANCH   1   8
BRANCH   7  21
ATOM     21  C   UNL     1      -0.174  10.993  19.751  0.00  0.00    +0.000 C 
BRANCH  21  22
ATOM     22  C   UNL     1      -1.337  11.038  18.784  0.00  0.00    +0.000 A 
ATOM     23  C   UNL     1      -2.482  11.795  19.080  0.00  0.00    +0.000 A 
ATOM     24  C   UNL     1      -3.593  11.751  18.237  0.00  0.00    +0.000 A 
ATOM     25  C   UNL     1      -3.557  10.957  17.096  0.00  0.00    +0.000 A 
ATOM     26  F   UNL     1      -4.637  10.888  16.306  0.00  0.00    +0.000 F 
ATOM     27  C   UNL     1      -2.420  10.232  16.765  0.00  0.00    +0.000 A 
ATOM     28  C   UNL     1      -1.306  10.281  17.603  0.00  0.00    +0.000 A 
ENDBRANCH  21  22
ENDBRANCH   7  21
TORSDOF 4
ENDMDL
MODEL 3
REMARK VINA RESULT:      -8.0      0.901      1.305
REMARK  Name = 
REMARK  5 active torsions:
REMARK  status: ('A' for Active; 'I' for Inactive)
REMARK    1  A    between atoms: C_1  and  N_2
REMARK    2  A    between atoms: C_4  and  C_5
REMARK    3  A    between atoms: C_5  and  C_6
REMARK    4  A    between atoms: C_12  and  C_13
REMARK    5  A    between atoms: C_13  and  C_14
REMARK                            x       y       z     vdW  Elec       q    Type
REMARK                         _______ _______ _______ _____ _____    ______ ____
ROOT
ATOM      1  C   UNL     1       1.627   8.796  18.477  0.00  0.00    +0.000 C 
ATOM      2  O   UNL     1       0.947   8.909  17.454  0.00  0.00    +0.000 OA
ATOM      3  N   UNL     1       1.160   9.227  19.699  0.00  0.00    +0.000 N 
ATOM      4  C   UNL     1       1.799   9.063  20.996  0.00  0.00    +0.000 C 
ATOM      5  C   UNL     1       0.644   8.786  21.938  0.00  0.00    +0.000 C 
ATOM      6  C   UNL     1      -0.471   9.656  21.380  0.00  0.00    +0.000 C 
ATOM      7  C   UNL     1      -0.237   9.652  19.857  0.00  0.00    +0.000 C 
ENDROOT
BRANCH   1   8
ATOM      8  C   UNL     1       2.970   8.113  18.400  0.00  0.00    +0.000 C 
BRANCH   8  12
ATOM      9  C   UNL     1       1.159   4.060  20.165  0.00  0.00    +0.000 C 
ATOM     10  N   UNL     1       2.052   4.651  19.187  0.00  0.00    +0.000 N 
ATOM     11  N   UNL     1       2.128   6.014  19.176  0.00  0.00    +0.000 NA
ATOM     12  C   UNL     1       2.959   6.603  18.369  0.00  0.00    +0.000 A 
ATOM     13  C   UNL     1       3.841   5.864  17.440  0.00  0.00    +0.000 A 
ATOM     14  C   UNL     1       4.765   6.484  16.588  0.00  0.00    +0.000 A 
ATOM     15  C   UNL     1       5.581   5.711  15.758  0.00  0.00    +0.000 A 
ATOM     16  C   UNL     1       5.463   4.323  15.752  0.00  0.00    +0.000 A 
ATOM     17  C   UNL     1       4.532   3.703  16.584  0.00  0.00    +0.000 A 
ATOM     18  C   UNL     1       3.729   4.476  17.433  0.00  0.00    +0.000 A 
ATOM     19  C   UNL     1       2.776   3.816  18.345  0.00  0.00    +0.000 A 
ATOM     20  O   UNL     1       2.677   2.591  18.341  0.00  0.00    +0.000 OA
ENDBRANCH   8  12
ENDBRANCH   1   8
BRANCH   7  21
ATOM     21  C   UNL     1      -0.544  11.021  19.215  0.00  0.00    +0.000 C 
BRANCH  21  22
ATOM     22  C   UNL     1      -1.939  11.078  18.630  0.00  0.00    +0.000 A 
ATOM     23  C   UNL     1      -2.255  10.353  17.470  0.00  0.00    +0.000 A 
ATOM     24  C   UNL     1      -3.510  10.490  16.874  0.00  0.00    +0.000 A 
ATOM     25  C   UNL     1      -4.449  11.344  17.442  0.00  0.00    +0.000 A 
ATOM     26  F   UNL     1      -5.640  11.501  16.849  0.00  0.00    +0.000 F 
ATOM     27  C   UNL     1      -4.169  12.039  18.611  0.00  0.00    +0.000 A 
ATOM     28  C   UNL     1      -2.918  11.898  19.211  0.00  0.00    +0.000 A 
ENDBRANCH  21  22
ENDBRANCH   7  21
TORSDOF 4
ENDMDL
MODEL 4
REMARK VINA RESULT:      -7.9      1.482      2.043
REMARK  Name = 
REMARK  5 active torsions:
REMARK  status: ('A' for Active; 'I' for Inactive)
REMARK    1  A    between atoms: C_1  and  N_2
REMARK    2  A    between atoms: C_4  and  C_5
REMARK    3  A    between atoms: C_5  and  C_6
REMARK    4  A    between atoms: C_12  and  C_13
REMARK    5  A    between atoms: C_13  and  C_14
REMARK                            x       y       z     vdW  Elec       q    Type
REMARK                         _______ _______ _______ _____ _____    ______ ____
ROOT
ATOM      1  C   UNL     1       2.067   8.608  18.776  0.00  0.00    +0.000 C 
ATOM      2  O   UNL     1       1.728   7.866  19.702  0.00  0.00    +0.000 OA
ATOM      3  N   UNL     1       1.630   9.912  18.706  0.00  0.00    +0.000 N 
ATOM      4  C   UNL     1       2.031  10.926  17.742  0.00  0.00    +0.000 C 
ATOM      5  C   UNL     1       2.102  12.200  18.562  0.00  0.00    +0.000 C 
ATOM      6  C   UNL     1       0.962  12.034  19.554  0.00  0.00    +0.000 C 
ATOM      7  C   UNL     1       0.909  10.520  19.831  0.00  0.00    +0.000 C 
ENDROOT
BRANCH   1   8
ATOM      8  C   UNL     1       3.034   8.097  17.736  0.00  0.00    +0.000 C 
BRANCH   8  12
ATOM      9  C   UNL     1       1.391   3.649  18.310  0.00  0.00    +0.000 C 
ATOM     10  N   UNL     1       2.543   4.472  17.999  0.00  0.00    +0.000 N 
ATOM     11  N   UNL     1       2.338   5.822  17.975  0.00  0.00    +0.000 NA
ATOM     12  C   UNL     1       3.344   6.619  17.769  0.00  0.00    +0.000 A 
ATOM     13  C   UNL     1       4.724   6.136  17.549  0.00  0.00    +0.000 A 
ATOM     14  C   UNL     1       5.823   6.984  17.359  0.00  0.00    +0.000 A 
ATOM     15  C   UNL     1       7.100   6.447  17.184  0.00  0.00    +0.000 A 
ATOM     16  C   UNL     1       7.287   5.066  17.170  0.00  0.00    +0.000 A 
ATOM     17  C   UNL     1       6.193   4.218  17.340  0.00  0.00    +0.000 A 
ATOM     18  C   UNL     1       4.915   4.756  17.539  0.00  0.00    +0.000 A 
ATOM     19  C   UNL     1       3.767   3.859  17.763  0.00  0.00    +0.000 A 
ATOM     20  O   UNL     1       3.934   2.641  17.756  0.00  0.00    +0.000 OA
ENDBRANCH   8  12
ENDBRANCH   1   8
BRANCH   7  21
ATOM     21  C   UNL     1      -0.538  10.005  19.990  0.00  0.00    +0.000 C 
BRANCH  21  22
ATOM     22  C   UNL     1      -1.429  10.443  18.848  0.00  0.00    +0.000 A 
ATOM     23  C   UNL     1      -2.367  11.472  19.030  0.00  0.00    +0.000 A 
ATOM     24  C   UNL     1      -3.258  11.801  18.007  0.00  0.00    +0.000 A 
ATOM     25  C   UNL     1      -3.206  11.108  16.803  0.00  0.00    +0.000 A 
ATOM     26  F   UNL     1      -4.086  11.401  15.835  0.00  0.00    +0.000 F 
ATOM     27  C   UNL     1      -2.260  10.114  16.589  0.00  0.00    +0.000 A 
ATOM     28  C   UNL     1      -1.364   9.789  17.608  0.00  0.00    +0.000 A 
ENDBRANCH  21  22
ENDBRANCH   7  21
TORSDOF 4
ENDMDL
MODEL 5
REMARK VINA RESULT:      -7.8      1.256      2.621
REMARK  Name = 
REMARK  5 active torsions:
REMARK  status: ('A' for Active; 'I' for Inactive)
REMARK    1  A    between atoms: C_1  and  N_2
REMARK    2  A    between atoms: C_4  and  C_5
REMARK    3  A    between atoms: C_5  and  C_6
REMARK    4  A    between atoms: C_12  and  C_13
REMARK    5  A    between atoms: C_13  and  C_14
REMARK                            x       y       z     vdW  Elec       q    Type
REMARK                         _______ _______ _______ _____ _____    ______ ____
ROOT
ATOM      1  C   UNL     1       2.065   8.106  18.726  0.00  0.00    +0.000 C 
ATOM      2  O   UNL     1       1.595   8.101  17.585  0.00  0.00    +0.000 OA
ATOM      3  N   UNL     1       1.414   8.732  19.766  0.00  0.00    +0.000 N 
ATOM      4  C   UNL     1       1.789   8.727  21.172  0.00  0.00    +0.000 C 
ATOM      5  C   UNL     1       0.462   8.647  21.902  0.00  0.00    +0.000 C 
ATOM      6  C   UNL     1      -0.462   9.479  21.027  0.00  0.00    +0.000 C 
ATOM      7  C   UNL     1       0.048   9.243  19.593  0.00  0.00    +0.000 C 
ENDROOT
BRANCH   1   8
ATOM      8  C   UNL     1       3.344   7.354  19.002  0.00  0.00    +0.000 C 
BRANCH   8  12
ATOM      9  C   UNL     1       5.128   4.256  15.835  0.00  0.00    +0.000 C 
ATOM     10  N   UNL     1       4.304   4.425  17.016  0.00  0.00    +0.000 N 
ATOM     11  N   UNL     1       4.185   5.697  17.498  0.00  0.00    +0.000 NA
ATOM     12  C   UNL     1       3.407   5.926  18.514  0.00  0.00    +0.000 A 
ATOM     13  C   UNL     1       2.635   4.865  19.194  0.00  0.00    +0.000 A 
ATOM     14  C   UNL     1       1.768   5.103  20.269  0.00  0.00    +0.000 A 
ATOM     15  C   UNL     1       1.054   4.047  20.840  0.00  0.00    +0.000 A 
ATOM     16  C   UNL     1       1.218   2.748  20.363  0.00  0.00    +0.000 A 
ATOM     17  C   UNL     1       2.093   2.503  19.306  0.00  0.00    +0.000 A 
ATOM     18  C   UNL     1       2.793   3.566  18.718  0.00  0.00    +0.000 A 
ATOM     19  C   UNL     1       3.685   3.312  17.571  0.00  0.00    +0.000 A 
ATOM     20  O   UNL     1       3.824   2.167  17.149  0.00  0.00    +0.000 OA
ENDBRANCH   8  12
ENDBRANCH   1   8
BRANCH   7  21
ATOM     21  C   UNL     1      -0.032  10.518  18.727  0.00  0.00    +0.000 C 
BRANCH  21  22
ATOM     22  C   UNL     1      -1.417  10.737  18.159  0.00  0.00    +0.000 A 
ATOM     23  C   UNL     1      -2.288  11.669  18.746  0.00  0.00    +0.000 A 
ATOM     24  C   UNL     1      -3.601  11.792  18.286  0.00  0.00    +0.000 A 
ATOM     25  C   UNL     1      -4.038  10.992  17.237  0.00  0.00    +0.000 A 
ATOM     26  F   UNL     1      -5.308  11.087  16.820  0.00  0.00    +0.000 F 
ATOM     27  C   UNL     1      -3.180  10.093  16.617  0.00  0.00    +0.000 A 
ATOM     28  C   UNL     1      -1.866   9.973  17.071  0.00  0.00    +0.000 A 
ENDBRANCH  21  22
ENDBRANCH   7  21
TORSDOF 4
ENDMDL
MODEL 6
REMARK VINA RESULT:      -7.8      3.588      8.349
REMARK  Name = 
REMARK  5 active torsions:
REMARK  status: ('A' for Active; 'I' for Inactive)
REMARK    1  A    between atoms: C_1  and  N_2
REMARK    2  A    between atoms: C_4  and  C_5
REMARK    3  A    between atoms: C_5  and  C_6
REMARK    4  A    between atoms: C_12  and  C_13
REMARK    5  A    between atoms: C_13  and  C_14
REMARK                            x       y       z     vdW  Elec       q    Type
REMARK                         _______ _______ _______ _____ _____    ______ ____
ROOT
ATOM      1  C   UNL     1       2.257   6.114  20.003  0.00  0.00    +0.000 C 
ATOM      2  O   UNL     1       3.229   6.593  19.412  0.00  0.00    +0.000 OA
ATOM      3  N   UNL     1       1.926   4.783  19.877  0.00  0.00    +0.000 N 
ATOM      4  C   UNL     1       0.883   4.063  20.592  0.00  0.00    +0.000 C 
ATOM      5  C   UNL     1       1.499   2.702  20.858  0.00  0.00    +0.000 C 
ATOM      6  C   UNL     1       2.333   2.453  19.611  0.00  0.00    +0.000 C 
ATOM      7  C   UNL     1       2.830   3.850  19.195  0.00  0.00    +0.000 C 
ENDROOT
BRANCH   1   8
ATOM      8  C   UNL     1       1.456   6.989  20.936  0.00  0.00    +0.000 C 
BRANCH   8  12
ATOM      9  C   UNL     1       2.138  10.331  17.593  0.00  0.00    +0.000 C 
ATOM     10  N   UNL     1       1.500  10.007  18.854  0.00  0.00    +0.000 N 
ATOM     11  N   UNL     1       1.700   8.743  19.330  0.00  0.00    +0.000 NA
ATOM     12  C   UNL     1       1.211   8.410  20.487  0.00  0.00    +0.000 A 
ATOM     13  C   UNL     1       0.430   9.340  21.330  0.00  0.00    +0.000 A 
ATOM     14  C   UNL     1      -0.074   9.005  22.594  0.00  0.00    +0.000 A 
ATOM     15  C   UNL     1      -0.780   9.952  23.340  0.00  0.00    +0.000 A 
ATOM     16  C   UNL     1      -1.010  11.225  22.822  0.00  0.00    +0.000 A 
ATOM     17  C   UNL     1      -0.526  11.557  21.558  0.00  0.00    +0.000 A 
ATOM     18  C   UNL     1       0.201  10.615  20.819  0.00  0.00    +0.000 A 
ATOM     19  C   UNL     1       0.751  10.982  19.500  0.00  0.00    +0.000 A 
ATOM     20  O   UNL     1       0.551  12.107  19.048  0.00  0.00    +0.000 OA
ENDBRANCH   8  12
ENDBRANCH   1   8
BRANCH   7  21
ATOM     21  C   UNL     1       2.861   4.026  17.661  0.00  0.00    +0.000 C 
BRANCH  21  22
ATOM     22  C   UNL     1       4.259   4.288  17.144  0.00  0.00    +0.000 A 
ATOM     23  C   UNL     1       4.503   4.379  15.764  0.00  0.00    +0.000 A 
ATOM     24  C   UNL     1       5.808   4.515  15.288  0.00  0.00    +0.000 A 
ATOM     25  C   UNL     1       6.865   4.568  16.189  0.00  0.00    +0.000 A 
ATOM     26  F   UNL     1       8.120   4.663  15.729  0.00  0.00    +0.000 F 
ATOM     27  C   UNL     1       6.641   4.519  17.559  0.00  0.00    +0.000 A 
ATOM     28  C   UNL     1       5.337   4.390  18.037  0.00  0.00    +0.000 A 
ENDBRANCH  21  22
ENDBRANCH   7  21
TORSDOF 4
ENDMDL
MODEL 7
REMARK VINA RESULT:      -7.7      2.833      5.237
REMARK  Name = 
REMARK  5 active torsions:
REMARK  status: ('A' for Active; 'I' for Inactive)
REMARK    1  A    between atoms: C_1  and  N_2
REMARK    2  A    between atoms: C_4  and  C_5
REMARK    3  A    between atoms: C_5  and  C_6
REMARK    4  A    between atoms: C_12  and  C_13
REMARK    5  A    between atoms: C_13  and  C_14
REMARK                            x       y       z     vdW  Elec       q    Type
REMARK                         _______ _______ _______ _____ _____    ______ ____
ROOT
ATOM      1  C   UNL     1       2.727   4.516  18.089  0.00  0.00    +0.000 C 
ATOM      2  O   UNL     1       2.378   5.648  17.743  0.00  0.00    +0.000 OA
ATOM      3  N   UNL     1       2.500   4.056  19.368  0.00  0.00    +0.000 N 
ATOM      4  C   UNL     1       2.756   2.719  19.883  0.00  0.00    +0.000 C 
ATOM      5  C   UNL     1       1.586   2.458  20.811  0.00  0.00    +0.000 C 
ATOM      6  C   UNL     1       1.320   3.824  21.422  0.00  0.00    +0.000 C 
ATOM      7  C   UNL     1       1.663   4.821  20.299  0.00  0.00    +0.000 C 
ENDROOT
BRANCH   1   8
ATOM      8  C   UNL     1       3.354   3.592  17.074  0.00  0.00    +0.000 C 
BRANCH   8  12
ATOM      9  C   UNL     1       6.025   3.904  13.126  0.00  0.00    +0.000 C 
ATOM     10  N   UNL     1       5.912   4.249  14.530  0.00  0.00    +0.000 N 
ATOM     11  N   UNL     1       4.778   3.838  15.169  0.00  0.00    +0.000 NA
ATOM     12  C   UNL     1       4.645   4.057  16.443  0.00  0.00    +0.000 A 
ATOM     13  C   UNL     1       5.672   4.745  17.254  0.00  0.00    +0.000 A 
ATOM     14  C   UNL     1       5.557   4.958  18.634  0.00  0.00    +0.000 A 
ATOM     15  C   UNL     1       6.587   5.594  19.333  0.00  0.00    +0.000 A 
ATOM     16  C   UNL     1       7.720   6.044  18.659  0.00  0.00    +0.000 A 
ATOM     17  C   UNL     1       7.831   5.850  17.283  0.00  0.00    +0.000 A 
ATOM     18  C   UNL     1       6.809   5.192  16.585  0.00  0.00    +0.000 A 
ATOM     19  C   UNL     1       6.947   4.949  15.137  0.00  0.00    +0.000 A 
ATOM     20  O   UNL     1       7.950   5.342  14.546  0.00  0.00    +0.000 OA
ENDBRANCH   8  12
ENDBRANCH   1   8
BRANCH   7  21
ATOM     21  C   UNL     1       2.343   6.098  20.839  0.00  0.00    +0.000 C 
BRANCH  21  22
ATOM     22  C   UNL     1       1.484   7.329  20.643  0.00  0.00    +0.000 A 
ATOM     23  C   UNL     1       1.746   8.220  19.591  0.00  0.00    +0.000 A 
ATOM     24  C   UNL     1       1.020   9.407  19.477  0.00  0.00    +0.000 A 
ATOM     25  C   UNL     1       0.030   9.698  20.408  0.00  0.00    +0.000 A 
ATOM     26  F   UNL     1      -0.642  10.854  20.318  0.00  0.00    +0.000 F 
ATOM     27  C   UNL     1      -0.270   8.810  21.434  0.00  0.00    +0.000 A 
ATOM     28  C   UNL     1       0.449   7.621  21.545  0.00  0.00    +0.000 A 
ENDBRANCH  21  22
ENDBRANCH   7  21
TORSDOF 4
ENDMDL
MODEL 8
REMARK VINA RESULT:      -7.6      3.511      8.466
REMARK  Name = 
REMARK  5 active torsions:
REMARK  status: ('A' for Active; 'I' for Inactive)
REMARK    1  A    between atoms: C_1  and  N_2
REMARK    2  A    between atoms: C_4  and  C_5
REMARK    3  A    between atoms: C_5  and  C_6
REMARK    4  A    between atoms: C_12  and  C_13
REMARK    5  A    between atoms: C_13  and  C_14
REMARK                            x       y       z     vdW  Elec       q    Type
REMARK                         _______ _______ _______ _____ _____    ______ ____
ROOT
ATOM      1  C   UNL     1       0.990  10.731  18.801  0.00  0.00    +0.000 C 
ATOM      2  O   UNL     1       1.845  10.885  17.924  0.00  0.00    +0.000 OA
ATOM      3  N   UNL     1       0.897   9.554  19.512  0.00  0.00    +0.000 N 
ATOM      4  C   UNL     1       0.020   9.271  20.637  0.00  0.00    +0.000 C 
ATOM      5  C   UNL     1       0.875   8.424  21.560  0.00  0.00    +0.000 C 
ATOM      6  C   UNL     1       1.705   7.594  20.594  0.00  0.00    +0.000 C 
ATOM      7  C   UNL     1       1.934   8.523  19.387  0.00  0.00    +0.000 C 
ENDROOT
BRANCH   1   8
ATOM      8  C   UNL     1       0.072  11.877  19.148  0.00  0.00    +0.000 C 
BRANCH   8  12
ATOM      9  C   UNL     1      -2.869  10.779  15.548  0.00  0.00    +0.000 C 
ATOM     10  N   UNL     1      -2.770  11.204  16.931  0.00  0.00    +0.000 N 
ATOM     11  N   UNL     1      -1.510  11.337  17.439  0.00  0.00    +0.000 NA
ATOM     12  C   UNL     1      -1.351  11.778  18.651  0.00  0.00    +0.000 A 
ATOM     13  C   UNL     1      -2.481  12.147  19.529  0.00  0.00    +0.000 A 
ATOM     14  C   UNL     1      -2.323  12.655  20.826  0.00  0.00    +0.000 A 
ATOM     15  C   UNL     1      -3.444  13.004  21.582  0.00  0.00    +0.000 A 
ATOM     16  C   UNL     1      -4.725  12.825  21.065  0.00  0.00    +0.000 A 
ATOM     17  C   UNL     1      -4.888  12.303  19.783  0.00  0.00    +0.000 A 
ATOM     18  C   UNL     1      -3.763  11.973  19.015  0.00  0.00    +0.000 A 
ATOM     19  C   UNL     1      -3.936  11.462  17.642  0.00  0.00    +0.000 A 
ATOM     20  O   UNL     1      -5.066  11.310  17.186  0.00  0.00    +0.000 OA
ENDBRANCH   8  12
ENDBRANCH   1   8
BRANCH   7  21
ATOM     21  C   UNL     1       1.891   7.759  18.046  0.00  0.00    +0.000 C 
BRANCH  21  22
ATOM     22  C   UNL     1       2.603   6.426  18.124  0.00  0.00    +0.000 A 
ATOM     23  C   UNL     1       1.880   5.226  18.043  0.00  0.00    +0.000 A 
ATOM     24  C   UNL     1       2.526   4.001  18.221  0.00  0.00    +0.000 A 
ATOM     25  C   UNL     1       3.893   3.977  18.470  0.00  0.00    +0.000 A 
ATOM     26  F   UNL     1       4.506   2.803  18.675  0.00  0.00    +0.000 F 
ATOM     27  C   UNL     1       4.633   5.152  18.514  0.00  0.00    +0.000 A 
ATOM     28  C   UNL     1       3.990   6.376  18.329  0.00  0.00    +0.000 A 
ENDBRANCH  21  22
ENDBRANCH   7  21
TORSDOF 4
ENDMDL
MODEL 9
REMARK VINA RESULT:      -7.6      3.455      8.470
REMARK  Name = 
REMARK  5 active torsions:
REMARK  status: ('A' for Active; 'I' for Inactive)
REMARK    1  A    between atoms: C_1  and  N_2
REMARK    2  A    between atoms: C_4  and  C_5
REMARK    3  A    between atoms: C_5  and  C_6
REMARK    4  A    between atoms: C_12  and  C_13
REMARK    5  A    between atoms: C_13  and  C_14
REMARK                            x       y       z     vdW  Elec       q    Type
REMARK                         _______ _______ _______ _____ _____    ______ ____
ROOT
ATOM      1  C   UNL     1       1.010  10.504  18.606  0.00  0.00    +0.000 C 
ATOM      2  O   UNL     1       1.769  10.530  17.633  0.00  0.00    +0.000 OA
ATOM      3  N   UNL     1       0.959   9.414  19.446  0.00  0.00    +0.000 N 
ATOM      4  C   UNL     1       0.200   9.287  20.681  0.00  0.00    +0.000 C 
ATOM      5  C   UNL     1       1.124   8.506  21.596  0.00  0.00    +0.000 C 
ATOM      6  C   UNL     1       1.818   7.545  20.645  0.00  0.00    +0.000 C 
ATOM      7  C   UNL     1       1.944   8.332  19.326  0.00  0.00    +0.000 C 
ENDROOT
BRANCH   1   8
ATOM      8  C   UNL     1       0.170  11.718  18.920  0.00  0.00    +0.000 C 
BRANCH   8  12
ATOM      9  C   UNL     1      -2.934  10.768  15.417  0.00  0.00    +0.000 C 
ATOM     10  N   UNL     1      -2.771  11.175  16.799  0.00  0.00    +0.000 N 
ATOM     11  N   UNL     1      -1.490  11.254  17.263  0.00  0.00    +0.000 NA
ATOM     12  C   UNL     1      -1.272  11.677  18.472  0.00  0.00    +0.000 A 
ATOM     13  C   UNL     1      -2.356  12.079  19.394  0.00  0.00    +0.000 A 
ATOM     14  C   UNL     1      -2.133  12.568  20.688  0.00  0.00    +0.000 A 
ATOM     15  C   UNL     1      -3.214  12.951  21.487  0.00  0.00    +0.000 A 
ATOM     16  C   UNL     1      -4.518  12.825  21.014  0.00  0.00    +0.000 A 
ATOM     17  C   UNL     1      -4.745  12.322  19.733  0.00  0.00    +0.000 A 
ATOM     18  C   UNL     1      -3.661  11.958  18.923  0.00  0.00    +0.000 A 
ATOM     19  C   UNL     1      -3.900  11.468  17.553  0.00  0.00    +0.000 A 
ATOM     20  O   UNL     1      -5.051  11.363  17.135  0.00  0.00    +0.000 OA
ENDBRANCH   8  12
ENDBRANCH   1   8
BRANCH   7  21
ATOM     21  C   UNL     1       1.732   7.435  18.088  0.00  0.00    +0.000 C 
BRANCH  21  22
ATOM     22  C   UNL     1       2.907   6.514  17.841  0.00  0.00    +0.000 A 
ATOM     23  C   UNL     1       4.155   7.037  17.468  0.00  0.00    +0.000 A 
ATOM     24  C   UNL     1       5.207   6.180  17.139  0.00  0.00    +0.000 A 
ATOM     25  C   UNL     1       5.014   4.805  17.191  0.00  0.00    +0.000 A 
ATOM     26  F   UNL     1       6.013   3.983  16.841  0.00  0.00    +0.000 F 
ATOM     27  C   UNL     1       3.798   4.268  17.597  0.00  0.00    +0.000 A 
ATOM     28  C   UNL     1       2.748   5.123  17.932  0.00  0.00    +0.000 A 
ENDBRANCH  21  22
ENDBRANCH   7  21
TORSDOF 4
ENDMDL
