MODEL 1
REMARK VINA RESULT:      -8.7      0.000      0.000
REMARK  Name = 
REMARK  6 active torsions:
REMARK  status: ('A' for Active; 'I' for Inactive)
REMARK    1  A    between atoms: C_2  and  C_3
REMARK    2  A    between atoms: C_3  and  C_4
REMARK    3  A    between atoms: C_4  and  C_5
REMARK    4  A    between atoms: C_8  and  C_9
REMARK    5  A    between atoms: N_16  and  C_17
REMARK    6  A    between atoms: C_20  and  N_21
REMARK                            x       y       z     vdW  Elec       q    Type
REMARK                         _______ _______ _______ _____ _____    ______ ____
ROOT
ATOM      1  O   UNL     1       1.645   4.791  17.779  0.00  0.00    +0.000 OA
ATOM      2  C   UNL     1       2.696   4.951  18.397  0.00  0.00    +0.000 C 
ATOM      3  N   UNL     1       3.159   6.137  18.941  0.00  0.00    +0.000 N 
ATOM      4  H   UNL     1       4.150   6.185  19.166  0.00  0.00    +0.000 HD
ENDROOT
BRANCH   3   5
ATOM      5  C   UNL     1       2.452   7.357  18.992  0.00  0.00    +0.000 A 
ATOM      6  C   UNL     1       1.775   7.793  20.132  0.00  0.00    +0.000 A 
ATOM      7  C   UNL     1       1.040   8.983  20.121  0.00  0.00    +0.000 A 
ATOM      8  C   UNL     1       0.972   9.760  18.961  0.00  0.00    +0.000 A 
ATOM      9  C   UNL     1       1.690   9.353  17.826  0.00  0.00    +0.000 A 
ATOM     10  C   UNL     1       2.435   8.166  17.849  0.00  0.00    +0.000 A 
BRANCH   8  11
ATOM     11  N   UNL     1       0.157  10.928  18.912  0.00  0.00    +0.000 N 
ATOM     12  C   UNL     1      -1.222  10.998  18.956  0.00  0.00    +0.000 A 
ATOM     13  C   UNL     1      -1.569  12.317  18.782  0.00  0.00    +0.000 A 
ATOM     14  C   UNL     1      -0.344  12.987  18.665  0.00  0.00    +0.000 A 
ATOM     15  N   UNL     1       0.702  12.162  18.767  0.00  0.00    +0.000 NA
ENDBRANCH   8  11
ENDBRANCH   3   5
BRANCH   2  16
ATOM     16  C   UNL     1       3.647   3.782  18.566  0.00  0.00    +0.000 C 
BRANCH  16  17
ATOM     17  C   UNL     1       4.988   4.227  19.137  0.00  0.00    +0.000 C 
BRANCH  17  18
ATOM     18  C   UNL     1       6.021   4.362  18.086  0.00  0.00    +0.000 A 
ATOM     19  N   UNL     1       7.314   4.570  18.217  0.00  0.00    +0.000 NA
ATOM     20  N   UNL     1       7.820   4.651  16.940  0.00  0.00    +0.000 NA
ATOM     21  C   UNL     1       6.804   4.475  16.115  0.00  0.00    +0.000 A 
ATOM     22  O   UNL     1       5.617   4.288  16.782  0.00  0.00    +0.000 OA
BRANCH  21  23
ATOM     23  C   UNL     1       6.780   4.407  14.660  0.00  0.00    +0.000 A 
ATOM     24  C   UNL     1       7.663   5.207  13.917  0.00  0.00    +0.000 A 
ATOM     25  C   UNL     1       7.708   5.119  12.524  0.00  0.00    +0.000 A 
ATOM     26  C   UNL     1       6.865   4.235  11.855  0.00  0.00    +0.000 A 
ATOM     27  C   UNL     1       5.966   3.452  12.575  0.00  0.00    +0.000 A 
ATOM     28  C   UNL     1       5.920   3.540  13.969  0.00  0.00    +0.000 A 
ENDBRANCH  21  23
ENDBRANCH  17  18
ENDBRANCH  16  17
ENDBRANCH   2  16
TORSDOF 6
ENDMDL
MODEL 2
REMARK VINA RESULT:      -8.4      2.238      4.935
REMARK  Name = 
REMARK  6 active torsions:
REMARK  status: ('A' for Active; 'I' for Inactive)
REMARK    1  A    between atoms: C_2  and  C_3
REMARK    2  A    between atoms: C_3  and  C_4
REMARK    3  A    between atoms: C_4  and  C_5
REMARK    4  A    between atoms: C_8  and  C_9
REMARK    5  A    between atoms: N_16  and  C_17
REMARK    6  A    between atoms: C_20  and  N_21
REMARK                            x       y       z     vdW  Elec       q    Type
REMARK                         _______ _______ _______ _____ _____    ______ ____
ROOT
ATOM      1  O   UNL     1       5.776   7.375  17.485  0.00  0.00    +0.000 OA
ATOM      2  C   UNL     1       4.935   6.837  16.769  0.00  0.00    +0.000 C 
ATOM      3  N   UNL     1       3.571   6.785  16.997  0.00  0.00    +0.000 N 
ATOM      4  H   UNL     1       3.044   6.079  16.488  0.00  0.00    +0.000 HD
ENDROOT
BRANCH   3   5
ATOM      5  C   UNL     1       2.878   7.446  18.034  0.00  0.00    +0.000 A 
ATOM      6  C   UNL     1       2.701   6.889  19.302  0.00  0.00    +0.000 A 
ATOM      7  C   UNL     1       1.959   7.555  20.283  0.00  0.00    +0.000 A 
ATOM      8  C   UNL     1       1.379   8.797  20.008  0.00  0.00    +0.000 A 
ATOM      9  C   UNL     1       1.594   9.385  18.753  0.00  0.00    +0.000 A 
ATOM     10  C   UNL     1       2.350   8.717  17.778  0.00  0.00    +0.000 A 
BRANCH   8  11
ATOM     11  N   UNL     1       0.551   9.444  20.970  0.00  0.00    +0.000 N 
ATOM     12  C   UNL     1      -0.239  10.563  20.788  0.00  0.00    +0.000 A 
ATOM     13  C   UNL     1      -0.781  10.882  22.010  0.00  0.00    +0.000 A 
ATOM     14  C   UNL     1      -0.293   9.895  22.876  0.00  0.00    +0.000 A 
ATOM     15  N   UNL     1       0.489   9.010  22.254  0.00  0.00    +0.000 NA
ENDBRANCH   8  11
ENDBRANCH   3   5
BRANCH   2  16
ATOM     16  C   UNL     1       5.381   6.094  15.525  0.00  0.00    +0.000 C 
BRANCH  16  17
ATOM     17  C   UNL     1       5.913   4.706  15.860  0.00  0.00    +0.000 C 
BRANCH  17  18
ATOM     18  C   UNL     1       5.617   4.321  17.258  0.00  0.00    +0.000 A 
ATOM     19  N   UNL     1       6.439   4.217  18.281  0.00  0.00    +0.000 NA
ATOM     20  N   UNL     1       5.676   3.794  19.344  0.00  0.00    +0.000 NA
ATOM     21  C   UNL     1       4.436   3.680  18.902  0.00  0.00    +0.000 A 
ATOM     22  O   UNL     1       4.326   3.998  17.570  0.00  0.00    +0.000 OA
BRANCH  21  23
ATOM     23  C   UNL     1       3.217   3.325  19.616  0.00  0.00    +0.000 A 
ATOM     24  C   UNL     1       3.296   2.911  20.955  0.00  0.00    +0.000 A 
ATOM     25  C   UNL     1       2.140   2.624  21.685  0.00  0.00    +0.000 A 
ATOM     26  C   UNL     1       0.890   2.740  21.083  0.00  0.00    +0.000 A 
ATOM     27  C   UNL     1       0.794   3.127  19.749  0.00  0.00    +0.000 A 
ATOM     28  C   UNL     1       1.951   3.414  19.017  0.00  0.00    +0.000 A 
ENDBRANCH  21  23
ENDBRANCH  17  18
ENDBRANCH  16  17
ENDBRANCH   2  16
TORSDOF 6
ENDMDL
MODEL 3
REMARK VINA RESULT:      -8.3      2.278      4.851
REMARK  Name = 
REMARK  6 active torsions:
REMARK  status: ('A' for Active; 'I' for Inactive)
REMARK    1  A    between atoms: C_2  and  C_3
REMARK    2  A    between atoms: C_3  and  C_4
REMARK    3  A    between atoms: C_4  and  C_5
REMARK    4  A    between atoms: C_8  and  C_9
REMARK    5  A    between atoms: N_16  and  C_17
REMARK    6  A    between atoms: C_20  and  N_21
REMARK                            x       y       z     vdW  Elec       q    Type
REMARK                         _______ _______ _______ _____ _____    ______ ____
ROOT
ATOM      1  O   UNL     1       5.780   7.639  17.691  0.00  0.00    +0.000 OA
ATOM      2  C   UNL     1       5.041   7.041  16.912  0.00  0.00    +0.000 C 
ATOM      3  N   UNL     1       3.665   6.925  17.007  0.00  0.00    +0.000 N 
ATOM      4  H   UNL     1       3.226   6.180  16.470  0.00  0.00    +0.000 HD
ENDROOT
BRANCH   3   5
ATOM      5  C   UNL     1       2.841   7.577  17.949  0.00  0.00    +0.000 A 
ATOM      6  C   UNL     1       2.224   8.803  17.696  0.00  0.00    +0.000 A 
ATOM      7  C   UNL     1       1.461   9.441  18.680  0.00  0.00    +0.000 A 
ATOM      8  C   UNL     1       1.303   8.856  19.940  0.00  0.00    +0.000 A 
ATOM      9  C   UNL     1       1.880   7.601  20.185  0.00  0.00    +0.000 A 
ATOM     10  C   UNL     1       2.633   6.962  19.190  0.00  0.00    +0.000 A 
BRANCH   8  11
ATOM     11  N   UNL     1       0.601   9.537  20.977  0.00  0.00    +0.000 N 
ATOM     12  C   UNL     1       0.081  10.816  20.946  0.00  0.00    +0.000 A 
ATOM     13  C   UNL     1      -0.423  11.082  22.197  0.00  0.00    +0.000 A 
ATOM     14  C   UNL     1      -0.193   9.906  22.922  0.00  0.00    +0.000 A 
ATOM     15  N   UNL     1       0.400   8.960  22.189  0.00  0.00    +0.000 NA
ENDBRANCH   8  11
ENDBRANCH   3   5
BRANCH   2  16
ATOM     16  C   UNL     1       5.644   6.288  15.742  0.00  0.00    +0.000 C 
BRANCH  16  17
ATOM     17  C   UNL     1       6.415   5.058  16.202  0.00  0.00    +0.000 C 
BRANCH  17  18
ATOM     18  C   UNL     1       5.879   4.508  17.467  0.00  0.00    +0.000 A 
ATOM     19  N   UNL     1       6.513   4.237  18.588  0.00  0.00    +0.000 NA
ATOM     20  N   UNL     1       5.573   3.713  19.444  0.00  0.00    +0.000 NA
ATOM     21  C   UNL     1       4.424   3.710  18.792  0.00  0.00    +0.000 A 
ATOM     22  O   UNL     1       4.547   4.202  17.515  0.00  0.00    +0.000 OA
BRANCH  21  23
ATOM     23  C   UNL     1       3.095   3.318  19.240  0.00  0.00    +0.000 A 
ATOM     24  C   UNL     1       2.730   3.520  20.581  0.00  0.00    +0.000 A 
ATOM     25  C   UNL     1       1.442   3.213  21.026  0.00  0.00    +0.000 A 
ATOM     26  C   UNL     1       0.504   2.692  20.138  0.00  0.00    +0.000 A 
ATOM     27  C   UNL     1       0.856   2.463  18.811  0.00  0.00    +0.000 A 
ATOM     28  C   UNL     1       2.145   2.769  18.364  0.00  0.00    +0.000 A 
ENDBRANCH  21  23
ENDBRANCH  17  18
ENDBRANCH  16  17
ENDBRANCH   2  16
TORSDOF 6
ENDMDL
MODEL 4
REMARK VINA RESULT:      -8.3      0.802      1.531
REMARK  Name = 
REMARK  6 active torsions:
REMARK  status: ('A' for Active; 'I' for Inactive)
REMARK    1  A    between atoms: C_2  and  C_3
REMARK    2  A    between atoms: C_3  and  C_4
REMARK    3  A    between atoms: C_4  and  C_5
REMARK    4  A    between atoms: C_8  and  C_9
REMARK    5  A    between atoms: N_16  and  C_17
REMARK    6  A    between atoms: C_20  and  N_21
REMARK                            x       y       z     vdW  Elec       q    Type
REMARK                         _______ _______ _______ _____ _____    ______ ____
ROOT
ATOM      1  O   UNL     1       2.115   4.952  17.758  0.00  0.00    +0.000 OA
ATOM      2  C   UNL     1       3.045   5.196  18.523  0.00  0.00    +0.000 C 
ATOM      3  N   UNL     1       3.267   6.386  19.195  0.00  0.00    +0.000 N 
ATOM      4  H   UNL     1       4.205   6.543  19.558  0.00  0.00    +0.000 HD
ENDROOT
BRANCH   3   5
ATOM      5  C   UNL     1       2.399   7.499  19.220  0.00  0.00    +0.000 A 
ATOM      6  C   UNL     1       2.182   8.315  18.109  0.00  0.00    +0.000 A 
ATOM      7  C   UNL     1       1.357   9.441  18.193  0.00  0.00    +0.000 A 
ATOM      8  C   UNL     1       0.732   9.769  19.400  0.00  0.00    +0.000 A 
ATOM      9  C   UNL     1       0.907   8.926  20.508  0.00  0.00    +0.000 A 
ATOM     10  C   UNL     1       1.725   7.791  20.411  0.00  0.00    +0.000 A 
BRANCH   8  11
ATOM     11  N   UNL     1      -0.041  10.960  19.521  0.00  0.00    +0.000 N 
ATOM     12  C   UNL     1      -0.904  11.306  20.543  0.00  0.00    +0.000 A 
ATOM     13  C   UNL     1      -1.498  12.494  20.189  0.00  0.00    +0.000 A 
ATOM     14  C   UNL     1      -0.925  12.816  18.952  0.00  0.00    +0.000 A 
ATOM     15  N   UNL     1      -0.027  11.911  18.553  0.00  0.00    +0.000 NA
ENDBRANCH   8  11
ENDBRANCH   3   5
BRANCH   2  16
ATOM     16  C   UNL     1       4.117   4.149  18.753  0.00  0.00    +0.000 C 
BRANCH  16  17
ATOM     17  C   UNL     1       5.455   4.784  19.112  0.00  0.00    +0.000 C 
BRANCH  17  18
ATOM     18  C   UNL     1       6.188   5.249  17.914  0.00  0.00    +0.000 A 
ATOM     19  N   UNL     1       7.023   6.259  17.793  0.00  0.00    +0.000 NA
ATOM     20  N   UNL     1       7.402   6.288  16.471  0.00  0.00    +0.000 NA
ATOM     21  C   UNL     1       6.782   5.285  15.875  0.00  0.00    +0.000 A 
ATOM     22  O   UNL     1       5.982   4.578  16.740  0.00  0.00    +0.000 OA
BRANCH  21  23
ATOM     23  C   UNL     1       6.865   4.818  14.498  0.00  0.00    +0.000 A 
ATOM     24  C   UNL     1       6.007   3.796  14.062  0.00  0.00    +0.000 A 
ATOM     25  C   UNL     1       6.019   3.371  12.731  0.00  0.00    +0.000 A 
ATOM     26  C   UNL     1       6.896   3.956  11.821  0.00  0.00    +0.000 A 
ATOM     27  C   UNL     1       7.771   4.955  12.242  0.00  0.00    +0.000 A 
ATOM     28  C   UNL     1       7.759   5.381  13.574  0.00  0.00    +0.000 A 
ENDBRANCH  21  23
ENDBRANCH  17  18
ENDBRANCH  16  17
ENDBRANCH   2  16
TORSDOF 6
ENDMDL
MODEL 5
REMARK VINA RESULT:      -8.2      2.874      3.447
REMARK  Name = 
REMARK  6 active torsions:
REMARK  status: ('A' for Active; 'I' for Inactive)
REMARK    1  A    between atoms: C_2  and  C_3
REMARK    2  A    between atoms: C_3  and  C_4
REMARK    3  A    between atoms: C_4  and  C_5
REMARK    4  A    between atoms: C_8  and  C_9
REMARK    5  A    between atoms: N_16  and  C_17
REMARK    6  A    between atoms: C_20  and  N_21
REMARK                            x       y       z     vdW  Elec       q    Type
REMARK                         _______ _______ _______ _____ _____    ______ ____
ROOT
ATOM      1  O   UNL     1       0.361   4.368  20.320  0.00  0.00    +0.000 OA
ATOM      2  C   UNL     1       1.520   4.441  20.720  0.00  0.00    +0.000 C 
ATOM      3  N   UNL     1       2.319   5.572  20.729  0.00  0.00    +0.000 N 
ATOM      4  H   UNL     1       3.322   5.427  20.815  0.00  0.00    +0.000 HD
ENDROOT
BRANCH   3   5
ATOM      5  C   UNL     1       1.908   6.879  20.392  0.00  0.00    +0.000 A 
ATOM      6  C   UNL     1       1.159   7.683  21.252  0.00  0.00    +0.000 A 
ATOM      7  C   UNL     1       0.725   8.952  20.856  0.00  0.00    +0.000 A 
ATOM      8  C   UNL     1       1.037   9.439  19.582  0.00  0.00    +0.000 A 
ATOM      9  C   UNL     1       1.830   8.656  18.730  0.00  0.00    +0.000 A 
ATOM     10  C   UNL     1       2.273   7.390  19.141  0.00  0.00    +0.000 A 
BRANCH   8  11
ATOM     11  N   UNL     1       0.528  10.692  19.136  0.00  0.00    +0.000 N 
ATOM     12  C   UNL     1       1.247  11.815  18.773  0.00  0.00    +0.000 A 
ATOM     13  C   UNL     1       0.339  12.812  18.506  0.00  0.00    +0.000 A 
ATOM     14  C   UNL     1      -0.909  12.209  18.706  0.00  0.00    +0.000 A 
ATOM     15  N   UNL     1      -0.807  10.926  19.061  0.00  0.00    +0.000 NA
ENDBRANCH   8  11
ENDBRANCH   3   5
BRANCH   2  16
ATOM     16  C   UNL     1       2.219   3.189  21.216  0.00  0.00    +0.000 C 
BRANCH  16  17
ATOM     17  C   UNL     1       2.959   2.477  20.091  0.00  0.00    +0.000 C 
BRANCH  17  18
ATOM     18  C   UNL     1       3.467   3.423  19.074  0.00  0.00    +0.000 A 
ATOM     19  N   UNL     1       2.987   3.691  17.878  0.00  0.00    +0.000 NA
ATOM     20  N   UNL     1       3.842   4.613  17.319  0.00  0.00    +0.000 NA
ATOM     21  C   UNL     1       4.780   4.856  18.216  0.00  0.00    +0.000 A 
ATOM     22  O   UNL     1       4.605   4.123  19.366  0.00  0.00    +0.000 OA
BRANCH  21  23
ATOM     23  C   UNL     1       5.897   5.789  18.174  0.00  0.00    +0.000 A 
ATOM     24  C   UNL     1       6.983   5.607  19.045  0.00  0.00    +0.000 A 
ATOM     25  C   UNL     1       8.098   6.447  18.985  0.00  0.00    +0.000 A 
ATOM     26  C   UNL     1       8.137   7.486  18.059  0.00  0.00    +0.000 A 
ATOM     27  C   UNL     1       7.059   7.695  17.203  0.00  0.00    +0.000 A 
ATOM     28  C   UNL     1       5.943   6.855  17.262  0.00  0.00    +0.000 A 
ENDBRANCH  21  23
ENDBRANCH  17  18
ENDBRANCH  16  17
ENDBRANCH   2  16
TORSDOF 6
ENDMDL
MODEL 6
REMARK VINA RESULT:      -8.2      2.212      3.085
REMARK  Name = 
REMARK  6 active torsions:
REMARK  status: ('A' for Active; 'I' for Inactive)
REMARK    1  A    between atoms: C_2  and  C_3
REMARK    2  A    between atoms: C_3  and  C_4
REMARK    3  A    between atoms: C_4  and  C_5
REMARK    4  A    between atoms: C_8  and  C_9
REMARK    5  A    between atoms: N_16  and  C_17
REMARK    6  A    between atoms: C_20  and  N_21
REMARK                            x       y       z     vdW  Elec       q    Type
REMARK                         _______ _______ _______ _____ _____    ______ ____
ROOT
ATOM      1  O   UNL     1       0.486   4.120  20.028  0.00  0.00    +0.000 OA
ATOM      2  C   UNL     1       1.432   4.249  20.802  0.00  0.00    +0.000 C 
ATOM      3  N   UNL     1       2.183   5.395  21.000  0.00  0.00    +0.000 N 
ATOM      4  H   UNL     1       3.092   5.280  21.444  0.00  0.00    +0.000 HD
ENDROOT
BRANCH   3   5
ATOM      5  C   UNL     1       1.924   6.663  20.439  0.00  0.00    +0.000 A 
ATOM      6  C   UNL     1       2.407   7.051  19.188  0.00  0.00    +0.000 A 
ATOM      7  C   UNL     1       2.174   8.338  18.694  0.00  0.00    +0.000 A 
ATOM      8  C   UNL     1       1.449   9.264  19.450  0.00  0.00    +0.000 A 
ATOM      9  C   UNL     1       0.919   8.866  20.687  0.00  0.00    +0.000 A 
ATOM     10  C   UNL     1       1.146   7.569  21.169  0.00  0.00    +0.000 A 
BRANCH   8  11
ATOM     11  N   UNL     1       1.279  10.603  18.996  0.00  0.00    +0.000 N 
ATOM     12  C   UNL     1       2.153  11.353  18.232  0.00  0.00    +0.000 A 
ATOM     13  C   UNL     1       1.617  12.614  18.120  0.00  0.00    +0.000 A 
ATOM     14  C   UNL     1       0.407  12.542  18.821  0.00  0.00    +0.000 A 
ATOM     15  N   UNL     1       0.182  11.329  19.331  0.00  0.00    +0.000 NA
ENDBRANCH   8  11
ENDBRANCH   3   5
BRANCH   2  16
ATOM     16  C   UNL     1       1.904   3.055  21.607  0.00  0.00    +0.000 C 
BRANCH  16  17
ATOM     17  C   UNL     1       3.294   2.602  21.178  0.00  0.00    +0.000 C 
BRANCH  17  18
ATOM     18  C   UNL     1       3.430   2.548  19.706  0.00  0.00    +0.000 A 
ATOM     19  N   UNL     1       2.960   1.654  18.862  0.00  0.00    +0.000 NA
ATOM     20  N   UNL     1       3.392   2.040  17.614  0.00  0.00    +0.000 NA
ATOM     21  C   UNL     1       4.088   3.151  17.778  0.00  0.00    +0.000 A 
ATOM     22  O   UNL     1       4.157   3.533  19.097  0.00  0.00    +0.000 OA
BRANCH  21  23
ATOM     23  C   UNL     1       4.721   4.014  16.791  0.00  0.00    +0.000 A 
ATOM     24  C   UNL     1       4.543   5.404  16.872  0.00  0.00    +0.000 A 
ATOM     25  C   UNL     1       5.189   6.262  15.978  0.00  0.00    +0.000 A 
ATOM     26  C   UNL     1       6.014   5.740  14.985  0.00  0.00    +0.000 A 
ATOM     27  C   UNL     1       6.183   4.361  14.875  0.00  0.00    +0.000 A 
ATOM     28  C   UNL     1       5.537   3.502  15.770  0.00  0.00    +0.000 A 
ENDBRANCH  21  23
ENDBRANCH  17  18
ENDBRANCH  16  17
ENDBRANCH   2  16
TORSDOF 6
ENDMDL
MODEL 7
REMARK VINA RESULT:      -8.2      2.204      3.043
REMARK  Name = 
REMARK  6 active torsions:
REMARK  status: ('A' for Active; 'I' for Inactive)
REMARK    1  A    between atoms: C_2  and  C_3
REMARK    2  A    between atoms: C_3  and  C_4
REMARK    3  A    between atoms: C_4  and  C_5
REMARK    4  A    between atoms: C_8  and  C_9
REMARK    5  A    between atoms: N_16  and  C_17
REMARK    6  A    between atoms: C_20  and  N_21
REMARK                            x       y       z     vdW  Elec       q    Type
REMARK                         _______ _______ _______ _____ _____    ______ ____
ROOT
ATOM      1  O   UNL     1       0.483   4.744  20.455  0.00  0.00    +0.000 OA
ATOM      2  C   UNL     1       1.674   4.841  20.739  0.00  0.00    +0.000 C 
ATOM      3  N   UNL     1       2.480   5.950  20.541  0.00  0.00    +0.000 N 
ATOM      4  H   UNL     1       3.486   5.797  20.554  0.00  0.00    +0.000 HD
ENDROOT
BRANCH   3   5
ATOM      5  C   UNL     1       2.052   7.215  20.087  0.00  0.00    +0.000 A 
ATOM      6  C   UNL     1       2.317   7.688  18.801  0.00  0.00    +0.000 A 
ATOM      7  C   UNL     1       1.923   8.972  18.411  0.00  0.00    +0.000 A 
ATOM      8  C   UNL     1       1.253   9.808  19.309  0.00  0.00    +0.000 A 
ATOM      9  C   UNL     1       0.940   9.322  20.588  0.00  0.00    +0.000 A 
ATOM     10  C   UNL     1       1.327   8.028  20.966  0.00  0.00    +0.000 A 
BRANCH   8  11
ATOM     11  N   UNL     1       0.923  11.147  18.952  0.00  0.00    +0.000 N 
ATOM     12  C   UNL     1      -0.336  11.701  18.821  0.00  0.00    +0.000 A 
ATOM     13  C   UNL     1      -0.170  12.989  18.369  0.00  0.00    +0.000 A 
ATOM     14  C   UNL     1       1.219  13.149  18.275  0.00  0.00    +0.000 A 
ATOM     15  N   UNL     1       1.886  12.054  18.648  0.00  0.00    +0.000 NA
ENDBRANCH   8  11
ENDBRANCH   3   5
BRANCH   2  16
ATOM     16  C   UNL     1       2.403   3.644  21.317  0.00  0.00    +0.000 C 
BRANCH  16  17
ATOM     17  C   UNL     1       2.283   2.424  20.413  0.00  0.00    +0.000 C 
BRANCH  17  18
ATOM     18  C   UNL     1       2.531   2.758  18.993  0.00  0.00    +0.000 A 
ATOM     19  N   UNL     1       1.778   2.516  17.941  0.00  0.00    +0.000 NA
ATOM     20  N   UNL     1       2.472   2.994  16.854  0.00  0.00    +0.000 NA
ATOM     21  C   UNL     1       3.598   3.507  17.317  0.00  0.00    +0.000 A 
ATOM     22  O   UNL     1       3.705   3.386  18.681  0.00  0.00    +0.000 OA
BRANCH  21  23
ATOM     23  C   UNL     1       4.672   4.196  16.614  0.00  0.00    +0.000 A 
ATOM     24  C   UNL     1       5.481   3.480  15.717  0.00  0.00    +0.000 A 
ATOM     25  C   UNL     1       6.478   4.125  14.981  0.00  0.00    +0.000 A 
ATOM     26  C   UNL     1       6.683   5.494  15.138  0.00  0.00    +0.000 A 
ATOM     27  C   UNL     1       5.905   6.215  16.040  0.00  0.00    +0.000 A 
ATOM     28  C   UNL     1       4.908   5.570  16.777  0.00  0.00    +0.000 A 
ENDBRANCH  21  23
ENDBRANCH  17  18
ENDBRANCH  16  17
ENDBRANCH   2  16
TORSDOF 6
ENDMDL
MODEL 8
REMARK VINA RESULT:      -8.0      0.794      1.381
REMARK  Name = 
REMARK  6 active torsions:
REMARK  status: ('A' for Active; 'I' for Inactive)
REMARK    1  A    between atoms: C_2  and  C_3
REMARK    2  A    between atoms: C_3  and  C_4
REMARK    3  A    between atoms: C_4  and  C_5
REMARK    4  A    between atoms: C_8  and  C_9
REMARK    5  A    between atoms: N_16  and  C_17
REMARK    6  A    between atoms: C_20  and  N_21
REMARK                            x       y       z     vdW  Elec       q    Type
REMARK                         _______ _______ _______ _____ _____    ______ ____
ROOT
ATOM      1  O   UNL     1       1.671   4.783  18.569  0.00  0.00    +0.000 OA
ATOM      2  C   UNL     1       2.636   5.087  19.265  0.00  0.00    +0.000 C 
ATOM      3  N   UNL     1       3.003   6.366  19.649  0.00  0.00    +0.000 N 
ATOM      4  H   UNL     1       3.960   6.493  19.973  0.00  0.00    +0.000 HD
ENDROOT
BRANCH   3   5
ATOM      5  C   UNL     1       2.267   7.546  19.414  0.00  0.00    +0.000 A 
ATOM      6  C   UNL     1       2.224   8.176  18.169  0.00  0.00    +0.000 A 
ATOM      7  C   UNL     1       1.526   9.376  17.993  0.00  0.00    +0.000 A 
ATOM      8  C   UNL     1       0.857   9.967  19.069  0.00  0.00    +0.000 A 
ATOM      9  C   UNL     1       0.856   9.315  20.311  0.00  0.00    +0.000 A 
ATOM     10  C   UNL     1       1.546   8.105  20.476  0.00  0.00    +0.000 A 
BRANCH   8  11
ATOM     11  N   UNL     1       0.217  11.231  18.923  0.00  0.00    +0.000 N 
ATOM     12  C   UNL     1       0.813  12.464  18.738  0.00  0.00    +0.000 A 
ATOM     13  C   UNL     1      -0.188  13.406  18.747  0.00  0.00    +0.000 A 
ATOM     14  C   UNL     1      -1.363  12.664  18.918  0.00  0.00    +0.000 A 
ATOM     15  N   UNL     1      -1.133  11.351  19.000  0.00  0.00    +0.000 NA
ENDBRANCH   8  11
ENDBRANCH   3   5
BRANCH   2  16
ATOM     16  C   UNL     1       3.588   4.005  19.735  0.00  0.00    +0.000 C 
BRANCH  16  17
ATOM     17  C   UNL     1       4.077   3.145  18.577  0.00  0.00    +0.000 C 
BRANCH  17  18
ATOM     18  C   UNL     1       5.066   3.855  17.737  0.00  0.00    +0.000 A 
ATOM     19  N   UNL     1       5.973   4.740  18.093  0.00  0.00    +0.000 NA
ATOM     20  N   UNL     1       6.613   5.121  16.936  0.00  0.00    +0.000 NA
ATOM     21  C   UNL     1       6.061   4.433  15.952  0.00  0.00    +0.000 A 
ATOM     22  O   UNL     1       5.058   3.604  16.393  0.00  0.00    +0.000 OA
BRANCH  21  23
ATOM     23  C   UNL     1       6.391   4.401  14.534  0.00  0.00    +0.000 A 
ATOM     24  C   UNL     1       7.436   5.204  14.049  0.00  0.00    +0.000 A 
ATOM     25  C   UNL     1       7.818   5.148  12.706  0.00  0.00    +0.000 A 
ATOM     26  C   UNL     1       7.153   4.296  11.829  0.00  0.00    +0.000 A 
ATOM     27  C   UNL     1       6.098   3.510  12.287  0.00  0.00    +0.000 A 
ATOM     28  C   UNL     1       5.715   3.565  13.631  0.00  0.00    +0.000 A 
ENDBRANCH  21  23
ENDBRANCH  17  18
ENDBRANCH  16  17
ENDBRANCH   2  16
TORSDOF 6
ENDMDL
MODEL 9
REMARK VINA RESULT:      -8.0      6.294      7.991
REMARK  Name = 
REMARK  6 active torsions:
REMARK  status: ('A' for Active; 'I' for Inactive)
REMARK    1  A    between atoms: C_2  and  C_3
REMARK    2  A    between atoms: C_3  and  C_4
REMARK    3  A    between atoms: C_4  and  C_5
REMARK    4  A    between atoms: C_8  and  C_9
REMARK    5  A    between atoms: N_16  and  C_17
REMARK    6  A    between atoms: C_20  and  N_21
REMARK                            x       y       z     vdW  Elec       q    Type
REMARK                         _______ _______ _______ _____ _____    ______ ____
ROOT
ATOM      1  O   UNL     1       7.544   8.797  17.219  0.00  0.00    +0.000 OA
ATOM      2  C   UNL     1       8.067   8.211  18.164  0.00  0.00    +0.000 C 
ATOM      3  N   UNL     1       8.943   8.756  19.087  0.00  0.00    +0.000 N 
ATOM      4  H   UNL     1       9.508   8.104  19.627  0.00  0.00    +0.000 HD
ENDROOT
BRANCH   3   5
ATOM      5  C   UNL     1       9.303  10.117  19.186  0.00  0.00    +0.000 A 
ATOM      6  C   UNL     1       9.288  10.819  20.392  0.00  0.00    +0.000 A 
ATOM      7  C   UNL     1       9.598  12.182  20.435  0.00  0.00    +0.000 A 
ATOM      8  C   UNL     1       9.931  12.867  19.263  0.00  0.00    +0.000 A 
ATOM      9  C   UNL     1       9.996  12.157  18.054  0.00  0.00    +0.000 A 
ATOM     10  C   UNL     1       9.696  10.788  18.021  0.00  0.00    +0.000 A 
BRANCH   8  11
ATOM     11  N   UNL     1      10.165  14.273  19.281  0.00  0.00    +0.000 N 
ATOM     12  C   UNL     1      10.428  15.099  18.205  0.00  0.00    +0.000 A 
ATOM     13  C   UNL     1      10.680  16.354  18.708  0.00  0.00    +0.000 A 
ATOM     14  C   UNL     1      10.527  16.212  20.093  0.00  0.00    +0.000 A 
ATOM     15  N   UNL     1      10.192  14.968  20.446  0.00  0.00    +0.000 NA
ENDBRANCH   8  11
ENDBRANCH   3   5
BRANCH   2  16
ATOM     16  C   UNL     1       7.808   6.730  18.359  0.00  0.00    +0.000 C 
BRANCH  16  17
ATOM     17  C   UNL     1       6.994   6.146  17.211  0.00  0.00    +0.000 C 
BRANCH  17  18
ATOM     18  C   UNL     1       5.539   6.208  17.475  0.00  0.00    +0.000 A 
ATOM     19  N   UNL     1       4.692   7.184  17.226  0.00  0.00    +0.000 NA
ATOM     20  N   UNL     1       3.469   6.760  17.691  0.00  0.00    +0.000 NA
ATOM     21  C   UNL     1       3.649   5.547  18.183  0.00  0.00    +0.000 A 
ATOM     22  O   UNL     1       4.955   5.131  18.081  0.00  0.00    +0.000 OA
BRANCH  21  23
ATOM     23  C   UNL     1       2.684   4.613  18.748  0.00  0.00    +0.000 A 
ATOM     24  C   UNL     1       2.149   4.861  20.022  0.00  0.00    +0.000 A 
ATOM     25  C   UNL     1       1.175   4.019  20.565  0.00  0.00    +0.000 A 
ATOM     26  C   UNL     1       0.730   2.914  19.844  0.00  0.00    +0.000 A 
ATOM     27  C   UNL     1       1.268   2.640  18.589  0.00  0.00    +0.000 A 
ATOM     28  C   UNL     1       2.242   3.482  18.045  0.00  0.00    +0.000 A 
ENDBRANCH  21  23
ENDBRANCH  17  18
ENDBRANCH  16  17
ENDBRANCH   2  16
TORSDOF 6
ENDMDL
