MODEL 1
REMARK VINA RESULT:      -8.2      0.000      0.000
REMARK  Name = 
REMARK  5 active torsions:
REMARK  status: ('A' for Active; 'I' for Inactive)
REMARK    1  A    between atoms: C_1  and  C_2
REMARK    2  A    between atoms: C_5  and  C_6
REMARK    3  A    between atoms: C_11  and  C_12
REMARK    4  A    between atoms: N_17  and  C_18
REMARK    5  A    between atoms: C_18  and  C_19
REMARK                            x       y       z     vdW  Elec       q    Type
REMARK                         _______ _______ _______ _____ _____    ______ ____
ROOT
ATOM      1  C   UNL     1       2.194   5.602  20.010  0.00  0.00    +0.000 C 
ATOM      2  O   UNL     1       2.047   5.314  21.193  0.00  0.00    +0.000 OA
ATOM      3  N   UNL     1       2.162   6.925  19.541  0.00  0.00    +0.000 N 
ATOM      4  C   UNL     1       2.411   7.364  18.173  0.00  0.00    +0.000 C 
ATOM      5  C   UNL     1       1.438   8.447  17.751  0.00  0.00    +0.000 C 
ATOM      6  N   UNL     1       1.343   9.554  18.684  0.00  0.00    +0.000 N 
ATOM      7  C   UNL     1       1.488   9.348  20.055  0.00  0.00    +0.000 C 
ATOM      8  O   UNL     1       1.237  10.235  20.875  0.00  0.00    +0.000 OA
ATOM      9  C   UNL     1       2.126   8.016  20.522  0.00  0.00    +0.000 C 
ENDROOT
BRANCH   1  15
ATOM     10  C   UNL     1       3.713   4.220  18.493  0.00  0.00    +0.000 A 
ATOM     11  C   UNL     1       3.833   3.130  17.599  0.00  0.00    +0.000 A 
ATOM     12  C   UNL     1       2.747   2.299  17.309  0.00  0.00    +0.000 A 
ATOM     13  C   UNL     1       1.500   2.588  17.840  0.00  0.00    +0.000 A 
ATOM     14  C   UNL     1       1.343   3.710  18.651  0.00  0.00    +0.000 A 
ATOM     15  C   UNL     1       2.452   4.483  19.053  0.00  0.00    +0.000 A 
BRANCH  10  20
ATOM     16  C   UNL     1       7.737   7.035  18.194  0.00  0.00    +0.000 C 
ATOM     17  C   UNL     1       6.714   6.086  18.678  0.00  0.00    +0.000 A 
ATOM     18  N   UNL     1       6.842   5.399  19.822  0.00  0.00    +0.000 NA
ATOM     19  O   UNL     1       5.657   4.654  19.878  0.00  0.00    +0.000 OA
ATOM     20  C   UNL     1       4.939   4.971  18.760  0.00  0.00    +0.000 A 
ATOM     21  N   UNL     1       5.569   5.826  17.973  0.00  0.00    +0.000 NA
ENDBRANCH  10  20
ENDBRANCH   1  15
BRANCH   6  22
ATOM     22  C   UNL     1       0.658  10.747  18.201  0.00  0.00    +0.000 C 
BRANCH  22  23
ATOM     23  C   UNL     1      -0.849  10.625  18.182  0.00  0.00    +0.000 A 
ATOM     24  C   UNL     1      -1.481   9.761  17.273  0.00  0.00    +0.000 A 
ATOM     25  C   UNL     1      -2.874   9.746  17.151  0.00  0.00    +0.000 A 
ATOM     26  C   UNL     1      -3.653  10.587  17.942  0.00  0.00    +0.000 A 
ATOM     27  C   UNL     1      -3.034  11.421  18.863  0.00  0.00    +0.000 A 
ATOM     28  F   UNL     1      -3.781  12.237  19.622  0.00  0.00    +0.000 F 
ATOM     29  C   UNL     1      -1.647  11.446  18.993  0.00  0.00    +0.000 A 
ENDBRANCH  22  23
ENDBRANCH   6  22
TORSDOF 4
ENDMDL
MODEL 2
REMARK VINA RESULT:      -8.1      4.882      8.249
REMARK  Name = 
REMARK  5 active torsions:
REMARK  status: ('A' for Active; 'I' for Inactive)
REMARK    1  A    between atoms: C_1  and  C_2
REMARK    2  A    between atoms: C_5  and  C_6
REMARK    3  A    between atoms: C_11  and  C_12
REMARK    4  A    between atoms: N_17  and  C_18
REMARK    5  A    between atoms: C_18  and  C_19
REMARK                            x       y       z     vdW  Elec       q    Type
REMARK                         _______ _______ _______ _____ _____    ______ ____
ROOT
ATOM      1  C   UNL     1       5.062   4.723  19.119  0.00  0.00    +0.000 C 
ATOM      2  O   UNL     1       5.858   5.274  19.872  0.00  0.00    +0.000 OA
ATOM      3  N   UNL     1       5.339   4.487  17.763  0.00  0.00    +0.000 N 
ATOM      4  C   UNL     1       4.492   3.767  16.820  0.00  0.00    +0.000 C 
ATOM      5  C   UNL     1       4.458   4.452  15.468  0.00  0.00    +0.000 C 
ATOM      6  N   UNL     1       5.769   4.751  14.924  0.00  0.00    +0.000 N 
ATOM      7  C   UNL     1       6.834   5.081  15.762  0.00  0.00    +0.000 C 
ATOM      8  O   UNL     1       7.901   5.510  15.318  0.00  0.00    +0.000 OA
ATOM      9  C   UNL     1       6.696   4.748  17.268  0.00  0.00    +0.000 C 
ENDROOT
BRANCH   1  15
ATOM     10  C   UNL     1       2.611   5.066  19.744  0.00  0.00    +0.000 A 
ATOM     11  C   UNL     1       1.439   4.519  20.321  0.00  0.00    +0.000 A 
ATOM     12  C   UNL     1       1.400   3.204  20.792  0.00  0.00    +0.000 A 
ATOM     13  C   UNL     1       2.553   2.434  20.774  0.00  0.00    +0.000 A 
ATOM     14  C   UNL     1       3.738   2.985  20.294  0.00  0.00    +0.000 A 
ATOM     15  C   UNL     1       3.764   4.264  19.701  0.00  0.00    +0.000 A 
BRANCH  10  20
ATOM     16  C   UNL     1       1.496   9.800  19.002  0.00  0.00    +0.000 C 
ATOM     17  C   UNL     1       1.994   8.422  18.810  0.00  0.00    +0.000 A 
ATOM     18  N   UNL     1       2.518   7.992  17.654  0.00  0.00    +0.000 NA
ATOM     19  O   UNL     1       2.856   6.662  17.935  0.00  0.00    +0.000 OA
ATOM     20  C   UNL     1       2.499   6.430  19.233  0.00  0.00    +0.000 A 
ATOM     21  N   UNL     1       1.932   7.480  19.802  0.00  0.00    +0.000 NA
ENDBRANCH  10  20
ENDBRANCH   1  15
BRANCH   6  22
ATOM     22  C   UNL     1       5.811   5.136  13.517  0.00  0.00    +0.000 C 
BRANCH  22  23
ATOM     23  C   UNL     1       5.774   3.967  12.559  0.00  0.00    +0.000 A 
ATOM     24  C   UNL     1       4.550   3.492  12.065  0.00  0.00    +0.000 A 
ATOM     25  C   UNL     1       4.494   2.326  11.293  0.00  0.00    +0.000 A 
ATOM     26  C   UNL     1       5.664   1.628  10.998  0.00  0.00    +0.000 A 
ATOM     27  C   UNL     1       6.880   2.112  11.460  0.00  0.00    +0.000 A 
ATOM     28  F   UNL     1       8.007   1.439  11.183  0.00  0.00    +0.000 F 
ATOM     29  C   UNL     1       6.948   3.271  12.231  0.00  0.00    +0.000 A 
ENDBRANCH  22  23
ENDBRANCH   6  22
TORSDOF 4
ENDMDL
MODEL 3
REMARK VINA RESULT:      -8.1      4.455      7.974
REMARK  Name = 
REMARK  5 active torsions:
REMARK  status: ('A' for Active; 'I' for Inactive)
REMARK    1  A    between atoms: C_1  and  C_2
REMARK    2  A    between atoms: C_5  and  C_6
REMARK    3  A    between atoms: C_11  and  C_12
REMARK    4  A    between atoms: N_17  and  C_18
REMARK    5  A    between atoms: C_18  and  C_19
REMARK                            x       y       z     vdW  Elec       q    Type
REMARK                         _______ _______ _______ _____ _____    ______ ____
ROOT
ATOM      1  C   UNL     1       5.033   4.847  19.156  0.00  0.00    +0.000 C 
ATOM      2  O   UNL     1       5.795   5.451  19.903  0.00  0.00    +0.000 OA
ATOM      3  N   UNL     1       5.362   4.535  17.827  0.00  0.00    +0.000 N 
ATOM      4  C   UNL     1       4.557   3.750  16.899  0.00  0.00    +0.000 C 
ATOM      5  C   UNL     1       4.565   4.353  15.509  0.00  0.00    +0.000 C 
ATOM      6  N   UNL     1       5.892   4.636  14.995  0.00  0.00    +0.000 N 
ATOM      7  C   UNL     1       6.922   5.029  15.849  0.00  0.00    +0.000 C 
ATOM      8  O   UNL     1       8.001   5.444  15.419  0.00  0.00    +0.000 OA
ATOM      9  C   UNL     1       6.733   4.783  17.367  0.00  0.00    +0.000 C 
ENDROOT
BRANCH   1  15
ATOM     10  C   UNL     1       2.572   5.218  19.725  0.00  0.00    +0.000 A 
ATOM     11  C   UNL     1       1.385   4.688  20.284  0.00  0.00    +0.000 A 
ATOM     12  C   UNL     1       1.326   3.381  20.775  0.00  0.00    +0.000 A 
ATOM     13  C   UNL     1       2.472   2.603  20.793  0.00  0.00    +0.000 A 
ATOM     14  C   UNL     1       3.672   3.138  20.330  0.00  0.00    +0.000 A 
ATOM     15  C   UNL     1       3.720   4.407  19.718  0.00  0.00    +0.000 A 
BRANCH  10  20
ATOM     16  C   UNL     1       1.512   9.949  18.888  0.00  0.00    +0.000 C 
ATOM     17  C   UNL     1       2.001   8.564  18.727  0.00  0.00    +0.000 A 
ATOM     18  N   UNL     1       2.544   8.111  17.588  0.00  0.00    +0.000 NA
ATOM     19  O   UNL     1       2.865   6.783  17.896  0.00  0.00    +0.000 OA
ATOM     20  C   UNL     1       2.482   6.575  19.190  0.00  0.00    +0.000 A 
ATOM     21  N   UNL     1       1.913   7.638  19.732  0.00  0.00    +0.000 NA
ENDBRANCH  10  20
ENDBRANCH   1  15
BRANCH   6  22
ATOM     22  C   UNL     1       5.981   4.938  13.570  0.00  0.00    +0.000 C 
BRANCH  22  23
ATOM     23  C   UNL     1       5.624   3.775  12.673  0.00  0.00    +0.000 A 
ATOM     24  C   UNL     1       6.569   2.774  12.396  0.00  0.00    +0.000 A 
ATOM     25  C   UNL     1       6.297   1.773  11.458  0.00  0.00    +0.000 A 
ATOM     26  C   UNL     1       5.074   1.755  10.792  0.00  0.00    +0.000 A 
ATOM     27  C   UNL     1       4.125   2.725  11.085  0.00  0.00    +0.000 A 
ATOM     28  F   UNL     1       2.949   2.714  10.440  0.00  0.00    +0.000 F 
ATOM     29  C   UNL     1       4.385   3.728  12.016  0.00  0.00    +0.000 A 
ENDBRANCH  22  23
ENDBRANCH   6  22
TORSDOF 4
ENDMDL
MODEL 4
REMARK VINA RESULT:      -8.0      2.697      3.723
REMARK  Name = 
REMARK  5 active torsions:
REMARK  status: ('A' for Active; 'I' for Inactive)
REMARK    1  A    between atoms: C_1  and  C_2
REMARK    2  A    between atoms: C_5  and  C_6
REMARK    3  A    between atoms: C_11  and  C_12
REMARK    4  A    between atoms: N_17  and  C_18
REMARK    5  A    between atoms: C_18  and  C_19
REMARK                            x       y       z     vdW  Elec       q    Type
REMARK                         _______ _______ _______ _____ _____    ______ ____
ROOT
ATOM      1  C   UNL     1       4.542   4.996  18.000  0.00  0.00    +0.000 C 
ATOM      2  O   UNL     1       4.547   4.046  18.776  0.00  0.00    +0.000 OA
ATOM      3  N   UNL     1       3.901   6.211  18.292  0.00  0.00    +0.000 N 
ATOM      4  C   UNL     1       3.917   7.416  17.471  0.00  0.00    +0.000 C 
ATOM      5  C   UNL     1       2.554   8.076  17.425  0.00  0.00    +0.000 C 
ATOM      6  N   UNL     1       1.960   8.298  18.730  0.00  0.00    +0.000 N 
ATOM      7  C   UNL     1       2.186   7.409  19.780  0.00  0.00    +0.000 C 
ATOM      8  O   UNL     1       1.556   7.478  20.838  0.00  0.00    +0.000 OA
ATOM      9  C   UNL     1       3.368   6.417  19.643  0.00  0.00    +0.000 C 
ENDROOT
BRANCH   1  15
ATOM     10  C   UNL     1       6.457   5.554  16.406  0.00  0.00    +0.000 A 
ATOM     11  C   UNL     1       7.072   5.320  15.153  0.00  0.00    +0.000 A 
ATOM     12  C   UNL     1       6.568   4.374  14.256  0.00  0.00    +0.000 A 
ATOM     13  C   UNL     1       5.394   3.701  14.555  0.00  0.00    +0.000 A 
ATOM     14  C   UNL     1       4.725   3.984  15.743  0.00  0.00    +0.000 A 
ATOM     15  C   UNL     1       5.285   4.841  16.712  0.00  0.00    +0.000 A 
BRANCH  10  20
ATOM     16  C   UNL     1       8.627   9.527  18.331  0.00  0.00    +0.000 C 
ATOM     17  C   UNL     1       8.131   8.150  18.130  0.00  0.00    +0.000 A 
ATOM     18  N   UNL     1       8.413   7.145  18.971  0.00  0.00    +0.000 NA
ATOM     19  O   UNL     1       7.738   6.057  18.402  0.00  0.00    +0.000 OA
ATOM     20  C   UNL     1       7.120   6.522  17.277  0.00  0.00    +0.000 A 
ATOM     21  N   UNL     1       7.362   7.801  17.052  0.00  0.00    +0.000 NA
ENDBRANCH  10  20
ENDBRANCH   1  15
BRANCH   6  22
ATOM     22  C   UNL     1       0.800   9.182  18.769  0.00  0.00    +0.000 C 
BRANCH  22  23
ATOM     23  C   UNL     1       1.112  10.584  19.239  0.00  0.00    +0.000 A 
ATOM     24  C   UNL     1       0.599  11.057  20.457  0.00  0.00    +0.000 A 
ATOM     25  C   UNL     1       0.763  12.394  20.832  0.00  0.00    +0.000 A 
ATOM     26  C   UNL     1       1.450  13.274  19.998  0.00  0.00    +0.000 A 
ATOM     27  C   UNL     1       1.984  12.803  18.806  0.00  0.00    +0.000 A 
ATOM     28  F   UNL     1       2.640  13.649  17.998  0.00  0.00    +0.000 F 
ATOM     29  C   UNL     1       1.826  11.473  18.421  0.00  0.00    +0.000 A 
ENDBRANCH  22  23
ENDBRANCH   6  22
TORSDOF 4
ENDMDL
MODEL 5
REMARK VINA RESULT:      -7.9      4.875      8.462
REMARK  Name = 
REMARK  5 active torsions:
REMARK  status: ('A' for Active; 'I' for Inactive)
REMARK    1  A    between atoms: C_1  and  C_2
REMARK    2  A    between atoms: C_5  and  C_6
REMARK    3  A    between atoms: C_11  and  C_12
REMARK    4  A    between atoms: N_17  and  C_18
REMARK    5  A    between atoms: C_18  and  C_19
REMARK                            x       y       z     vdW  Elec       q    Type
REMARK                         _______ _______ _______ _____ _____    ______ ____
ROOT
ATOM      1  C   UNL     1       5.086   4.824  19.107  0.00  0.00    +0.000 C 
ATOM      2  O   UNL     1       5.897   5.464  19.769  0.00  0.00    +0.000 OA
ATOM      3  N   UNL     1       5.310   4.471  17.767  0.00  0.00    +0.000 N 
ATOM      4  C   UNL     1       4.445   3.643  16.935  0.00  0.00    +0.000 C 
ATOM      5  C   UNL     1       4.329   4.199  15.529  0.00  0.00    +0.000 C 
ATOM      6  N   UNL     1       5.605   4.482  14.899  0.00  0.00    +0.000 N 
ATOM      7  C   UNL     1       6.695   4.917  15.652  0.00  0.00    +0.000 C 
ATOM      8  O   UNL     1       7.728   5.332  15.121  0.00  0.00    +0.000 OA
ATOM      9  C   UNL     1       6.634   4.722  17.187  0.00  0.00    +0.000 C 
ENDROOT
BRANCH   1  15
ATOM     10  C   UNL     1       2.676   5.184  19.870  0.00  0.00    +0.000 A 
ATOM     11  C   UNL     1       1.547   4.658  20.542  0.00  0.00    +0.000 A 
ATOM     12  C   UNL     1       1.547   3.365  21.072  0.00  0.00    +0.000 A 
ATOM     13  C   UNL     1       2.701   2.600  21.015  0.00  0.00    +0.000 A 
ATOM     14  C   UNL     1       3.850   3.135  20.438  0.00  0.00    +0.000 A 
ATOM     15  C   UNL     1       3.830   4.386  19.789  0.00  0.00    +0.000 A 
BRANCH  10  20
ATOM     16  C   UNL     1       1.455   9.865  18.974  0.00  0.00    +0.000 C 
ATOM     17  C   UNL     1       1.969   8.488  18.821  0.00  0.00    +0.000 A 
ATOM     18  N   UNL     1       2.461   8.019  17.666  0.00  0.00    +0.000 NA
ATOM     19  O   UNL     1       2.831   6.707  17.989  0.00  0.00    +0.000 OA
ATOM     20  C   UNL     1       2.523   6.524  19.307  0.00  0.00    +0.000 A 
ATOM     21  N   UNL     1       1.958   7.587  19.852  0.00  0.00    +0.000 NA
ENDBRANCH  10  20
ENDBRANCH   1  15
BRANCH   6  22
ATOM     22  C   UNL     1       5.572   4.735  13.462  0.00  0.00    +0.000 C 
BRANCH  22  23
ATOM     23  C   UNL     1       6.170   3.625  12.629  0.00  0.00    +0.000 A 
ATOM     24  C   UNL     1       7.445   3.770  12.060  0.00  0.00    +0.000 A 
ATOM     25  C   UNL     1       7.947   2.812  11.174  0.00  0.00    +0.000 A 
ATOM     26  C   UNL     1       7.184   1.691  10.852  0.00  0.00    +0.000 A 
ATOM     27  C   UNL     1       5.935   1.529  11.436  0.00  0.00    +0.000 A 
ATOM     28  F   UNL     1       5.195   0.454  11.124  0.00  0.00    +0.000 F 
ATOM     29  C   UNL     1       5.424   2.477  12.319  0.00  0.00    +0.000 A 
ENDBRANCH  22  23
ENDBRANCH   6  22
TORSDOF 4
ENDMDL
MODEL 6
REMARK VINA RESULT:      -7.8      2.556      3.626
REMARK  Name = 
REMARK  5 active torsions:
REMARK  status: ('A' for Active; 'I' for Inactive)
REMARK    1  A    between atoms: C_1  and  C_2
REMARK    2  A    between atoms: C_5  and  C_6
REMARK    3  A    between atoms: C_11  and  C_12
REMARK    4  A    between atoms: N_17  and  C_18
REMARK    5  A    between atoms: C_18  and  C_19
REMARK                            x       y       z     vdW  Elec       q    Type
REMARK                         _______ _______ _______ _____ _____    ______ ____
ROOT
ATOM      1  C   UNL     1       4.586   4.994  17.980  0.00  0.00    +0.000 C 
ATOM      2  O   UNL     1       4.594   4.048  18.760  0.00  0.00    +0.000 OA
ATOM      3  N   UNL     1       3.932   6.205  18.262  0.00  0.00    +0.000 N 
ATOM      4  C   UNL     1       3.943   7.406  17.436  0.00  0.00    +0.000 C 
ATOM      5  C   UNL     1       2.574   8.053  17.379  0.00  0.00    +0.000 C 
ATOM      6  N   UNL     1       1.971   8.276  18.679  0.00  0.00    +0.000 N 
ATOM      7  C   UNL     1       2.198   7.393  19.734  0.00  0.00    +0.000 C 
ATOM      8  O   UNL     1       1.560   7.462  20.788  0.00  0.00    +0.000 OA
ATOM      9  C   UNL     1       3.389   6.411  19.609  0.00  0.00    +0.000 C 
ENDROOT
BRANCH   1  15
ATOM     10  C   UNL     1       6.506   5.560  16.396  0.00  0.00    +0.000 A 
ATOM     11  C   UNL     1       7.131   5.326  15.147  0.00  0.00    +0.000 A 
ATOM     12  C   UNL     1       6.641   4.373  14.251  0.00  0.00    +0.000 A 
ATOM     13  C   UNL     1       5.469   3.693  14.545  0.00  0.00    +0.000 A 
ATOM     14  C   UNL     1       4.790   3.975  15.727  0.00  0.00    +0.000 A 
ATOM     15  C   UNL     1       5.338   4.839  16.697  0.00  0.00    +0.000 A 
BRANCH  10  20
ATOM     16  C   UNL     1       8.632   9.557  18.321  0.00  0.00    +0.000 C 
ATOM     17  C   UNL     1       8.150   8.175  18.121  0.00  0.00    +0.000 A 
ATOM     18  N   UNL     1       8.437   7.175  18.966  0.00  0.00    +0.000 NA
ATOM     19  O   UNL     1       7.774   6.079  18.397  0.00  0.00    +0.000 OA
ATOM     20  C   UNL     1       7.157   6.536  17.267  0.00  0.00    +0.000 A 
ATOM     21  N   UNL     1       7.389   7.817  17.040  0.00  0.00    +0.000 NA
ENDBRANCH  10  20
ENDBRANCH   1  15
BRANCH   6  22
ATOM     22  C   UNL     1       0.802   9.149  18.707  0.00  0.00    +0.000 C 
BRANCH  22  23
ATOM     23  C   UNL     1       1.122  10.594  19.018  0.00  0.00    +0.000 A 
ATOM     24  C   UNL     1       1.968  11.332  18.176  0.00  0.00    +0.000 A 
ATOM     25  C   UNL     1       2.383  12.620  18.530  0.00  0.00    +0.000 A 
ATOM     26  C   UNL     1       1.949  13.190  19.725  0.00  0.00    +0.000 A 
ATOM     27  C   UNL     1       1.088  12.474  20.545  0.00  0.00    +0.000 A 
ATOM     28  F   UNL     1       0.673  13.017  21.700  0.00  0.00    +0.000 F 
ATOM     29  C   UNL     1       0.669  11.190  20.205  0.00  0.00    +0.000 A 
ENDBRANCH  22  23
ENDBRANCH   6  22
TORSDOF 4
ENDMDL
MODEL 7
REMARK VINA RESULT:      -7.8      2.047      2.829
REMARK  Name = 
REMARK  5 active torsions:
REMARK  status: ('A' for Active; 'I' for Inactive)
REMARK    1  A    between atoms: C_1  and  C_2
REMARK    2  A    between atoms: C_5  and  C_6
REMARK    3  A    between atoms: C_11  and  C_12
REMARK    4  A    between atoms: N_17  and  C_18
REMARK    5  A    between atoms: C_18  and  C_19
REMARK                            x       y       z     vdW  Elec       q    Type
REMARK                         _______ _______ _______ _____ _____    ______ ____
ROOT
ATOM      1  C   UNL     1       2.401   5.508  20.006  0.00  0.00    +0.000 C 
ATOM      2  O   UNL     1       2.362   5.168  21.184  0.00  0.00    +0.000 OA
ATOM      3  N   UNL     1       2.216   6.837  19.593  0.00  0.00    +0.000 N 
ATOM      4  C   UNL     1       2.331   7.343  18.229  0.00  0.00    +0.000 C 
ATOM      5  C   UNL     1       1.237   8.343  17.915  0.00  0.00    +0.000 C 
ATOM      6  N   UNL     1       1.107   9.405  18.894  0.00  0.00    +0.000 N 
ATOM      7  C   UNL     1       1.364   9.169  20.244  0.00  0.00    +0.000 C 
ATOM      8  O   UNL     1       1.091  10.001  21.113  0.00  0.00    +0.000 OA
ATOM      9  C   UNL     1       2.150   7.887  20.615  0.00  0.00    +0.000 C 
ENDROOT
BRANCH   1  15
ATOM     10  C   UNL     1       3.961   4.252  18.424  0.00  0.00    +0.000 A 
ATOM     11  C   UNL     1       4.113   3.215  17.472  0.00  0.00    +0.000 A 
ATOM     12  C   UNL     1       3.051   2.372  17.132  0.00  0.00    +0.000 A 
ATOM     13  C   UNL     1       1.796   2.598  17.673  0.00  0.00    +0.000 A 
ATOM     14  C   UNL     1       1.606   3.670  18.542  0.00  0.00    +0.000 A 
ATOM     15  C   UNL     1       2.691   4.450  18.991  0.00  0.00    +0.000 A 
BRANCH  10  20
ATOM     16  C   UNL     1       7.904   7.192  18.297  0.00  0.00    +0.000 C 
ATOM     17  C   UNL     1       6.908   6.187  18.722  0.00  0.00    +0.000 A 
ATOM     18  N   UNL     1       7.055   5.438  19.825  0.00  0.00    +0.000 NA
ATOM     19  O   UNL     1       5.891   4.658  19.835  0.00  0.00    +0.000 OA
ATOM     20  C   UNL     1       5.165   5.019  18.736  0.00  0.00    +0.000 A 
ATOM     21  N   UNL     1       5.771   5.936  18.002  0.00  0.00    +0.000 NA
ENDBRANCH  10  20
ENDBRANCH   1  15
BRANCH   6  22
ATOM     22  C   UNL     1       0.285  10.546  18.504  0.00  0.00    +0.000 C 
BRANCH  22  23
ATOM     23  C   UNL     1       0.950  11.886  18.722  0.00  0.00    +0.000 A 
ATOM     24  C   UNL     1       0.227  12.959  19.265  0.00  0.00    +0.000 A 
ATOM     25  C   UNL     1       0.789  14.237  19.338  0.00  0.00    +0.000 A 
ATOM     26  C   UNL     1       2.086  14.456  18.878  0.00  0.00    +0.000 A 
ATOM     27  C   UNL     1       2.816  13.391  18.368  0.00  0.00    +0.000 A 
ATOM     28  F   UNL     1       4.062  13.600  17.918  0.00  0.00    +0.000 F 
ATOM     29  C   UNL     1       2.266  12.114  18.288  0.00  0.00    +0.000 A 
ENDBRANCH  22  23
ENDBRANCH   6  22
TORSDOF 4
ENDMDL
MODEL 8
REMARK VINA RESULT:      -7.7      1.663      2.508
REMARK  Name = 
REMARK  5 active torsions:
REMARK  status: ('A' for Active; 'I' for Inactive)
REMARK    1  A    between atoms: C_1  and  C_2
REMARK    2  A    between atoms: C_5  and  C_6
REMARK    3  A    between atoms: C_11  and  C_12
REMARK    4  A    between atoms: N_17  and  C_18
REMARK    5  A    between atoms: C_18  and  C_19
REMARK                            x       y       z     vdW  Elec       q    Type
REMARK                         _______ _______ _______ _____ _____    ______ ____
ROOT
ATOM      1  C   UNL     1       2.387   5.491  20.032  0.00  0.00    +0.000 C 
ATOM      2  O   UNL     1       2.370   5.151  21.211  0.00  0.00    +0.000 OA
ATOM      3  N   UNL     1       2.188   6.819  19.623  0.00  0.00    +0.000 N 
ATOM      4  C   UNL     1       2.276   7.326  18.259  0.00  0.00    +0.000 C 
ATOM      5  C   UNL     1       1.171   8.320  17.963  0.00  0.00    +0.000 C 
ATOM      6  N   UNL     1       1.051   9.381  18.945  0.00  0.00    +0.000 N 
ATOM      7  C   UNL     1       1.332   9.145  20.290  0.00  0.00    +0.000 C 
ATOM      8  O   UNL     1       1.068   9.975  21.164  0.00  0.00    +0.000 OA
ATOM      9  C   UNL     1       2.132   7.868  20.647  0.00  0.00    +0.000 C 
ENDROOT
BRANCH   1  15
ATOM     10  C   UNL     1       3.931   4.244  18.426  0.00  0.00    +0.000 A 
ATOM     11  C   UNL     1       4.073   3.209  17.471  0.00  0.00    +0.000 A 
ATOM     12  C   UNL     1       3.011   2.361  17.146  0.00  0.00    +0.000 A 
ATOM     13  C   UNL     1       1.762   2.581  17.706  0.00  0.00    +0.000 A 
ATOM     14  C   UNL     1       1.580   3.650  18.579  0.00  0.00    +0.000 A 
ATOM     15  C   UNL     1       2.668   4.435  19.012  0.00  0.00    +0.000 A 
BRANCH  10  20
ATOM     16  C   UNL     1       7.878   7.174  18.234  0.00  0.00    +0.000 C 
ATOM     17  C   UNL     1       6.880   6.181  18.682  0.00  0.00    +0.000 A 
ATOM     18  N   UNL     1       7.024   5.459  19.803  0.00  0.00    +0.000 NA
ATOM     19  O   UNL     1       5.859   4.681  19.830  0.00  0.00    +0.000 OA
ATOM     20  C   UNL     1       5.135   5.017  18.721  0.00  0.00    +0.000 A 
ATOM     21  N   UNL     1       5.743   5.915  17.966  0.00  0.00    +0.000 NA
ENDBRANCH  10  20
ENDBRANCH   1  15
BRANCH   6  22
ATOM     22  C   UNL     1       0.215  10.516  18.569  0.00  0.00    +0.000 C 
BRANCH  22  23
ATOM     23  C   UNL     1       0.945  11.839  18.556  0.00  0.00    +0.000 A 
ATOM     24  C   UNL     1       2.280  11.910  18.128  0.00  0.00    +0.000 A 
ATOM     25  C   UNL     1       3.007  13.099  18.245  0.00  0.00    +0.000 A 
ATOM     26  C   UNL     1       2.405  14.235  18.783  0.00  0.00    +0.000 A 
ATOM     27  C   UNL     1       1.076  14.177  19.179  0.00  0.00    +0.000 A 
ATOM     28  F   UNL     1       0.495  15.267  19.703  0.00  0.00    +0.000 F 
ATOM     29  C   UNL     1       0.342  12.998  19.068  0.00  0.00    +0.000 A 
ENDBRANCH  22  23
ENDBRANCH   6  22
TORSDOF 4
ENDMDL
MODEL 9
REMARK VINA RESULT:      -7.7      2.385      2.941
REMARK  Name = 
REMARK  5 active torsions:
REMARK  status: ('A' for Active; 'I' for Inactive)
REMARK    1  A    between atoms: C_1  and  C_2
REMARK    2  A    between atoms: C_5  and  C_6
REMARK    3  A    between atoms: C_11  and  C_12
REMARK    4  A    between atoms: N_17  and  C_18
REMARK    5  A    between atoms: C_18  and  C_19
REMARK                            x       y       z     vdW  Elec       q    Type
REMARK                         _______ _______ _______ _____ _____    ______ ____
ROOT
ATOM      1  C   UNL     1       2.618   6.531  18.974  0.00  0.00    +0.000 C 
ATOM      2  O   UNL     1       3.251   6.613  17.927  0.00  0.00    +0.000 OA
ATOM      3  N   UNL     1       1.847   7.591  19.479  0.00  0.00    +0.000 N 
ATOM      4  C   UNL     1       0.998   7.553  20.664  0.00  0.00    +0.000 C 
ATOM      5  C   UNL     1       1.124   8.825  21.478  0.00  0.00    +0.000 C 
ATOM      6  N   UNL     1       0.951  10.041  20.706  0.00  0.00    +0.000 N 
ATOM      7  C   UNL     1       1.366  10.110  19.376  0.00  0.00    +0.000 C 
ATOM      8  O   UNL     1       1.393  11.177  18.758  0.00  0.00    +0.000 OA
ATOM      9  C   UNL     1       1.649   8.777  18.639  0.00  0.00    +0.000 C 
ENDROOT
BRANCH   1  15
ATOM     10  C   UNL     1       3.780   4.384  19.718  0.00  0.00    +0.000 A 
ATOM     11  C   UNL     1       3.697   3.174  20.449  0.00  0.00    +0.000 A 
ATOM     12  C   UNL     1       2.556   2.839  21.182  0.00  0.00    +0.000 A 
ATOM     13  C   UNL     1       1.443   3.664  21.135  0.00  0.00    +0.000 A 
ATOM     14  C   UNL     1       1.474   4.813  20.349  0.00  0.00    +0.000 A 
ATOM     15  C   UNL     1       2.657   5.228  19.705  0.00  0.00    +0.000 A 
BRANCH  10  20
ATOM     16  C   UNL     1       7.561   4.558  16.574  0.00  0.00    +0.000 C 
ATOM     17  C   UNL     1       6.732   4.684  17.791  0.00  0.00    +0.000 A 
ATOM     18  N   UNL     1       7.223   5.106  18.965  0.00  0.00    +0.000 NA
ATOM     19  O   UNL     1       6.101   5.079  19.805  0.00  0.00    +0.000 OA
ATOM     20  C   UNL     1       5.052   4.643  19.047  0.00  0.00    +0.000 A 
ATOM     21  N   UNL     1       5.403   4.356  17.806  0.00  0.00    +0.000 NA
ENDBRANCH  10  20
ENDBRANCH   1  15
BRANCH   6  22
ATOM     22  C   UNL     1       0.770  11.271  21.470  0.00  0.00    +0.000 C 
BRANCH  22  23
ATOM     23  C   UNL     1      -0.673  11.695  21.618  0.00  0.00    +0.000 A 
ATOM     24  C   UNL     1      -1.329  12.361  20.571  0.00  0.00    +0.000 A 
ATOM     25  C   UNL     1      -2.615  12.883  20.749  0.00  0.00    +0.000 A 
ATOM     26  C   UNL     1      -3.265  12.735  21.973  0.00  0.00    +0.000 A 
ATOM     27  C   UNL     1      -2.631  12.051  23.000  0.00  0.00    +0.000 A 
ATOM     28  F   UNL     1      -3.251  11.913  24.182  0.00  0.00    +0.000 F 
ATOM     29  C   UNL     1      -1.350  11.528  22.836  0.00  0.00    +0.000 A 
ENDBRANCH  22  23
ENDBRANCH   6  22
TORSDOF 4
ENDMDL
