MODEL 1
REMARK VINA RESULT:      -8.4      0.000      0.000
REMARK  Name = 
REMARK  3 active torsions:
REMARK  status: ('A' for Active; 'I' for Inactive)
REMARK    1  A    between atoms: C_7  and  S_8
REMARK    2  A    between atoms: S_8  and  N_11
REMARK    3  A    between atoms: C_14  and  C_15
REMARK                            x       y       z     vdW  Elec       q    Type
REMARK                         _______ _______ _______ _____ _____    ______ ____
ROOT
ATOM      1  S   UNL     1       1.904   5.446  19.592  0.00  0.00    +0.000 S 
ATOM      2  O   UNL     1       0.769   5.151  20.440  0.00  0.00    +0.000 OA
ATOM      3  O   UNL     1       2.103   4.729  18.349  0.00  0.00    +0.000 OA
ENDROOT
BRANCH   1  10
ATOM      4  O   UNL     1       0.763  12.892  19.733  0.00  0.00    +0.000 OA
ATOM      5  C   UNL     1       1.027  11.714  19.543  0.00  0.00    +0.000 C 
ATOM      6  N   UNL     1       1.616  11.206  18.377  0.00  0.00    +0.000 N 
ATOM      7  C   UNL     1       1.794   9.835  18.439  0.00  0.00    +0.000 A 
ATOM      8  C   UNL     1       2.330   8.953  17.520  0.00  0.00    +0.000 A 
ATOM      9  C   UNL     1       2.350   7.600  17.915  0.00  0.00    +0.000 A 
ATOM     10  C   UNL     1       1.857   7.184  19.182  0.00  0.00    +0.000 A 
ATOM     11  C   UNL     1       1.339   8.128  20.116  0.00  0.00    +0.000 A 
ATOM     12  C   UNL     1       0.831   7.972  21.434  0.00  0.00    +0.000 A 
ATOM     13  C   UNL     1       0.328   9.070  22.159  0.00  0.00    +0.000 A 
ATOM     14  C   UNL     1       0.326  10.371  21.631  0.00  0.00    +0.000 A 
ATOM     15  C   UNL     1       0.856  10.525  20.354  0.00  0.00    +0.000 A 
ATOM     16  C   UNL     1       1.325   9.418  19.664  0.00  0.00    +0.000 A 
ATOM     17  H   UNL     1       1.876  11.805  17.608  0.00  0.00    +0.000 HD
ENDBRANCH   1  10
BRANCH   1  18
ATOM     18  N   UNL     1       3.331   5.284  20.504  0.00  0.00    +0.000 N 
ATOM     19  C   UNL     1       4.432   4.797  19.828  0.00  0.00    +0.000 A 
ATOM     20  C   UNL     1       5.257   5.522  18.963  0.00  0.00    +0.000 A 
ATOM     21  C   UNL     1       6.045   4.568  18.354  0.00  0.00    +0.000 A 
ATOM     22  N   UNL     1       5.764   3.397  19.012  0.00  0.00    +0.000 N 
ATOM     23  N   UNL     1       4.793   3.523  19.936  0.00  0.00    +0.000 NA
ATOM     24  H   UNL     1       3.142   4.734  21.335  0.00  0.00    +0.000 HD
ATOM     25  H   UNL     1       6.141   2.472  18.835  0.00  0.00    +0.000 HD
BRANCH  21  26
ATOM     26  C   UNL     1       6.943   4.625  17.162  0.00  0.00    +0.000 C 
ATOM     27  C   UNL     1       7.231   6.056  16.646  0.00  0.00    +0.000 C 
ATOM     28  C   UNL     1       6.628   6.045  15.232  0.00  0.00    +0.000 C 
ATOM     29  C   UNL     1       5.093   5.931  15.329  0.00  0.00    +0.000 C 
ATOM     30  C   UNL     1       4.875   4.448  15.658  0.00  0.00    +0.000 C 
ATOM     31  C   UNL     1       6.312   3.947  15.907  0.00  0.00    +0.000 C 
ATOM     32  C   UNL     1       7.039   4.651  14.758  0.00  0.00    +0.000 C 
ENDBRANCH  21  26
ENDBRANCH   1  18
TORSDOF 3
ENDMDL
MODEL 2
REMARK VINA RESULT:      -8.1      3.749      5.459
REMARK  Name = 
REMARK  3 active torsions:
REMARK  status: ('A' for Active; 'I' for Inactive)
REMARK    1  A    between atoms: C_7  and  S_8
REMARK    2  A    between atoms: S_8  and  N_11
REMARK    3  A    between atoms: C_14  and  C_15
REMARK                            x       y       z     vdW  Elec       q    Type
REMARK                         _______ _______ _______ _____ _____    ______ ____
ROOT
ATOM      1  S   UNL     1       0.876  10.720  19.173  0.00  0.00    +0.000 S 
ATOM      2  O   UNL     1       1.741  11.846  18.895  0.00  0.00    +0.000 OA
ATOM      3  O   UNL     1       1.071   9.916  20.363  0.00  0.00    +0.000 OA
ENDROOT
BRANCH   1  10
ATOM      4  O   UNL     1      -6.346  12.142  17.564  0.00  0.00    +0.000 OA
ATOM      5  C   UNL     1      -5.203  12.014  17.979  0.00  0.00    +0.000 C 
ATOM      6  N   UNL     1      -4.702  12.620  19.141  0.00  0.00    +0.000 N 
ATOM      7  C   UNL     1      -3.374  12.300  19.362  0.00  0.00    +0.000 A 
ATOM      8  C   UNL     1      -2.513  12.680  20.374  0.00  0.00    +0.000 A 
ATOM      9  C   UNL     1      -1.204  12.167  20.283  0.00  0.00    +0.000 A 
ATOM     10  C   UNL     1      -0.810  11.309  19.221  0.00  0.00    +0.000 A 
ATOM     11  C   UNL     1      -1.735  10.916  18.210  0.00  0.00    +0.000 A 
ATOM     12  C   UNL     1      -1.599  10.056  17.087  0.00  0.00    +0.000 A 
ATOM     13  C   UNL     1      -2.665   9.851  16.189  0.00  0.00    +0.000 A 
ATOM     14  C   UNL     1      -3.917  10.460  16.371  0.00  0.00    +0.000 A 
ATOM     15  C   UNL     1      -4.057  11.273  17.491  0.00  0.00    +0.000 A 
ATOM     16  C   UNL     1      -2.980  11.466  18.342  0.00  0.00    +0.000 A 
ATOM     17  H   UNL     1      -5.279  13.205  19.726  0.00  0.00    +0.000 HD
ENDBRANCH   1  10
BRANCH   1  18
ATOM     18  N   UNL     1       0.899   9.663  17.840  0.00  0.00    +0.000 N 
ATOM     19  C   UNL     1       1.806   8.624  17.904  0.00  0.00    +0.000 A 
ATOM     20  C   UNL     1       1.657   7.442  18.635  0.00  0.00    +0.000 A 
ATOM     21  C   UNL     1       2.899   6.845  18.587  0.00  0.00    +0.000 A 
ATOM     22  N   UNL     1       3.627   7.604  17.705  0.00  0.00    +0.000 N 
ATOM     23  N   UNL     1       2.964   8.687  17.258  0.00  0.00    +0.000 NA
ATOM     24  H   UNL     1       1.017  10.197  16.986  0.00  0.00    +0.000 HD
ATOM     25  H   UNL     1       4.594   7.482  17.423  0.00  0.00    +0.000 HD
BRANCH  21  26
ATOM     26  C   UNL     1       3.496   5.712  19.355  0.00  0.00    +0.000 C 
ATOM     27  C   UNL     1       4.923   5.315  18.903  0.00  0.00    +0.000 C 
ATOM     28  C   UNL     1       4.742   3.872  18.404  0.00  0.00    +0.000 C 
ATOM     29  C   UNL     1       3.879   3.876  17.125  0.00  0.00    +0.000 C 
ATOM     30  C   UNL     1       2.459   4.087  17.666  0.00  0.00    +0.000 C 
ATOM     31  C   UNL     1       2.710   4.379  19.158  0.00  0.00    +0.000 C 
ATOM     32  C   UNL     1       3.780   3.324  19.457  0.00  0.00    +0.000 C 
ENDBRANCH  21  26
ENDBRANCH   1  18
TORSDOF 3
ENDMDL
MODEL 3
REMARK VINA RESULT:      -7.9      3.892      5.838
REMARK  Name = 
REMARK  3 active torsions:
REMARK  status: ('A' for Active; 'I' for Inactive)
REMARK    1  A    between atoms: C_7  and  S_8
REMARK    2  A    between atoms: S_8  and  N_11
REMARK    3  A    between atoms: C_14  and  C_15
REMARK                            x       y       z     vdW  Elec       q    Type
REMARK                         _______ _______ _______ _____ _____    ______ ____
ROOT
ATOM      1  S   UNL     1       0.535  10.293  19.557  0.00  0.00    +0.000 S 
ATOM      2  O   UNL     1       1.450  11.303  20.043  0.00  0.00    +0.000 OA
ATOM      3  O   UNL     1       0.366   9.045  20.274  0.00  0.00    +0.000 OA
ENDROOT
BRANCH   1  10
ATOM      4  O   UNL     1      -6.278  12.393  17.121  0.00  0.00    +0.000 OA
ATOM      5  C   UNL     1      -5.211  12.153  17.669  0.00  0.00    +0.000 C 
ATOM      6  N   UNL     1      -4.811  12.685  18.902  0.00  0.00    +0.000 N 
ATOM      7  C   UNL     1      -3.553  12.243  19.275  0.00  0.00    +0.000 A 
ATOM      8  C   UNL     1      -2.797  12.521  20.398  0.00  0.00    +0.000 A 
ATOM      9  C   UNL     1      -1.535  11.895  20.451  0.00  0.00    +0.000 A 
ATOM     10  C   UNL     1      -1.086  11.030  19.417  0.00  0.00    +0.000 A 
ATOM     11  C   UNL     1      -1.908  10.745  18.287  0.00  0.00    +0.000 A 
ATOM     12  C   UNL     1      -1.706   9.902  17.160  0.00  0.00    +0.000 A 
ATOM     13  C   UNL     1      -2.665   9.814  16.132  0.00  0.00    +0.000 A 
ATOM     14  C   UNL     1      -3.872  10.528  16.179  0.00  0.00    +0.000 A 
ATOM     15  C   UNL     1      -4.081  11.324  17.301  0.00  0.00    +0.000 A 
ATOM     16  C   UNL     1      -3.107  11.401  18.283  0.00  0.00    +0.000 A 
ATOM     17  H   UNL     1      -5.404  13.306  19.432  0.00  0.00    +0.000 HD
ENDBRANCH   1  10
BRANCH   1  18
ATOM     18  N   UNL     1       0.944   9.903  17.952  0.00  0.00    +0.000 N 
ATOM     19  C   UNL     1       1.774   8.813  17.784  0.00  0.00    +0.000 A 
ATOM     20  C   UNL     1       1.394   7.469  17.845  0.00  0.00    +0.000 A 
ATOM     21  C   UNL     1       2.584   6.772  17.867  0.00  0.00    +0.000 A 
ATOM     22  N   UNL     1       3.555   7.715  17.642  0.00  0.00    +0.000 N 
ATOM     23  N   UNL     1       3.074   8.971  17.566  0.00  0.00    +0.000 NA
ATOM     24  H   UNL     1       1.322  10.723  17.490  0.00  0.00    +0.000 HD
ATOM     25  H   UNL     1       4.561   7.583  17.602  0.00  0.00    +0.000 HD
BRANCH  21  26
ATOM     26  C   UNL     1       2.904   5.347  18.178  0.00  0.00    +0.000 C 
ATOM     27  C   UNL     1       1.700   4.381  18.057  0.00  0.00    +0.000 C 
ATOM     28  C   UNL     1       1.530   3.854  19.491  0.00  0.00    +0.000 C 
ATOM     29  C   UNL     1       1.059   5.002  20.408  0.00  0.00    +0.000 C 
ATOM     30  C   UNL     1       2.343   5.811  20.636  0.00  0.00    +0.000 C 
ATOM     31  C   UNL     1       3.335   5.144  19.663  0.00  0.00    +0.000 C 
ATOM     32  C   UNL     1       2.989   3.671  19.903  0.00  0.00    +0.000 C 
ENDBRANCH  21  26
ENDBRANCH   1  18
TORSDOF 3
ENDMDL
MODEL 4
REMARK VINA RESULT:      -7.9      3.779      5.177
REMARK  Name = 
REMARK  3 active torsions:
REMARK  status: ('A' for Active; 'I' for Inactive)
REMARK    1  A    between atoms: C_7  and  S_8
REMARK    2  A    between atoms: S_8  and  N_11
REMARK    3  A    between atoms: C_14  and  C_15
REMARK                            x       y       z     vdW  Elec       q    Type
REMARK                         _______ _______ _______ _____ _____    ______ ____
ROOT
ATOM      1  S   UNL     1       0.747  10.238  18.771  0.00  0.00    +0.000 S 
ATOM      2  O   UNL     1       1.423  11.517  18.798  0.00  0.00    +0.000 OA
ATOM      3  O   UNL     1       0.742   9.382  19.940  0.00  0.00    +0.000 OA
ENDROOT
BRANCH   1  10
ATOM      4  O   UNL     1      -6.423  12.551  18.696  0.00  0.00    +0.000 OA
ATOM      5  C   UNL     1      -5.302  12.087  18.548  0.00  0.00    +0.000 C 
ATOM      6  N   UNL     1      -4.924  11.228  17.507  0.00  0.00    +0.000 N 
ATOM      7  C   UNL     1      -3.593  10.858  17.596  0.00  0.00    +0.000 A 
ATOM      8  C   UNL     1      -2.830  10.037  16.787  0.00  0.00    +0.000 A 
ATOM      9  C   UNL     1      -1.487   9.871  17.182  0.00  0.00    +0.000 A 
ATOM     10  C   UNL     1      -0.962  10.519  18.333  0.00  0.00    +0.000 A 
ATOM     11  C   UNL     1      -1.773  11.383  19.126  0.00  0.00    +0.000 A 
ATOM     12  C   UNL     1      -1.479  12.160  20.279  0.00  0.00    +0.000 A 
ATOM     13  C   UNL     1      -2.476  12.917  20.925  0.00  0.00    +0.000 A 
ATOM     14  C   UNL     1      -3.796  12.965  20.451  0.00  0.00    +0.000 A 
ATOM     15  C   UNL     1      -4.072  12.230  19.301  0.00  0.00    +0.000 A 
ATOM     16  C   UNL     1      -3.070  11.482  18.705  0.00  0.00    +0.000 A 
ATOM     17  H   UNL     1      -5.574  10.943  16.790  0.00  0.00    +0.000 HD
ENDBRANCH   1  10
BRANCH   1  18
ATOM     18  N   UNL     1       1.352   9.319  17.473  0.00  0.00    +0.000 N 
ATOM     19  C   UNL     1       2.040   8.171  17.811  0.00  0.00    +0.000 A 
ATOM     20  C   UNL     1       1.473   6.953  18.200  0.00  0.00    +0.000 A 
ATOM     21  C   UNL     1       2.537   6.209  18.666  0.00  0.00    +0.000 A 
ATOM     22  N   UNL     1       3.652   6.948  18.362  0.00  0.00    +0.000 N 
ATOM     23  N   UNL     1       3.368   8.145  17.816  0.00  0.00    +0.000 NA
ATOM     24  H   UNL     1       1.909   9.913  16.869  0.00  0.00    +0.000 HD
ATOM     25  H   UNL     1       4.623   6.730  18.563  0.00  0.00    +0.000 HD
BRANCH  21  26
ATOM     26  C   UNL     1       2.603   4.940  19.451  0.00  0.00    +0.000 C 
ATOM     27  C   UNL     1       4.037   4.400  19.673  0.00  0.00    +0.000 C 
ATOM     28  C   UNL     1       4.017   3.047  18.944  0.00  0.00    +0.000 C 
ATOM     29  C   UNL     1       3.885   3.283  17.425  0.00  0.00    +0.000 C 
ATOM     30  C   UNL     1       2.400   3.631  17.257  0.00  0.00    +0.000 C 
ATOM     31  C   UNL     1       1.917   3.748  18.716  0.00  0.00    +0.000 C 
ATOM     32  C   UNL     1       2.629   2.537  19.326  0.00  0.00    +0.000 C 
ENDBRANCH  21  26
ENDBRANCH   1  18
TORSDOF 3
ENDMDL
MODEL 5
REMARK VINA RESULT:      -7.6      3.573      9.490
REMARK  Name = 
REMARK  3 active torsions:
REMARK  status: ('A' for Active; 'I' for Inactive)
REMARK    1  A    between atoms: C_7  and  S_8
REMARK    2  A    between atoms: S_8  and  N_11
REMARK    3  A    between atoms: C_14  and  C_15
REMARK                            x       y       z     vdW  Elec       q    Type
REMARK                         _______ _______ _______ _____ _____    ______ ____
ROOT
ATOM      1  S   UNL     1       0.836   8.861  21.166  0.00  0.00    +0.000 S 
ATOM      2  O   UNL     1      -0.515   8.341  21.171  0.00  0.00    +0.000 OA
ATOM      3  O   UNL     1       1.644   8.827  22.368  0.00  0.00    +0.000 OA
ENDROOT
BRANCH   1  10
ATOM      4  O   UNL     1       4.545   3.646  17.189  0.00  0.00    +0.000 OA
ATOM      5  C   UNL     1       3.979   4.606  17.691  0.00  0.00    +0.000 C 
ATOM      6  N   UNL     1       3.925   5.887  17.123  0.00  0.00    +0.000 N 
ATOM      7  C   UNL     1       3.222   6.777  17.915  0.00  0.00    +0.000 A 
ATOM      8  C   UNL     1       2.936   8.117  17.729  0.00  0.00    +0.000 A 
ATOM      9  C   UNL     1       2.191   8.728  18.758  0.00  0.00    +0.000 A 
ATOM     10  C   UNL     1       1.760   8.001  19.901  0.00  0.00    +0.000 A 
ATOM     11  C   UNL     1       2.049   6.613  20.043  0.00  0.00    +0.000 A 
ATOM     12  C   UNL     1       1.704   5.674  21.053  0.00  0.00    +0.000 A 
ATOM     13  C   UNL     1       2.149   4.339  20.992  0.00  0.00    +0.000 A 
ATOM     14  C   UNL     1       2.927   3.862  19.926  0.00  0.00    +0.000 A 
ATOM     15  C   UNL     1       3.233   4.776  18.922  0.00  0.00    +0.000 A 
ATOM     16  C   UNL     1       2.794   6.086  19.025  0.00  0.00    +0.000 A 
ATOM     17  H   UNL     1       4.352   6.092  16.232  0.00  0.00    +0.000 HD
ENDBRANCH   1  10
BRANCH   1  18
ATOM     18  N   UNL     1       0.806  10.472  20.621  0.00  0.00    +0.000 N 
ATOM     19  C   UNL     1      -0.305  11.212  20.973  0.00  0.00    +0.000 A 
ATOM     20  C   UNL     1      -0.546  11.797  22.221  0.00  0.00    +0.000 A 
ATOM     21  C   UNL     1      -1.863  12.202  22.165  0.00  0.00    +0.000 A 
ATOM     22  N   UNL     1      -2.247  11.998  20.863  0.00  0.00    +0.000 N 
ATOM     23  N   UNL     1      -1.296  11.411  20.112  0.00  0.00    +0.000 NA
ATOM     24  H   UNL     1       0.954  10.494  19.618  0.00  0.00    +0.000 HD
ATOM     25  H   UNL     1      -3.155  12.165  20.443  0.00  0.00    +0.000 HD
BRANCH  21  26
ATOM     26  C   UNL     1      -2.816  12.657  23.221  0.00  0.00    +0.000 C 
ATOM     27  C   UNL     1      -4.241  12.973  22.704  0.00  0.00    +0.000 C 
ATOM     28  C   UNL     1      -4.395  14.474  23.000  0.00  0.00    +0.000 C 
ATOM     29  C   UNL     1      -3.432  15.276  22.101  0.00  0.00    +0.000 C 
ATOM     30  C   UNL     1      -2.072  15.070  22.781  0.00  0.00    +0.000 C 
ATOM     31  C   UNL     1      -2.393  14.016  23.859  0.00  0.00    +0.000 C 
ATOM     32  C   UNL     1      -3.729  14.564  24.372  0.00  0.00    +0.000 C 
ENDBRANCH  21  26
ENDBRANCH   1  18
TORSDOF 3
ENDMDL
MODEL 6
REMARK VINA RESULT:      -7.6      3.609      5.041
REMARK  Name = 
REMARK  3 active torsions:
REMARK  status: ('A' for Active; 'I' for Inactive)
REMARK    1  A    between atoms: C_7  and  S_8
REMARK    2  A    between atoms: S_8  and  N_11
REMARK    3  A    between atoms: C_14  and  C_15
REMARK                            x       y       z     vdW  Elec       q    Type
REMARK                         _______ _______ _______ _____ _____    ______ ____
ROOT
ATOM      1  S   UNL     1       1.212   9.303  18.143  0.00  0.00    +0.000 S 
ATOM      2  O   UNL     1       0.743   8.034  17.627  0.00  0.00    +0.000 OA
ATOM      3  O   UNL     1       2.034  10.172  17.327  0.00  0.00    +0.000 OA
ENDROOT
BRANCH   1  10
ATOM      4  O   UNL     1      -5.522  12.672  18.410  0.00  0.00    +0.000 OA
ATOM      5  C   UNL     1      -4.399  12.203  18.534  0.00  0.00    +0.000 C 
ATOM      6  N   UNL     1      -3.542  12.461  19.613  0.00  0.00    +0.000 N 
ATOM      7  C   UNL     1      -2.333  11.799  19.485  0.00  0.00    +0.000 A 
ATOM      8  C   UNL     1      -1.226  11.779  20.311  0.00  0.00    +0.000 A 
ATOM      9  C   UNL     1      -0.146  10.991  19.863  0.00  0.00    +0.000 A 
ATOM     10  C   UNL     1      -0.210  10.261  18.645  0.00  0.00    +0.000 A 
ATOM     11  C   UNL     1      -1.382  10.284  17.833  0.00  0.00    +0.000 A 
ATOM     12  C   UNL     1      -1.701   9.624  16.616  0.00  0.00    +0.000 A 
ATOM     13  C   UNL     1      -2.934   9.839  15.968  0.00  0.00    +0.000 A 
ATOM     14  C   UNL     1      -3.915  10.689  16.502  0.00  0.00    +0.000 A 
ATOM     15  C   UNL     1      -3.612  11.306  17.713  0.00  0.00    +0.000 A 
ATOM     16  C   UNL     1      -2.382  11.084  18.310  0.00  0.00    +0.000 A 
ATOM     17  H   UNL     1      -3.816  13.056  20.380  0.00  0.00    +0.000 HD
ENDBRANCH   1  10
BRANCH   1  18
ATOM     18  N   UNL     1       2.051   9.031  19.598  0.00  0.00    +0.000 N 
ATOM     19  C   UNL     1       2.035   7.736  20.076  0.00  0.00    +0.000 A 
ATOM     20  C   UNL     1       2.819   6.676  19.612  0.00  0.00    +0.000 A 
ATOM     21  C   UNL     1       2.280   5.557  20.212  0.00  0.00    +0.000 A 
ATOM     22  N   UNL     1       1.355   6.040  21.104  0.00  0.00    +0.000 N 
ATOM     23  N   UNL     1       1.207   7.377  21.051  0.00  0.00    +0.000 NA
ATOM     24  H   UNL     1       1.726   9.684  20.304  0.00  0.00    +0.000 HD
ATOM     25  H   UNL     1       0.744   5.513  21.721  0.00  0.00    +0.000 HD
BRANCH  21  26
ATOM     26  C   UNL     1       2.467   4.097  19.960  0.00  0.00    +0.000 C 
ATOM     27  C   UNL     1       3.843   3.725  19.356  0.00  0.00    +0.000 C 
ATOM     28  C   UNL     1       3.474   3.131  17.987  0.00  0.00    +0.000 C 
ATOM     29  C   UNL     1       2.902   4.242  17.082  0.00  0.00    +0.000 C 
ATOM     30  C   UNL     1       1.476   4.426  17.619  0.00  0.00    +0.000 C 
ATOM     31  C   UNL     1       1.480   3.547  18.885  0.00  0.00    +0.000 C 
ATOM     32  C   UNL     1       2.231   2.322  18.353  0.00  0.00    +0.000 C 
ENDBRANCH  21  26
ENDBRANCH   1  18
TORSDOF 3
ENDMDL
MODEL 7
REMARK VINA RESULT:      -7.5      3.481      5.346
REMARK  Name = 
REMARK  3 active torsions:
REMARK  status: ('A' for Active; 'I' for Inactive)
REMARK    1  A    between atoms: C_7  and  S_8
REMARK    2  A    between atoms: S_8  and  N_11
REMARK    3  A    between atoms: C_14  and  C_15
REMARK                            x       y       z     vdW  Elec       q    Type
REMARK                         _______ _______ _______ _____ _____    ______ ____
ROOT
ATOM      1  S   UNL     1       0.841  11.038  19.250  0.00  0.00    +0.000 S 
ATOM      2  O   UNL     1       1.618  12.197  18.867  0.00  0.00    +0.000 OA
ATOM      3  O   UNL     1       1.198  10.265  20.423  0.00  0.00    +0.000 OA
ENDROOT
BRANCH   1  10
ATOM      4  O   UNL     1      -5.605  13.721  22.081  0.00  0.00    +0.000 OA
ATOM      5  C   UNL     1      -4.657  13.254  21.466  0.00  0.00    +0.000 C 
ATOM      6  N   UNL     1      -4.728  12.735  20.166  0.00  0.00    +0.000 N 
ATOM      7  C   UNL     1      -3.501  12.271  19.724  0.00  0.00    +0.000 A 
ATOM      8  C   UNL     1      -3.136  11.692  18.524  0.00  0.00    +0.000 A 
ATOM      9  C   UNL     1      -1.779  11.325  18.412  0.00  0.00    +0.000 A 
ATOM     10  C   UNL     1      -0.856  11.551  19.469  0.00  0.00    +0.000 A 
ATOM     11  C   UNL     1      -1.265  12.178  20.683  0.00  0.00    +0.000 A 
ATOM     12  C   UNL     1      -0.539  12.540  21.850  0.00  0.00    +0.000 A 
ATOM     13  C   UNL     1      -1.182  13.125  22.959  0.00  0.00    +0.000 A 
ATOM     14  C   UNL     1      -2.558  13.402  22.959  0.00  0.00    +0.000 A 
ATOM     15  C   UNL     1      -3.258  13.077  21.800  0.00  0.00    +0.000 A 
ATOM     16  C   UNL     1      -2.595  12.487  20.737  0.00  0.00    +0.000 A 
ATOM     17  H   UNL     1      -5.590  12.728  19.641  0.00  0.00    +0.000 HD
ENDBRANCH   1  10
BRANCH   1  18
ATOM     18  N   UNL     1       0.772   9.959  17.936  0.00  0.00    +0.000 N 
ATOM     19  C   UNL     1       1.622   8.873  17.996  0.00  0.00    +0.000 A 
ATOM     20  C   UNL     1       1.428   7.713  18.752  0.00  0.00    +0.000 A 
ATOM     21  C   UNL     1       2.634   7.048  18.683  0.00  0.00    +0.000 A 
ATOM     22  N   UNL     1       3.380   7.751  17.770  0.00  0.00    +0.000 N 
ATOM     23  N   UNL     1       2.766   8.862  17.320  0.00  0.00    +0.000 NA
ATOM     24  H   UNL     1       0.897  10.472  17.070  0.00  0.00    +0.000 HD
ATOM     25  H   UNL     1       4.331   7.572  17.467  0.00  0.00    +0.000 HD
BRANCH  21  26
ATOM     26  C   UNL     1       3.187   5.897  19.457  0.00  0.00    +0.000 C 
ATOM     27  C   UNL     1       4.586   5.426  18.988  0.00  0.00    +0.000 C 
ATOM     28  C   UNL     1       4.328   3.988  18.510  0.00  0.00    +0.000 C 
ATOM     29  C   UNL     1       3.446   4.018  17.244  0.00  0.00    +0.000 C 
ATOM     30  C   UNL     1       2.046   4.304  17.804  0.00  0.00    +0.000 C 
ATOM     31  C   UNL     1       2.335   4.602  19.289  0.00  0.00    +0.000 C 
ATOM     32  C   UNL     1       3.357   3.500  19.584  0.00  0.00    +0.000 C 
ENDBRANCH  21  26
ENDBRANCH   1  18
TORSDOF 3
ENDMDL
MODEL 8
REMARK VINA RESULT:      -7.5      3.299      4.853
REMARK  Name = 
REMARK  3 active torsions:
REMARK  status: ('A' for Active; 'I' for Inactive)
REMARK    1  A    between atoms: C_7  and  S_8
REMARK    2  A    between atoms: S_8  and  N_11
REMARK    3  A    between atoms: C_14  and  C_15
REMARK                            x       y       z     vdW  Elec       q    Type
REMARK                         _______ _______ _______ _____ _____    ______ ____
ROOT
ATOM      1  S   UNL     1       1.401   9.500  18.173  0.00  0.00    +0.000 S 
ATOM      2  O   UNL     1       0.664   8.481  17.457  0.00  0.00    +0.000 OA
ATOM      3  O   UNL     1       2.220  10.458  17.457  0.00  0.00    +0.000 OA
ENDROOT
BRANCH   1  10
ATOM      4  O   UNL     1      -4.658  13.279  20.572  0.00  0.00    +0.000 OA
ATOM      5  C   UNL     1      -3.602  12.704  20.351  0.00  0.00    +0.000 C 
ATOM      6  N   UNL     1      -2.519  12.654  21.240  0.00  0.00    +0.000 N 
ATOM      7  C   UNL     1      -1.455  11.937  20.722  0.00  0.00    +0.000 A 
ATOM      8  C   UNL     1      -0.215  11.651  21.260  0.00  0.00    +0.000 A 
ATOM      9  C   UNL     1       0.643  10.890  20.441  0.00  0.00    +0.000 A 
ATOM     10  C   UNL     1       0.243  10.444  19.152  0.00  0.00    +0.000 A 
ATOM     11  C   UNL     1      -1.056  10.735  18.642  0.00  0.00    +0.000 A 
ATOM     12  C   UNL     1      -1.695  10.379  17.424  0.00  0.00    +0.000 A 
ATOM     13  C   UNL     1      -2.996  10.828  17.121  0.00  0.00    +0.000 A 
ATOM     14  C   UNL     1      -3.733  11.623  18.013  0.00  0.00    +0.000 A 
ATOM     15  C   UNL     1      -3.117  11.940  19.220  0.00  0.00    +0.000 A 
ATOM     16  C   UNL     1      -1.830  11.496  19.474  0.00  0.00    +0.000 A 
ATOM     17  H   UNL     1      -2.555  13.093  22.148  0.00  0.00    +0.000 HD
ENDBRANCH   1  10
BRANCH   1  18
ATOM     18  N   UNL     1       2.396   8.751  19.332  0.00  0.00    +0.000 N 
ATOM     19  C   UNL     1       2.318   7.374  19.400  0.00  0.00    +0.000 A 
ATOM     20  C   UNL     1       2.927   6.469  18.526  0.00  0.00    +0.000 A 
ATOM     21  C   UNL     1       2.366   5.249  18.843  0.00  0.00    +0.000 A 
ATOM     22  N   UNL     1       1.619   5.481  19.971  0.00  0.00    +0.000 N 
ATOM     23  N   UNL     1       1.596   6.776  20.341  0.00  0.00    +0.000 NA
ATOM     24  H   UNL     1       2.232   9.170  20.241  0.00  0.00    +0.000 HD
ATOM     25  H   UNL     1       1.047   4.823  20.490  0.00  0.00    +0.000 HD
BRANCH  21  26
ATOM     26  C   UNL     1       2.377   3.930  18.143  0.00  0.00    +0.000 C 
ATOM     27  C   UNL     1       1.636   2.800  18.899  0.00  0.00    +0.000 C 
ATOM     28  C   UNL     1       2.754   1.786  19.193  0.00  0.00    +0.000 C 
ATOM     29  C   UNL     1       3.745   2.394  20.207  0.00  0.00    +0.000 C 
ATOM     30  C   UNL     1       4.567   3.365  19.349  0.00  0.00    +0.000 C 
ATOM     31  C   UNL     1       3.814   3.341  18.004  0.00  0.00    +0.000 C 
ATOM     32  C   UNL     1       3.539   1.839  17.883  0.00  0.00    +0.000 C 
ENDBRANCH  21  26
ENDBRANCH   1  18
TORSDOF 3
ENDMDL
MODEL 9
REMARK VINA RESULT:      -7.4      3.453      5.056
REMARK  Name = 
REMARK  3 active torsions:
REMARK  status: ('A' for Active; 'I' for Inactive)
REMARK    1  A    between atoms: C_7  and  S_8
REMARK    2  A    between atoms: S_8  and  N_11
REMARK    3  A    between atoms: C_14  and  C_15
REMARK                            x       y       z     vdW  Elec       q    Type
REMARK                         _______ _______ _______ _____ _____    ______ ____
ROOT
ATOM      1  S   UNL     1       1.270   9.684  18.971  0.00  0.00    +0.000 S 
ATOM      2  O   UNL     1       2.057  10.854  19.298  0.00  0.00    +0.000 OA
ATOM      3  O   UNL     1       1.143   8.593  19.915  0.00  0.00    +0.000 OA
ENDROOT
BRANCH   1  10
ATOM      4  O   UNL     1      -5.531  12.920  19.157  0.00  0.00    +0.000 OA
ATOM      5  C   UNL     1      -4.481  12.325  18.962  0.00  0.00    +0.000 C 
ATOM      6  N   UNL     1      -4.225  11.499  17.858  0.00  0.00    +0.000 N 
ATOM      7  C   UNL     1      -2.954  10.953  17.902  0.00  0.00    +0.000 A 
ATOM      8  C   UNL     1      -2.311  10.099  17.027  0.00  0.00    +0.000 A 
ATOM      9  C   UNL     1      -1.000   9.730  17.391  0.00  0.00    +0.000 A 
ATOM     10  C   UNL     1      -0.388  10.219  18.577  0.00  0.00    +0.000 A 
ATOM     11  C   UNL     1      -1.075  11.122  19.440  0.00  0.00    +0.000 A 
ATOM     12  C   UNL     1      -0.675  11.769  20.641  0.00  0.00    +0.000 A 
ATOM     13  C   UNL     1      -1.560  12.603  21.352  0.00  0.00    +0.000 A 
ATOM     14  C   UNL     1      -2.865  12.858  20.901  0.00  0.00    +0.000 A 
ATOM     15  C   UNL     1      -3.240  12.250  19.706  0.00  0.00    +0.000 A 
ATOM     16  C   UNL     1      -2.348  11.422  19.045  0.00  0.00    +0.000 A 
ATOM     17  H   UNL     1      -4.910  11.355  17.132  0.00  0.00    +0.000 HD
ENDBRANCH   1  10
BRANCH   1  18
ATOM     18  N   UNL     1       1.841   9.025  17.510  0.00  0.00    +0.000 N 
ATOM     19  C   UNL     1       2.527   7.831  17.609  0.00  0.00    +0.000 A 
ATOM     20  C   UNL     1       1.959   6.564  17.773  0.00  0.00    +0.000 A 
ATOM     21  C   UNL     1       3.026   5.741  18.066  0.00  0.00    +0.000 A 
ATOM     22  N   UNL     1       4.141   6.520  17.883  0.00  0.00    +0.000 N 
ATOM     23  N   UNL     1       3.854   7.801  17.580  0.00  0.00    +0.000 NA
ATOM     24  H   UNL     1       2.390   9.721  17.016  0.00  0.00    +0.000 HD
ATOM     25  H   UNL     1       5.114   6.265  18.018  0.00  0.00    +0.000 HD
BRANCH  21  26
ATOM     26  C   UNL     1       3.098   4.347  18.595  0.00  0.00    +0.000 C 
ATOM     27  C   UNL     1       1.834   3.494  18.325  0.00  0.00    +0.000 C 
ATOM     28  C   UNL     1       1.314   3.184  19.738  0.00  0.00    +0.000 C 
ATOM     29  C   UNL     1       0.812   4.485  20.398  0.00  0.00    +0.000 C 
ATOM     30  C   UNL     1       2.113   5.189  20.807  0.00  0.00    +0.000 C 
ATOM     31  C   UNL     1       3.192   4.305  20.152  0.00  0.00    +0.000 C 
ATOM     32  C   UNL     1       2.626   2.918  20.474  0.00  0.00    +0.000 C 
ENDBRANCH  21  26
ENDBRANCH   1  18
TORSDOF 3
ENDMDL
