MODEL 1
REMARK VINA RESULT:      -8.3      0.000      0.000
REMARK  Name = 
REMARK  6 active torsions:
REMARK  status: ('A' for Active; 'I' for Inactive)
REMARK    1  A    between atoms: C_2  and  N_3
REMARK    2  A    between atoms: C_7  and  C_8
REMARK    3  A    between atoms: C_8  and  C_9
REMARK    4  A    between atoms: C_11  and  N_12
REMARK    5  A    between atoms: C_19  and  C_20
REMARK    6  A    between atoms: C_28  and  C_29
REMARK                            x       y       z     vdW  Elec       q    Type
REMARK                         _______ _______ _______ _____ _____    ______ ____
ROOT
ATOM      1  C   UNL     1       1.091   8.898  19.929  0.00  0.00    +0.000 A 
ATOM      2  C   UNL     1       1.895   7.801  20.270  0.00  0.00    +0.000 A 
ATOM      3  C   UNL     1       2.512   7.024  19.278  0.00  0.00    +0.000 A 
ATOM      4  C   UNL     1       2.558   7.509  17.970  0.00  0.00    +0.000 A 
ATOM      5  C   UNL     1       1.815   8.638  17.626  0.00  0.00    +0.000 A 
ATOM      6  C   UNL     1       1.019   9.295  18.580  0.00  0.00    +0.000 A 
ATOM      7  C   UNL     1       0.012  10.306  18.109  0.00  0.00    +0.000 C 
ENDROOT
BRANCH   3   8
ATOM      8  N   UNL     1       2.715   5.606  19.498  0.00  0.00    +0.000 N 
ATOM      9  C   UNL     1       4.133   5.329  19.824  0.00  0.00    +0.000 C 
ATOM     10  C   UNL     1       4.698   4.916  18.504  0.00  0.00    +0.000 A 
ATOM     11  C   UNL     1       3.648   4.421  17.731  0.00  0.00    +0.000 A 
ATOM     12  C   UNL     1       3.798   4.048  16.407  0.00  0.00    +0.000 A 
ATOM     13  C   UNL     1       5.063   4.198  15.843  0.00  0.00    +0.000 A 
ATOM     14  C   UNL     1       6.127   4.721  16.603  0.00  0.00    +0.000 A 
ATOM     15  C   UNL     1       5.965   5.092  17.954  0.00  0.00    +0.000 A 
ATOM     16  C   UNL     1       2.382   4.750  18.419  0.00  0.00    +0.000 C 
ATOM     17  O   UNL     1       1.279   4.482  17.975  0.00  0.00    +0.000 OA
BRANCH  15  18
ATOM     18  C   UNL     1       7.112   5.732  18.694  0.00  0.00    +0.000 C 
ATOM     19  F   UNL     1       7.015   5.640  20.051  0.00  0.00    +0.000 F 
ATOM     20  F   UNL     1       8.304   5.144  18.384  0.00  0.00    +0.000 F 
ATOM     21  F   UNL     1       7.272   7.054  18.425  0.00  0.00    +0.000 F 
ENDBRANCH  15  18
ENDBRANCH   3   8
BRANCH   1  22
ATOM     22  C   UNL     1       0.218   9.493  21.021  0.00  0.00    +0.000 C 
BRANCH  22  27
ATOM     23  N   UNL     1      -0.493  11.791  21.869  0.00  0.00    +0.000 N 
ATOM     24  C   UNL     1       0.117  13.021  21.874  0.00  0.00    +0.000 A 
ATOM     25  N   UNL     1       1.306  12.959  21.329  0.00  0.00    +0.000 NA
ATOM     26  N   UNL     1       1.517  11.661  20.952  0.00  0.00    +0.000 NA
ATOM     27  C   UNL     1       0.446  10.959  21.267  0.00  0.00    +0.000 A 
BRANCH  23  29
ATOM     28  C   UNL     1      -2.534  12.185  23.166  0.00  0.00    +0.000 C 
ATOM     29  C   UNL     1      -1.763  11.453  22.350  0.00  0.00    +0.000 C 
ENDBRANCH  23  29
ENDBRANCH  22  27
ENDBRANCH   1  22
TORSDOF 5
ENDMDL
MODEL 2
REMARK VINA RESULT:      -8.1      4.575      8.516
REMARK  Name = 
REMARK  6 active torsions:
REMARK  status: ('A' for Active; 'I' for Inactive)
REMARK    1  A    between atoms: C_2  and  N_3
REMARK    2  A    between atoms: C_7  and  C_8
REMARK    3  A    between atoms: C_8  and  C_9
REMARK    4  A    between atoms: C_11  and  N_12
REMARK    5  A    between atoms: C_19  and  C_20
REMARK    6  A    between atoms: C_28  and  C_29
REMARK                            x       y       z     vdW  Elec       q    Type
REMARK                         _______ _______ _______ _____ _____    ______ ____
ROOT
ATOM      1  C   UNL     1       5.910   4.327  16.198  0.00  0.00    +0.000 A 
ATOM      2  C   UNL     1       4.516   4.363  16.048  0.00  0.00    +0.000 A 
ATOM      3  C   UNL     1       3.691   4.815  17.089  0.00  0.00    +0.000 A 
ATOM      4  C   UNL     1       4.268   5.494  18.163  0.00  0.00    +0.000 A 
ATOM      5  C   UNL     1       5.656   5.524  18.295  0.00  0.00    +0.000 A 
ATOM      6  C   UNL     1       6.483   4.879  17.359  0.00  0.00    +0.000 A 
ATOM      7  C   UNL     1       7.934   4.678  17.695  0.00  0.00    +0.000 C 
ENDROOT
BRANCH   3   8
ATOM      8  N   UNL     1       2.371   4.242  17.260  0.00  0.00    +0.000 N 
ATOM      9  C   UNL     1       1.507   5.154  18.045  0.00  0.00    +0.000 C 
ATOM     10  C   UNL     1       1.616   4.598  19.428  0.00  0.00    +0.000 A 
ATOM     11  C   UNL     1       1.946   3.248  19.317  0.00  0.00    +0.000 A 
ATOM     12  C   UNL     1       2.232   2.449  20.409  0.00  0.00    +0.000 A 
ATOM     13  C   UNL     1       2.193   3.052  21.665  0.00  0.00    +0.000 A 
ATOM     14  C   UNL     1       1.887   4.421  21.792  0.00  0.00    +0.000 A 
ATOM     15  C   UNL     1       1.591   5.224  20.671  0.00  0.00    +0.000 A 
ATOM     16  C   UNL     1       2.313   2.984  17.908  0.00  0.00    +0.000 C 
ATOM     17  O   UNL     1       2.686   1.899  17.497  0.00  0.00    +0.000 OA
BRANCH  15  18
ATOM     18  C   UNL     1       1.361   6.703  20.854  0.00  0.00    +0.000 C 
ATOM     19  F   UNL     1       2.009   7.235  21.930  0.00  0.00    +0.000 F 
ATOM     20  F   UNL     1       1.807   7.420  19.783  0.00  0.00    +0.000 F 
ATOM     21  F   UNL     1       0.054   7.042  21.006  0.00  0.00    +0.000 F 
ENDBRANCH  15  18
ENDBRANCH   3   8
BRANCH   1  22
ATOM     22  C   UNL     1       6.706   3.547  15.166  0.00  0.00    +0.000 C 
BRANCH  22  27
ATOM     23  N   UNL     1       6.721   4.104  12.676  0.00  0.00    +0.000 N 
ATOM     24  C   UNL     1       7.369   5.057  11.931  0.00  0.00    +0.000 A 
ATOM     25  N   UNL     1       8.118   5.818  12.688  0.00  0.00    +0.000 NA
ATOM     26  N   UNL     1       7.973   5.384  13.977  0.00  0.00    +0.000 NA
ATOM     27  C   UNL     1       7.144   4.358  13.978  0.00  0.00    +0.000 A 
BRANCH  23  29
ATOM     28  C   UNL     1       4.660   3.287  11.634  0.00  0.00    +0.000 C 
ATOM     29  C   UNL     1       5.844   3.107  12.233  0.00  0.00    +0.000 C 
ENDBRANCH  23  29
ENDBRANCH  22  27
ENDBRANCH   1  22
TORSDOF 5
ENDMDL
MODEL 3
REMARK VINA RESULT:      -8.0      1.155      1.671
REMARK  Name = 
REMARK  6 active torsions:
REMARK  status: ('A' for Active; 'I' for Inactive)
REMARK    1  A    between atoms: C_2  and  N_3
REMARK    2  A    between atoms: C_7  and  C_8
REMARK    3  A    between atoms: C_8  and  C_9
REMARK    4  A    between atoms: C_11  and  N_12
REMARK    5  A    between atoms: C_19  and  C_20
REMARK    6  A    between atoms: C_28  and  C_29
REMARK                            x       y       z     vdW  Elec       q    Type
REMARK                         _______ _______ _______ _____ _____    ______ ____
ROOT
ATOM      1  C   UNL     1       0.827   9.141  20.046  0.00  0.00    +0.000 A 
ATOM      2  C   UNL     1       1.664   8.197  20.659  0.00  0.00    +0.000 A 
ATOM      3  C   UNL     1       2.369   7.256  19.894  0.00  0.00    +0.000 A 
ATOM      4  C   UNL     1       2.463   7.439  18.514  0.00  0.00    +0.000 A 
ATOM      5  C   UNL     1       1.687   8.417  17.893  0.00  0.00    +0.000 A 
ATOM      6  C   UNL     1       0.809   9.222  18.640  0.00  0.00    +0.000 A 
ATOM      7  C   UNL     1      -0.218  10.042  17.911  0.00  0.00    +0.000 C 
ENDROOT
BRANCH   3   8
ATOM      8  N   UNL     1       2.629   5.937  20.437  0.00  0.00    +0.000 N 
ATOM      9  C   UNL     1       3.970   5.460  20.027  0.00  0.00    +0.000 C 
ATOM     10  C   UNL     1       3.664   4.601  18.842  0.00  0.00    +0.000 A 
ATOM     11  C   UNL     1       2.348   4.155  18.972  0.00  0.00    +0.000 A 
ATOM     12  C   UNL     1       1.702   3.423  17.993  0.00  0.00    +0.000 A 
ATOM     13  C   UNL     1       2.416   3.145  16.830  0.00  0.00    +0.000 A 
ATOM     14  C   UNL     1       3.736   3.611  16.673  0.00  0.00    +0.000 A 
ATOM     15  C   UNL     1       4.388   4.352  17.680  0.00  0.00    +0.000 A 
ATOM     16  C   UNL     1       1.716   4.918  20.070  0.00  0.00    +0.000 C 
ATOM     17  O   UNL     1       0.552   4.783  20.405  0.00  0.00    +0.000 OA
BRANCH  15  18
ATOM     18  C   UNL     1       5.767   4.905  17.424  0.00  0.00    +0.000 C 
ATOM     19  F   UNL     1       6.312   4.507  16.239  0.00  0.00    +0.000 F 
ATOM     20  F   UNL     1       5.763   6.268  17.371  0.00  0.00    +0.000 F 
ATOM     21  F   UNL     1       6.678   4.576  18.378  0.00  0.00    +0.000 F 
ENDBRANCH  15  18
ENDBRANCH   3   8
BRANCH   1  22
ATOM     22  C   UNL     1      -0.131   9.912  20.938  0.00  0.00    +0.000 C 
BRANCH  22  27
ATOM     23  N   UNL     1      -0.596  12.310  21.674  0.00  0.00    +0.000 N 
ATOM     24  C   UNL     1       0.186  13.435  21.755  0.00  0.00    +0.000 A 
ATOM     25  N   UNL     1       1.413  13.185  21.373  0.00  0.00    +0.000 NA
ATOM     26  N   UNL     1       1.475  11.863  21.033  0.00  0.00    +0.000 NA
ATOM     27  C   UNL     1       0.279  11.333  21.206  0.00  0.00    +0.000 A 
BRANCH  23  29
ATOM     28  C   UNL     1      -2.479  11.879  23.181  0.00  0.00    +0.000 C 
ATOM     29  C   UNL     1      -1.954  12.174  21.984  0.00  0.00    +0.000 C 
ENDBRANCH  23  29
ENDBRANCH  22  27
ENDBRANCH   1  22
TORSDOF 5
ENDMDL
MODEL 4
REMARK VINA RESULT:      -8.0      5.958     10.665
REMARK  Name = 
REMARK  6 active torsions:
REMARK  status: ('A' for Active; 'I' for Inactive)
REMARK    1  A    between atoms: C_2  and  N_3
REMARK    2  A    between atoms: C_7  and  C_8
REMARK    3  A    between atoms: C_8  and  C_9
REMARK    4  A    between atoms: C_11  and  N_12
REMARK    5  A    between atoms: C_19  and  C_20
REMARK    6  A    between atoms: C_28  and  C_29
REMARK                            x       y       z     vdW  Elec       q    Type
REMARK                         _______ _______ _______ _____ _____    ______ ____
ROOT
ATOM      1  C   UNL     1      -2.295  11.390  18.845  0.00  0.00    +0.000 A 
ATOM      2  C   UNL     1      -3.084  12.125  19.741  0.00  0.00    +0.000 A 
ATOM      3  C   UNL     1      -4.463  12.277  19.530  0.00  0.00    +0.000 A 
ATOM      4  C   UNL     1      -5.097  11.462  18.589  0.00  0.00    +0.000 A 
ATOM      5  C   UNL     1      -4.330  10.674  17.731  0.00  0.00    +0.000 A 
ATOM      6  C   UNL     1      -2.926  10.689  17.800  0.00  0.00    +0.000 A 
ATOM      7  C   UNL     1      -2.141  10.071  16.678  0.00  0.00    +0.000 C 
ENDROOT
BRANCH   3   8
ATOM      8  N   UNL     1      -5.126  13.496  19.948  0.00  0.00    +0.000 N 
ATOM      9  C   UNL     1      -4.594  13.955  21.252  0.00  0.00    +0.000 C 
ATOM     10  C   UNL     1      -5.594  13.415  22.222  0.00  0.00    +0.000 A 
ATOM     11  C   UNL     1      -6.800  13.254  21.540  0.00  0.00    +0.000 A 
ATOM     12  C   UNL     1      -7.916  12.671  22.112  0.00  0.00    +0.000 A 
ATOM     13  C   UNL     1      -7.797  12.220  23.425  0.00  0.00    +0.000 A 
ATOM     14  C   UNL     1      -6.578  12.352  24.117  0.00  0.00    +0.000 A 
ATOM     15  C   UNL     1      -5.448  12.954  23.527  0.00  0.00    +0.000 A 
ATOM     16  C   UNL     1      -6.533  13.425  20.096  0.00  0.00    +0.000 C 
ATOM     17  O   UNL     1      -7.383  13.308  19.231  0.00  0.00    +0.000 OA
BRANCH  15  18
ATOM     18  C   UNL     1      -4.141  12.986  24.280  0.00  0.00    +0.000 C 
ATOM     19  F   UNL     1      -3.140  12.279  23.682  0.00  0.00    +0.000 F 
ATOM     20  F   UNL     1      -3.656  14.256  24.394  0.00  0.00    +0.000 F 
ATOM     21  F   UNL     1      -4.225  12.508  25.549  0.00  0.00    +0.000 F 
ENDBRANCH  15  18
ENDBRANCH   3   8
BRANCH   1  22
ATOM     22  C   UNL     1      -0.787  11.528  18.964  0.00  0.00    +0.000 C 
BRANCH  22  27
ATOM     23  N   UNL     1       0.730   9.530  19.427  0.00  0.00    +0.000 N 
ATOM     24  C   UNL     1       1.054   8.841  20.569  0.00  0.00    +0.000 A 
ATOM     25  N   UNL     1       0.445   9.346  21.612  0.00  0.00    +0.000 NA
ATOM     26  N   UNL     1      -0.303  10.406  21.178  0.00  0.00    +0.000 NA
ATOM     27  C   UNL     1      -0.142  10.519  19.874  0.00  0.00    +0.000 A 
BRANCH  23  29
ATOM     28  C   UNL     1       2.308   8.693  17.750  0.00  0.00    +0.000 C 
ATOM     29  C   UNL     1       1.167   9.291  18.119  0.00  0.00    +0.000 C 
ENDBRANCH  23  29
ENDBRANCH  22  27
ENDBRANCH   1  22
TORSDOF 5
ENDMDL
MODEL 5
REMARK VINA RESULT:      -7.9      1.319      1.673
REMARK  Name = 
REMARK  6 active torsions:
REMARK  status: ('A' for Active; 'I' for Inactive)
REMARK    1  A    between atoms: C_2  and  N_3
REMARK    2  A    between atoms: C_7  and  C_8
REMARK    3  A    between atoms: C_8  and  C_9
REMARK    4  A    between atoms: C_11  and  N_12
REMARK    5  A    between atoms: C_19  and  C_20
REMARK    6  A    between atoms: C_28  and  C_29
REMARK                            x       y       z     vdW  Elec       q    Type
REMARK                         _______ _______ _______ _____ _____    ______ ____
ROOT
ATOM      1  C   UNL     1       0.863   9.077  19.977  0.00  0.00    +0.000 A 
ATOM      2  C   UNL     1       1.708   8.144  20.596  0.00  0.00    +0.000 A 
ATOM      3  C   UNL     1       2.432   7.214  19.835  0.00  0.00    +0.000 A 
ATOM      4  C   UNL     1       2.534   7.400  18.456  0.00  0.00    +0.000 A 
ATOM      5  C   UNL     1       1.749   8.368  17.830  0.00  0.00    +0.000 A 
ATOM      6  C   UNL     1       0.855   9.160  18.571  0.00  0.00    +0.000 A 
ATOM      7  C   UNL     1      -0.178   9.967  17.835  0.00  0.00    +0.000 C 
ENDROOT
BRANCH   3   8
ATOM      8  N   UNL     1       2.705   5.898  20.378  0.00  0.00    +0.000 N 
ATOM      9  C   UNL     1       4.048   5.432  19.962  0.00  0.00    +0.000 C 
ATOM     10  C   UNL     1       3.744   4.569  18.780  0.00  0.00    +0.000 A 
ATOM     11  C   UNL     1       2.433   4.112  18.917  0.00  0.00    +0.000 A 
ATOM     12  C   UNL     1       1.788   3.373  17.942  0.00  0.00    +0.000 A 
ATOM     13  C   UNL     1       2.499   3.099  16.776  0.00  0.00    +0.000 A 
ATOM     14  C   UNL     1       3.814   3.576  16.612  0.00  0.00    +0.000 A 
ATOM     15  C   UNL     1       4.465   4.324  17.615  0.00  0.00    +0.000 A 
ATOM     16  C   UNL     1       1.799   4.871  20.017  0.00  0.00    +0.000 C 
ATOM     17  O   UNL     1       0.638   4.727  20.358  0.00  0.00    +0.000 OA
BRANCH  15  18
ATOM     18  C   UNL     1       5.838   4.888  17.352  0.00  0.00    +0.000 C 
ATOM     19  F   UNL     1       6.776   4.513  18.268  0.00  0.00    +0.000 F 
ATOM     20  F   UNL     1       6.332   4.474  16.150  0.00  0.00    +0.000 F 
ATOM     21  F   UNL     1       5.878   6.246  17.318  0.00  0.00    +0.000 F 
ENDBRANCH  15  18
ENDBRANCH   3   8
BRANCH   1  22
ATOM     22  C   UNL     1      -0.112   9.834  20.862  0.00  0.00    +0.000 C 
BRANCH  22  27
ATOM     23  N   UNL     1      -0.690  12.315  20.998  0.00  0.00    +0.000 N 
ATOM     24  C   UNL     1       0.057  13.441  21.240  0.00  0.00    +0.000 A 
ATOM     25  N   UNL     1       1.314  13.138  21.440  0.00  0.00    +0.000 NA
ATOM     26  N   UNL     1       1.430  11.779  21.344  0.00  0.00    +0.000 NA
ATOM     27  C   UNL     1       0.238  11.281  21.076  0.00  0.00    +0.000 A 
BRANCH  23  29
ATOM     28  C   UNL     1      -2.646  12.219  19.527  0.00  0.00    +0.000 C 
ATOM     29  C   UNL     1      -2.061  12.226  20.732  0.00  0.00    +0.000 C 
ENDBRANCH  23  29
ENDBRANCH  22  27
ENDBRANCH   1  22
TORSDOF 5
ENDMDL
MODEL 6
REMARK VINA RESULT:      -7.9      5.530      8.330
REMARK  Name = 
REMARK  6 active torsions:
REMARK  status: ('A' for Active; 'I' for Inactive)
REMARK    1  A    between atoms: C_2  and  N_3
REMARK    2  A    between atoms: C_7  and  C_8
REMARK    3  A    between atoms: C_8  and  C_9
REMARK    4  A    between atoms: C_11  and  N_12
REMARK    5  A    between atoms: C_19  and  C_20
REMARK    6  A    between atoms: C_28  and  C_29
REMARK                            x       y       z     vdW  Elec       q    Type
REMARK                         _______ _______ _______ _____ _____    ______ ____
ROOT
ATOM      1  C   UNL     1      -4.044  12.804  21.934  0.00  0.00    +0.000 A 
ATOM      2  C   UNL     1      -3.114  12.616  20.901  0.00  0.00    +0.000 A 
ATOM      3  C   UNL     1      -1.742  12.508  21.178  0.00  0.00    +0.000 A 
ATOM      4  C   UNL     1      -1.332  12.303  22.497  0.00  0.00    +0.000 A 
ATOM      5  C   UNL     1      -2.257  12.422  23.534  0.00  0.00    +0.000 A 
ATOM      6  C   UNL     1      -3.599  12.747  23.269  0.00  0.00    +0.000 A 
ATOM      7  C   UNL     1      -4.482  13.160  24.412  0.00  0.00    +0.000 C 
ENDROOT
BRANCH   3   8
ATOM      8  N   UNL     1      -0.774  13.007  20.222  0.00  0.00    +0.000 N 
ATOM      9  C   UNL     1      -1.237  12.757  18.837  0.00  0.00    +0.000 C 
ATOM     10  C   UNL     1      -0.521  11.496  18.475  0.00  0.00    +0.000 A 
ATOM     11  C   UNL     1       0.627  11.420  19.264  0.00  0.00    +0.000 A 
ATOM     12  C   UNL     1       1.468  10.322  19.265  0.00  0.00    +0.000 A 
ATOM     13  C   UNL     1       1.122   9.254  18.440  0.00  0.00    +0.000 A 
ATOM     14  C   UNL     1      -0.048   9.305  17.658  0.00  0.00    +0.000 A 
ATOM     15  C   UNL     1      -0.896  10.432  17.660  0.00  0.00    +0.000 A 
ATOM     16  C   UNL     1       0.530  12.462  20.309  0.00  0.00    +0.000 C 
ATOM     17  O   UNL     1       1.366  12.627  21.180  0.00  0.00    +0.000 OA
BRANCH  15  18
ATOM     18  C   UNL     1      -2.182  10.398  16.874  0.00  0.00    +0.000 C 
ATOM     19  F   UNL     1      -2.327   9.287  16.096  0.00  0.00    +0.000 F 
ATOM     20  F   UNL     1      -3.274  10.400  17.693  0.00  0.00    +0.000 F 
ATOM     21  F   UNL     1      -2.346  11.457  16.040  0.00  0.00    +0.000 F 
ENDBRANCH  15  18
ENDBRANCH   3   8
BRANCH   1  22
ATOM     22  C   UNL     1      -5.452  13.218  21.542  0.00  0.00    +0.000 C 
BRANCH  22  27
ATOM     23  N   UNL     1      -6.716  11.422  20.245  0.00  0.00    +0.000 N 
ATOM     24  C   UNL     1      -7.650  10.484  20.608  0.00  0.00    +0.000 A 
ATOM     25  N   UNL     1      -7.916  10.554  21.888  0.00  0.00    +0.000 NA
ATOM     26  N   UNL     1      -7.143  11.553  22.413  0.00  0.00    +0.000 NA
ATOM     27  C   UNL     1      -6.427  12.079  21.438  0.00  0.00    +0.000 A 
BRANCH  23  29
ATOM     28  C   UNL     1      -6.686  12.476  18.033  0.00  0.00    +0.000 C 
ATOM     29  C   UNL     1      -6.182  11.666  18.975  0.00  0.00    +0.000 C 
ENDBRANCH  23  29
ENDBRANCH  22  27
ENDBRANCH   1  22
TORSDOF 5
ENDMDL
MODEL 7
REMARK VINA RESULT:      -7.8      3.528      8.257
REMARK  Name = 
REMARK  6 active torsions:
REMARK  status: ('A' for Active; 'I' for Inactive)
REMARK    1  A    between atoms: C_2  and  N_3
REMARK    2  A    between atoms: C_7  and  C_8
REMARK    3  A    between atoms: C_8  and  C_9
REMARK    4  A    between atoms: C_11  and  N_12
REMARK    5  A    between atoms: C_19  and  C_20
REMARK    6  A    between atoms: C_28  and  C_29
REMARK                            x       y       z     vdW  Elec       q    Type
REMARK                         _______ _______ _______ _____ _____    ______ ____
ROOT
ATOM      1  C   UNL     1       2.480   7.030  19.017  0.00  0.00    +0.000 A 
ATOM      2  C   UNL     1       2.404   8.312  18.455  0.00  0.00    +0.000 A 
ATOM      3  C   UNL     1       1.582   9.299  19.020  0.00  0.00    +0.000 A 
ATOM      4  C   UNL     1       1.063   9.096  20.300  0.00  0.00    +0.000 A 
ATOM      5  C   UNL     1       1.186   7.845  20.904  0.00  0.00    +0.000 A 
ATOM      6  C   UNL     1       1.826   6.784  20.240  0.00  0.00    +0.000 A 
ATOM      7  C   UNL     1       1.672   5.392  20.785  0.00  0.00    +0.000 C 
ENDROOT
BRANCH   3   8
ATOM      8  N   UNL     1       0.952  10.286  18.166  0.00  0.00    +0.000 N 
ATOM      9  C   UNL     1       1.520  11.631  18.419  0.00  0.00    +0.000 C 
ATOM     10  C   UNL     1       0.531  12.232  19.363  0.00  0.00    +0.000 A 
ATOM     11  C   UNL     1      -0.693  11.595  19.157  0.00  0.00    +0.000 A 
ATOM     12  C   UNL     1      -1.807  11.832  19.941  0.00  0.00    +0.000 A 
ATOM     13  C   UNL     1      -1.668  12.744  20.986  0.00  0.00    +0.000 A 
ATOM     14  C   UNL     1      -0.432  13.376  21.223  0.00  0.00    +0.000 A 
ATOM     15  C   UNL     1       0.697  13.131  20.413  0.00  0.00    +0.000 A 
ATOM     16  C   UNL     1      -0.453  10.419  18.293  0.00  0.00    +0.000 C 
ATOM     17  O   UNL     1      -1.323   9.634  17.960  0.00  0.00    +0.000 OA
BRANCH  15  18
ATOM     18  C   UNL     1       2.019  13.764  20.767  0.00  0.00    +0.000 C 
ATOM     19  F   UNL     1       2.535  14.554  19.783  0.00  0.00    +0.000 F 
ATOM     20  F   UNL     1       1.914  14.579  21.856  0.00  0.00    +0.000 F 
ATOM     21  F   UNL     1       2.994  12.868  21.070  0.00  0.00    +0.000 F 
ENDBRANCH  15  18
ENDBRANCH   3   8
BRANCH   1  22
ATOM     22  C   UNL     1       3.135   5.939  18.188  0.00  0.00    +0.000 C 
BRANCH  22  27
ATOM     23  N   UNL     1       5.610   5.885  17.575  0.00  0.00    +0.000 N 
ATOM     24  C   UNL     1       6.743   5.552  18.273  0.00  0.00    +0.000 A 
ATOM     25  N   UNL     1       6.454   5.201  19.501  0.00  0.00    +0.000 NA
ATOM     26  N   UNL     1       5.099   5.304  19.648  0.00  0.00    +0.000 NA
ATOM     27  C   UNL     1       4.587   5.708  18.502  0.00  0.00    +0.000 A 
BRANCH  23  29
ATOM     28  C   UNL     1       5.520   5.519  15.154  0.00  0.00    +0.000 C 
ATOM     29  C   UNL     1       5.505   6.300  16.242  0.00  0.00    +0.000 C 
ENDBRANCH  23  29
ENDBRANCH  22  27
ENDBRANCH   1  22
TORSDOF 5
ENDMDL
MODEL 8
REMARK VINA RESULT:      -7.8      3.607      8.212
REMARK  Name = 
REMARK  6 active torsions:
REMARK  status: ('A' for Active; 'I' for Inactive)
REMARK    1  A    between atoms: C_2  and  N_3
REMARK    2  A    between atoms: C_7  and  C_8
REMARK    3  A    between atoms: C_8  and  C_9
REMARK    4  A    between atoms: C_11  and  N_12
REMARK    5  A    between atoms: C_19  and  C_20
REMARK    6  A    between atoms: C_28  and  C_29
REMARK                            x       y       z     vdW  Elec       q    Type
REMARK                         _______ _______ _______ _____ _____    ______ ____
ROOT
ATOM      1  C   UNL     1       2.304   7.263  18.845  0.00  0.00    +0.000 A 
ATOM      2  C   UNL     1       2.118   8.567  18.366  0.00  0.00    +0.000 A 
ATOM      3  C   UNL     1       1.407   9.516  19.118  0.00  0.00    +0.000 A 
ATOM      4  C   UNL     1       1.132   9.248  20.460  0.00  0.00    +0.000 A 
ATOM      5  C   UNL     1       1.371   7.972  20.972  0.00  0.00    +0.000 A 
ATOM      6  C   UNL     1       1.885   6.952  20.153  0.00  0.00    +0.000 A 
ATOM      7  C   UNL     1       1.843   5.535  20.652  0.00  0.00    +0.000 C 
ENDROOT
BRANCH   3   8
ATOM      8  N   UNL     1       0.625  10.531  18.440  0.00  0.00    +0.000 N 
ATOM      9  C   UNL     1       1.220  11.871  18.650  0.00  0.00    +0.000 C 
ATOM     10  C   UNL     1       0.414  12.413  19.786  0.00  0.00    +0.000 A 
ATOM     11  C   UNL     1      -0.822  11.766  19.774  0.00  0.00    +0.000 A 
ATOM     12  C   UNL     1      -1.777  11.950  20.757  0.00  0.00    +0.000 A 
ATOM     13  C   UNL     1      -1.458  12.815  21.801  0.00  0.00    +0.000 A 
ATOM     14  C   UNL     1      -0.204  13.455  21.841  0.00  0.00    +0.000 A 
ATOM     15  C   UNL     1       0.761  13.265  20.830  0.00  0.00    +0.000 A 
ATOM     16  C   UNL     1      -0.734  10.635  18.825  0.00  0.00    +0.000 C 
ATOM     17  O   UNL     1      -1.645   9.853  18.618  0.00  0.00    +0.000 OA
BRANCH  15  18
ATOM     18  C   UNL     1       2.121  13.902  20.969  0.00  0.00    +0.000 C 
ATOM     19  F   UNL     1       2.458  14.719  19.930  0.00  0.00    +0.000 F 
ATOM     20  F   UNL     1       2.198  14.692  22.078  0.00  0.00    +0.000 F 
ATOM     21  F   UNL     1       3.138  13.008  21.081  0.00  0.00    +0.000 F 
ENDBRANCH  15  18
ENDBRANCH   3   8
BRANCH   1  22
ATOM     22  C   UNL     1       2.803   6.219  17.860  0.00  0.00    +0.000 C 
BRANCH  22  27
ATOM     23  N   UNL     1       5.281   5.718  18.195  0.00  0.00    +0.000 N 
ATOM     24  C   UNL     1       6.418   6.127  17.543  0.00  0.00    +0.000 A 
ATOM     25  N   UNL     1       6.130   6.932  16.553  0.00  0.00    +0.000 NA
ATOM     26  N   UNL     1       4.770   7.071  16.519  0.00  0.00    +0.000 NA
ATOM     27  C   UNL     1       4.256   6.352  17.499  0.00  0.00    +0.000 A 
BRANCH  23  29
ATOM     28  C   UNL     1       4.719   3.608  19.306  0.00  0.00    +0.000 C 
ATOM     29  C   UNL     1       5.176   4.868  19.301  0.00  0.00    +0.000 C 
ENDBRANCH  23  29
ENDBRANCH  22  27
ENDBRANCH   1  22
TORSDOF 5
ENDMDL
MODEL 9
REMARK VINA RESULT:      -7.8      5.858      8.556
REMARK  Name = 
REMARK  6 active torsions:
REMARK  status: ('A' for Active; 'I' for Inactive)
REMARK    1  A    between atoms: C_2  and  N_3
REMARK    2  A    between atoms: C_7  and  C_8
REMARK    3  A    between atoms: C_8  and  C_9
REMARK    4  A    between atoms: C_11  and  N_12
REMARK    5  A    between atoms: C_19  and  C_20
REMARK    6  A    between atoms: C_28  and  C_29
REMARK                            x       y       z     vdW  Elec       q    Type
REMARK                         _______ _______ _______ _____ _____    ______ ____
ROOT
ATOM      1  C   UNL     1      -4.365  13.100  21.538  0.00  0.00    +0.000 A 
ATOM      2  C   UNL     1      -3.132  12.436  21.610  0.00  0.00    +0.000 A 
ATOM      3  C   UNL     1      -2.558  12.116  22.850  0.00  0.00    +0.000 A 
ATOM      4  C   UNL     1      -3.342  12.203  24.002  0.00  0.00    +0.000 A 
ATOM      5  C   UNL     1      -4.599  12.803  23.937  0.00  0.00    +0.000 A 
ATOM      6  C   UNL     1      -5.088  13.323  22.726  0.00  0.00    +0.000 A 
ATOM      7  C   UNL     1      -6.294  14.219  22.759  0.00  0.00    +0.000 C 
ENDROOT
BRANCH   3   8
ATOM      8  N   UNL     1      -1.116  12.107  22.993  0.00  0.00    +0.000 N 
ATOM      9  C   UNL     1      -0.487  12.985  21.979  0.00  0.00    +0.000 C 
ATOM     10  C   UNL     1      -0.102  12.019  20.904  0.00  0.00    +0.000 A 
ATOM     11  C   UNL     1       0.051  10.766  21.497  0.00  0.00    +0.000 A 
ATOM     12  C   UNL     1       0.301   9.616  20.771  0.00  0.00    +0.000 A 
ATOM     13  C   UNL     1       0.385   9.742  19.386  0.00  0.00    +0.000 A 
ATOM     14  C   UNL     1       0.205  10.997  18.771  0.00  0.00    +0.000 A 
ATOM     15  C   UNL     1      -0.042  12.165  19.521  0.00  0.00    +0.000 A 
ATOM     16  C   UNL     1      -0.483  10.846  22.873  0.00  0.00    +0.000 C 
ATOM     17  O   UNL     1      -0.524   9.899  23.640  0.00  0.00    +0.000 OA
BRANCH  15  18
ATOM     18  C   UNL     1      -0.318  13.464  18.808  0.00  0.00    +0.000 C 
ATOM     19  F   UNL     1      -1.272  14.233  19.407  0.00  0.00    +0.000 F 
ATOM     20  F   UNL     1       0.792  14.256  18.755  0.00  0.00    +0.000 F 
ATOM     21  F   UNL     1      -0.722  13.311  17.520  0.00  0.00    +0.000 F 
ENDBRANCH  15  18
ENDBRANCH   3   8
BRANCH   1  22
ATOM     22  C   UNL     1      -4.770  13.683  20.195  0.00  0.00    +0.000 C 
BRANCH  22  27
ATOM     23  N   UNL     1      -5.143  11.891  18.418  0.00  0.00    +0.000 N 
ATOM     24  C   UNL     1      -6.270  11.300  17.902  0.00  0.00    +0.000 A 
ATOM     25  N   UNL     1      -7.351  11.776  18.466  0.00  0.00    +0.000 NA
ATOM     26  N   UNL     1      -6.958  12.703  19.391  0.00  0.00    +0.000 NA
ATOM     27  C   UNL     1      -5.642  12.781  19.366  0.00  0.00    +0.000 A 
BRANCH  23  29
ATOM     28  C   UNL     1      -3.224  10.469  17.873  0.00  0.00    +0.000 C 
ATOM     29  C   UNL     1      -3.808  11.659  18.070  0.00  0.00    +0.000 C 
ENDBRANCH  23  29
ENDBRANCH  22  27
ENDBRANCH   1  22
TORSDOF 5
ENDMDL
