MODEL 1
REMARK VINA RESULT:      -9.2      0.000      0.000
REMARK  Name = 
REMARK  5 active torsions:
REMARK  status: ('A' for Active; 'I' for Inactive)
REMARK    1  A    between atoms: C_2  and  C_3
REMARK    2  A    between atoms: C_3  and  C_4
REMARK    3  A    between atoms: C_4  and  N_5
REMARK    4  A    between atoms: N_16  and  C_17
REMARK    5  A    between atoms: C_20  and  N_21
REMARK                            x       y       z     vdW  Elec       q    Type
REMARK                         _______ _______ _______ _____ _____    ______ ____
ROOT
ATOM      1  O   UNL     1       0.778   4.791  20.090  0.00  0.00    +0.000 OA
ATOM      2  C   UNL     1       1.972   4.984  20.294  0.00  0.00    +0.000 C 
ATOM      3  N   UNL     1       2.640   6.188  20.173  0.00  0.00    +0.000 N 
ATOM      4  H   UNL     1       3.645   6.177  20.302  0.00  0.00    +0.000 HD
ENDROOT
BRANCH   3   5
ATOM      5  C   UNL     1       2.080   7.435  19.817  0.00  0.00    +0.000 A 
ATOM      6  C   UNL     1       2.183   8.006  18.548  0.00  0.00    +0.000 A 
ATOM      7  C   UNL     1       1.630   9.263  18.276  0.00  0.00    +0.000 A 
ATOM      8  C   UNL     1       0.956   9.974  19.277  0.00  0.00    +0.000 A 
ATOM      9  C   UNL     1       0.820   9.388  20.538  0.00  0.00    +0.000 A 
ATOM     10  C   UNL     1       1.378   8.131  20.805  0.00  0.00    +0.000 A 
BRANCH   8  11
ATOM     11  N   UNL     1       0.430  11.269  18.985  0.00  0.00    +0.000 N 
ATOM     12  N   UNL     1      -0.818  11.400  18.426  0.00  0.00    +0.000 NA
ATOM     13  C   UNL     1      -1.008  12.716  18.303  0.00  0.00    +0.000 A 
ATOM     14  C   UNL     1       0.091  13.445  18.750  0.00  0.00    +0.000 A 
ATOM     15  C   UNL     1       0.410  14.841  18.824  0.00  0.00    +0.000 A 
ATOM     16  O   UNL     1      -0.348  15.746  18.498  0.00  0.00    +0.000 OA
ATOM     17  N   UNL     1       1.680  15.071  19.314  0.00  0.00    +0.000 N 
ATOM     18  C   UNL     1       2.533  14.060  19.705  0.00  0.00    +0.000 A 
ATOM     19  N   UNL     1       2.258  12.797  19.664  0.00  0.00    +0.000 NA
ATOM     20  C   UNL     1       1.016  12.519  19.174  0.00  0.00    +0.000 A 
ATOM     21  H   UNL     1       1.964  16.036  19.378  0.00  0.00    +0.000 HD
ENDBRANCH   8  11
ENDBRANCH   3   5
BRANCH   2  22
ATOM     22  C   UNL     1       2.868   3.862  20.779  0.00  0.00    +0.000 C 
BRANCH  22  23
ATOM     23  C   UNL     1       3.081   2.836  19.670  0.00  0.00    +0.000 C 
BRANCH  23  24
ATOM     24  N   UNL     1       3.913   3.363  18.608  0.00  0.00    +0.000 N 
ATOM     25  C   UNL     1       5.152   3.914  18.802  0.00  0.00    +0.000 C 
ATOM     26  O   UNL     1       5.773   4.066  19.839  0.00  0.00    +0.000 OA
ATOM     27  C   UNL     1       5.625   4.345  17.490  0.00  0.00    +0.000 A 
ATOM     28  C   UNL     1       6.820   4.929  17.118  0.00  0.00    +0.000 A 
ATOM     29  C   UNL     1       6.982   5.241  15.763  0.00  0.00    +0.000 A 
ATOM     30  C   UNL     1       5.958   4.972  14.831  0.00  0.00    +0.000 A 
ATOM     31  C   UNL     1       4.754   4.385  15.235  0.00  0.00    +0.000 A 
ATOM     32  C   UNL     1       4.621   4.081  16.575  0.00  0.00    +0.000 A 
ATOM     33  C   UNL     1       3.508   3.476  17.305  0.00  0.00    +0.000 C 
ATOM     34  O   UNL     1       2.438   3.184  16.807  0.00  0.00    +0.000 OA
ENDBRANCH  23  24
ENDBRANCH  22  23
ENDBRANCH   2  22
TORSDOF 5
ENDMDL
MODEL 2
REMARK VINA RESULT:      -9.1      0.207      1.773
REMARK  Name = 
REMARK  5 active torsions:
REMARK  status: ('A' for Active; 'I' for Inactive)
REMARK    1  A    between atoms: C_2  and  C_3
REMARK    2  A    between atoms: C_3  and  C_4
REMARK    3  A    between atoms: C_4  and  N_5
REMARK    4  A    between atoms: N_16  and  C_17
REMARK    5  A    between atoms: C_20  and  N_21
REMARK                            x       y       z     vdW  Elec       q    Type
REMARK                         _______ _______ _______ _____ _____    ______ ____
ROOT
ATOM      1  O   UNL     1       0.573   4.792  20.335  0.00  0.00    +0.000 OA
ATOM      2  C   UNL     1       1.788   4.905  20.450  0.00  0.00    +0.000 C 
ATOM      3  N   UNL     1       2.519   6.072  20.322  0.00  0.00    +0.000 N 
ATOM      4  H   UNL     1       3.529   5.995  20.369  0.00  0.00    +0.000 HD
ENDROOT
BRANCH   3   5
ATOM      5  C   UNL     1       2.012   7.364  20.062  0.00  0.00    +0.000 A 
ATOM      6  C   UNL     1       1.348   8.148  21.005  0.00  0.00    +0.000 A 
ATOM      7  C   UNL     1       0.842   9.409  20.667  0.00  0.00    +0.000 A 
ATOM      8  C   UNL     1       0.998   9.912  19.369  0.00  0.00    +0.000 A 
ATOM      9  C   UNL     1       1.695   9.143  18.433  0.00  0.00    +0.000 A 
ATOM     10  C   UNL     1       2.196   7.881  18.777  0.00  0.00    +0.000 A 
BRANCH   8  11
ATOM     11  N   UNL     1       0.444  11.186  19.038  0.00  0.00    +0.000 N 
ATOM     12  N   UNL     1      -0.766  11.268  18.394  0.00  0.00    +0.000 NA
ATOM     13  C   UNL     1      -0.999  12.575  18.255  0.00  0.00    +0.000 A 
ATOM     14  C   UNL     1       0.038  13.347  18.774  0.00  0.00    +0.000 A 
ATOM     15  C   UNL     1       0.296  14.754  18.866  0.00  0.00    +0.000 A 
ATOM     16  O   UNL     1      -0.472  15.628  18.486  0.00  0.00    +0.000 OA
ATOM     17  N   UNL     1       1.519  15.034  19.442  0.00  0.00    +0.000 N 
ATOM     18  C   UNL     1       2.381  14.057  19.894  0.00  0.00    +0.000 A 
ATOM     19  N   UNL     1       2.159  12.784  19.837  0.00  0.00    +0.000 NA
ATOM     20  C   UNL     1       0.966  12.458  19.263  0.00  0.00    +0.000 A 
ATOM     21  H   UNL     1       1.760  16.009  19.523  0.00  0.00    +0.000 HD
ENDBRANCH   8  11
ENDBRANCH   3   5
BRANCH   2  22
ATOM     22  C   UNL     1       2.648   3.712  20.817  0.00  0.00    +0.000 C 
BRANCH  22  23
ATOM     23  C   UNL     1       2.827   2.795  19.610  0.00  0.00    +0.000 C 
BRANCH  23  24
ATOM     24  N   UNL     1       3.700   3.387  18.617  0.00  0.00    +0.000 N 
ATOM     25  C   UNL     1       3.379   3.519  17.291  0.00  0.00    +0.000 C 
ATOM     26  O   UNL     1       2.361   3.189  16.709  0.00  0.00    +0.000 OA
ATOM     27  C   UNL     1       4.537   4.128  16.643  0.00  0.00    +0.000 A 
ATOM     28  C   UNL     1       4.729   4.506  15.329  0.00  0.00    +0.000 A 
ATOM     29  C   UNL     1       5.969   5.065  15.001  0.00  0.00    +0.000 A 
ATOM     30  C   UNL     1       6.973   5.223  15.979  0.00  0.00    +0.000 A 
ATOM     31  C   UNL     1       6.755   4.826  17.303  0.00  0.00    +0.000 A 
ATOM     32  C   UNL     1       5.521   4.283  17.602  0.00  0.00    +0.000 A 
ATOM     33  C   UNL     1       4.989   3.776  18.865  0.00  0.00    +0.000 C 
ATOM     34  O   UNL     1       5.625   3.703  19.900  0.00  0.00    +0.000 OA
ENDBRANCH  23  24
ENDBRANCH  22  23
ENDBRANCH   2  22
TORSDOF 5
ENDMDL
MODEL 3
REMARK VINA RESULT:      -9.0      2.244      9.697
REMARK  Name = 
REMARK  5 active torsions:
REMARK  status: ('A' for Active; 'I' for Inactive)
REMARK    1  A    between atoms: C_2  and  C_3
REMARK    2  A    between atoms: C_3  and  C_4
REMARK    3  A    between atoms: C_4  and  N_5
REMARK    4  A    between atoms: N_16  and  C_17
REMARK    5  A    between atoms: C_20  and  N_21
REMARK                            x       y       z     vdW  Elec       q    Type
REMARK                         _______ _______ _______ _____ _____    ______ ____
ROOT
ATOM      1  O   UNL     1      -1.283  10.208  18.857  0.00  0.00    +0.000 OA
ATOM      2  C   UNL     1      -0.417  10.886  19.398  0.00  0.00    +0.000 C 
ATOM      3  N   UNL     1       0.828  10.449  19.810  0.00  0.00    +0.000 N 
ATOM      4  H   UNL     1       1.410  11.110  20.312  0.00  0.00    +0.000 HD
ENDROOT
BRANCH   3   5
ATOM      5  C   UNL     1       1.358   9.147  19.669  0.00  0.00    +0.000 A 
ATOM      6  C   UNL     1       1.382   8.197  20.690  0.00  0.00    +0.000 A 
ATOM      7  C   UNL     1       1.955   6.935  20.487  0.00  0.00    +0.000 A 
ATOM      8  C   UNL     1       2.513   6.600  19.247  0.00  0.00    +0.000 A 
ATOM      9  C   UNL     1       2.457   7.538  18.212  0.00  0.00    +0.000 A 
ATOM     10  C   UNL     1       1.886   8.799  18.422  0.00  0.00    +0.000 A 
BRANCH   8  11
ATOM     11  N   UNL     1       3.121   5.319  19.074  0.00  0.00    +0.000 N 
ATOM     12  N   UNL     1       4.489   5.204  19.025  0.00  0.00    +0.000 NA
ATOM     13  C   UNL     1       4.724   3.898  18.878  0.00  0.00    +0.000 A 
ATOM     14  C   UNL     1       3.544   3.162  18.810  0.00  0.00    +0.000 A 
ATOM     15  C   UNL     1       3.233   1.772  18.644  0.00  0.00    +0.000 A 
ATOM     16  O   UNL     1       4.066   0.879  18.559  0.00  0.00    +0.000 OA
ATOM     17  N   UNL     1       1.875   1.533  18.591  0.00  0.00    +0.000 N 
ATOM     18  C   UNL     1       0.928   2.529  18.708  0.00  0.00    +0.000 A 
ATOM     19  N   UNL     1       1.187   3.786  18.877  0.00  0.00    +0.000 NA
ATOM     20  C   UNL     1       2.520   4.072  18.922  0.00  0.00    +0.000 A 
ATOM     21  H   UNL     1       1.596   0.572  18.464  0.00  0.00    +0.000 HD
ENDBRANCH   8  11
ENDBRANCH   3   5
BRANCH   2  22
ATOM     22  C   UNL     1      -0.624  12.370  19.630  0.00  0.00    +0.000 C 
BRANCH  22  23
ATOM     23  C   UNL     1      -0.308  13.155  18.361  0.00  0.00    +0.000 C 
BRANCH  23  24
ATOM     24  N   UNL     1       0.936  13.889  18.484  0.00  0.00    +0.000 N 
ATOM     25  C   UNL     1       1.015  15.224  18.780  0.00  0.00    +0.000 C 
ATOM     26  O   UNL     1       0.117  16.021  18.987  0.00  0.00    +0.000 OA
ATOM     27  C   UNL     1       2.434  15.566  18.775  0.00  0.00    +0.000 A 
ATOM     28  C   UNL     1       3.066  16.765  19.041  0.00  0.00    +0.000 A 
ATOM     29  C   UNL     1       4.462  16.785  18.947  0.00  0.00    +0.000 A 
ATOM     30  C   UNL     1       5.180  15.626  18.587  0.00  0.00    +0.000 A 
ATOM     31  C   UNL     1       4.515  14.424  18.316  0.00  0.00    +0.000 A 
ATOM     32  C   UNL     1       3.139  14.429  18.422  0.00  0.00    +0.000 A 
ATOM     33  C   UNL     1       2.167  13.359  18.206  0.00  0.00    +0.000 C 
ATOM     34  O   UNL     1       2.450  12.241  17.817  0.00  0.00    +0.000 OA
ENDBRANCH  23  24
ENDBRANCH  22  23
ENDBRANCH   2  22
TORSDOF 5
ENDMDL
MODEL 4
REMARK VINA RESULT:      -9.0      2.176      3.921
REMARK  Name = 
REMARK  5 active torsions:
REMARK  status: ('A' for Active; 'I' for Inactive)
REMARK    1  A    between atoms: C_2  and  C_3
REMARK    2  A    between atoms: C_3  and  C_4
REMARK    3  A    between atoms: C_4  and  N_5
REMARK    4  A    between atoms: N_16  and  C_17
REMARK    5  A    between atoms: C_20  and  N_21
REMARK                            x       y       z     vdW  Elec       q    Type
REMARK                         _______ _______ _______ _____ _____    ______ ____
ROOT
ATOM      1  O   UNL     1       5.442   6.996  17.814  0.00  0.00    +0.000 OA
ATOM      2  C   UNL     1       4.563   6.368  17.234  0.00  0.00    +0.000 C 
ATOM      3  N   UNL     1       3.205   6.435  17.486  0.00  0.00    +0.000 N 
ATOM      4  H   UNL     1       2.605   5.798  16.975  0.00  0.00    +0.000 HD
ENDROOT
BRANCH   3   5
ATOM      5  C   UNL     1       2.561   7.255  18.438  0.00  0.00    +0.000 A 
ATOM      6  C   UNL     1       2.360   6.897  19.772  0.00  0.00    +0.000 A 
ATOM      7  C   UNL     1       1.682   7.748  20.653  0.00  0.00    +0.000 A 
ATOM      8  C   UNL     1       1.194   8.984  20.212  0.00  0.00    +0.000 A 
ATOM      9  C   UNL     1       1.426   9.361  18.886  0.00  0.00    +0.000 A 
ATOM     10  C   UNL     1       2.102   8.503  18.008  0.00  0.00    +0.000 A 
BRANCH   8  11
ATOM     11  N   UNL     1       0.476   9.821  21.120  0.00  0.00    +0.000 N 
ATOM     12  N   UNL     1      -0.164   9.274  22.205  0.00  0.00    +0.000 NA
ATOM     13  C   UNL     1      -0.710  10.310  22.845  0.00  0.00    +0.000 A 
ATOM     14  C   UNL     1      -0.459  11.516  22.195  0.00  0.00    +0.000 A 
ATOM     15  C   UNL     1      -0.816  12.883  22.437  0.00  0.00    +0.000 A 
ATOM     16  O   UNL     1      -1.455  13.274  23.405  0.00  0.00    +0.000 OA
ATOM     17  N   UNL     1      -0.355  13.735  21.453  0.00  0.00    +0.000 N 
ATOM     18  C   UNL     1       0.385  13.308  20.371  0.00  0.00    +0.000 A 
ATOM     19  N   UNL     1       0.733  12.082  20.144  0.00  0.00    +0.000 NA
ATOM     20  C   UNL     1       0.289  11.200  21.085  0.00  0.00    +0.000 A 
ATOM     21  H   UNL     1      -0.586  14.710  21.564  0.00  0.00    +0.000 HD
ENDBRANCH   8  11
ENDBRANCH   3   5
BRANCH   2  22
ATOM     22  C   UNL     1       4.900   5.443  16.081  0.00  0.00    +0.000 C 
BRANCH  22  23
ATOM     23  C   UNL     1       5.054   4.009  16.578  0.00  0.00    +0.000 C 
BRANCH  23  24
ATOM     24  N   UNL     1       4.153   3.725  17.677  0.00  0.00    +0.000 N 
ATOM     25  C   UNL     1       4.549   3.591  18.982  0.00  0.00    +0.000 C 
ATOM     26  O   UNL     1       5.666   3.674  19.460  0.00  0.00    +0.000 OA
ATOM     27  C   UNL     1       3.346   3.279  19.749  0.00  0.00    +0.000 A 
ATOM     28  C   UNL     1       3.179   3.079  21.105  0.00  0.00    +0.000 A 
ATOM     29  C   UNL     1       1.885   2.784  21.550  0.00  0.00    +0.000 A 
ATOM     30  C   UNL     1       0.810   2.691  20.642  0.00  0.00    +0.000 A 
ATOM     31  C   UNL     1       1.008   2.893  19.271  0.00  0.00    +0.000 A 
ATOM     32  C   UNL     1       2.292   3.189  18.858  0.00  0.00    +0.000 A 
ATOM     33  C   UNL     1       2.822   3.447  17.521  0.00  0.00    +0.000 C 
ATOM     34  O   UNL     1       2.168   3.377  16.497  0.00  0.00    +0.000 OA
ENDBRANCH  23  24
ENDBRANCH  22  23
ENDBRANCH   2  22
TORSDOF 5
ENDMDL
MODEL 5
REMARK VINA RESULT:      -9.0      2.268      4.012
REMARK  Name = 
REMARK  5 active torsions:
REMARK  status: ('A' for Active; 'I' for Inactive)
REMARK    1  A    between atoms: C_2  and  C_3
REMARK    2  A    between atoms: C_3  and  C_4
REMARK    3  A    between atoms: C_4  and  N_5
REMARK    4  A    between atoms: N_16  and  C_17
REMARK    5  A    between atoms: C_20  and  N_21
REMARK                            x       y       z     vdW  Elec       q    Type
REMARK                         _______ _______ _______ _____ _____    ______ ____
ROOT
ATOM      1  O   UNL     1       5.495   7.181  17.552  0.00  0.00    +0.000 OA
ATOM      2  C   UNL     1       4.655   6.413  17.095  0.00  0.00    +0.000 C 
ATOM      3  N   UNL     1       3.298   6.435  17.354  0.00  0.00    +0.000 N 
ATOM      4  H   UNL     1       2.737   5.687  16.961  0.00  0.00    +0.000 HD
ENDROOT
BRANCH   3   5
ATOM      5  C   UNL     1       2.606   7.357  18.170  0.00  0.00    +0.000 A 
ATOM      6  C   UNL     1       2.263   7.119  19.501  0.00  0.00    +0.000 A 
ATOM      7  C   UNL     1       1.546   8.068  20.242  0.00  0.00    +0.000 A 
ATOM      8  C   UNL     1       1.163   9.282  19.659  0.00  0.00    +0.000 A 
ATOM      9  C   UNL     1       1.538   9.537  18.336  0.00  0.00    +0.000 A 
ATOM     10  C   UNL     1       2.251   8.583  17.600  0.00  0.00    +0.000 A 
BRANCH   8  11
ATOM     11  N   UNL     1       0.404  10.219  20.423  0.00  0.00    +0.000 N 
ATOM     12  N   UNL     1       0.712  10.448  21.742  0.00  0.00    +0.000 NA
ATOM     13  C   UNL     1      -0.160  11.374  22.147  0.00  0.00    +0.000 A 
ATOM     14  C   UNL     1      -1.041  11.740  21.133  0.00  0.00    +0.000 A 
ATOM     15  C   UNL     1      -2.146  12.648  21.039  0.00  0.00    +0.000 A 
ATOM     16  O   UNL     1      -2.526  13.377  21.946  0.00  0.00    +0.000 OA
ATOM     17  N   UNL     1      -2.751  12.624  19.798  0.00  0.00    +0.000 N 
ATOM     18  C   UNL     1      -2.316  11.824  18.763  0.00  0.00    +0.000 A 
ATOM     19  N   UNL     1      -1.310  11.012  18.821  0.00  0.00    +0.000 NA
ATOM     20  C   UNL     1      -0.688  10.992  20.034  0.00  0.00    +0.000 A 
ATOM     21  H   UNL     1      -3.543  13.236  19.677  0.00  0.00    +0.000 HD
ENDBRANCH   8  11
ENDBRANCH   3   5
BRANCH   2  22
ATOM     22  C   UNL     1       5.046   5.336  16.102  0.00  0.00    +0.000 C 
BRANCH  22  23
ATOM     23  C   UNL     1       5.297   4.015  16.823  0.00  0.00    +0.000 C 
BRANCH  23  24
ATOM     24  N   UNL     1       4.301   3.768  17.846  0.00  0.00    +0.000 N 
ATOM     25  C   UNL     1       4.574   3.713  19.188  0.00  0.00    +0.000 C 
ATOM     26  O   UNL     1       5.639   3.849  19.763  0.00  0.00    +0.000 OA
ATOM     27  C   UNL     1       3.311   3.413  19.855  0.00  0.00    +0.000 A 
ATOM     28  C   UNL     1       3.019   3.281  21.198  0.00  0.00    +0.000 A 
ATOM     29  C   UNL     1       1.695   2.978  21.536  0.00  0.00    +0.000 A 
ATOM     30  C   UNL     1       0.713   2.811  20.538  0.00  0.00    +0.000 A 
ATOM     31  C   UNL     1       1.036   2.944  19.183  0.00  0.00    +0.000 A 
ATOM     32  C   UNL     1       2.347   3.249  18.876  0.00  0.00    +0.000 A 
ATOM     33  C   UNL     1       2.996   3.449  17.582  0.00  0.00    +0.000 C 
ATOM     34  O   UNL     1       2.444   3.308  16.507  0.00  0.00    +0.000 OA
ENDBRANCH  23  24
ENDBRANCH  22  23
ENDBRANCH   2  22
TORSDOF 5
ENDMDL
MODEL 6
REMARK VINA RESULT:      -9.0      2.340      4.333
REMARK  Name = 
REMARK  5 active torsions:
REMARK  status: ('A' for Active; 'I' for Inactive)
REMARK    1  A    between atoms: C_2  and  C_3
REMARK    2  A    between atoms: C_3  and  C_4
REMARK    3  A    between atoms: C_4  and  N_5
REMARK    4  A    between atoms: N_16  and  C_17
REMARK    5  A    between atoms: C_20  and  N_21
REMARK                            x       y       z     vdW  Elec       q    Type
REMARK                         _______ _______ _______ _____ _____    ______ ____
ROOT
ATOM      1  O   UNL     1       5.523   6.688  18.056  0.00  0.00    +0.000 OA
ATOM      2  C   UNL     1       4.684   6.187  17.315  0.00  0.00    +0.000 C 
ATOM      3  N   UNL     1       3.323   6.427  17.336  0.00  0.00    +0.000 N 
ATOM      4  H   UNL     1       2.745   5.879  16.709  0.00  0.00    +0.000 HD
ENDROOT
BRANCH   3   5
ATOM      5  C   UNL     1       2.633   7.313  18.193  0.00  0.00    +0.000 A 
ATOM      6  C   UNL     1       2.311   7.025  19.520  0.00  0.00    +0.000 A 
ATOM      7  C   UNL     1       1.594   7.940  20.302  0.00  0.00    +0.000 A 
ATOM      8  C   UNL     1       1.190   9.169  19.766  0.00  0.00    +0.000 A 
ATOM      9  C   UNL     1       1.543   9.473  18.448  0.00  0.00    +0.000 A 
ATOM     10  C   UNL     1       2.257   8.553  17.670  0.00  0.00    +0.000 A 
BRANCH   8  11
ATOM     11  N   UNL     1       0.431  10.071  20.572  0.00  0.00    +0.000 N 
ATOM     12  N   UNL     1       0.754  10.257  21.893  0.00  0.00    +0.000 NA
ATOM     13  C   UNL     1      -0.122  11.159  22.342  0.00  0.00    +0.000 A 
ATOM     14  C   UNL     1      -1.020  11.551  21.352  0.00  0.00    +0.000 A 
ATOM     15  C   UNL     1      -2.136  12.449  21.304  0.00  0.00    +0.000 A 
ATOM     16  O   UNL     1      -2.512  13.142  22.241  0.00  0.00    +0.000 OA
ATOM     17  N   UNL     1      -2.757  12.461  20.071  0.00  0.00    +0.000 N 
ATOM     18  C   UNL     1      -2.327  11.702  19.003  0.00  0.00    +0.000 A 
ATOM     19  N   UNL     1      -1.313  10.899  19.020  0.00  0.00    +0.000 NA
ATOM     20  C   UNL     1      -0.674  10.845  20.224  0.00  0.00    +0.000 A 
ATOM     21  H   UNL     1      -3.557  13.068  19.981  0.00  0.00    +0.000 HD
ENDBRANCH   8  11
ENDBRANCH   3   5
BRANCH   2  22
ATOM     22  C   UNL     1       5.096   5.240  16.205  0.00  0.00    +0.000 C 
BRANCH  22  23
ATOM     23  C   UNL     1       5.217   3.816  16.739  0.00  0.00    +0.000 C 
BRANCH  23  24
ATOM     24  N   UNL     1       4.243   3.552  17.779  0.00  0.00    +0.000 N 
ATOM     25  C   UNL     1       2.900   3.400  17.555  0.00  0.00    +0.000 C 
ATOM     26  O   UNL     1       2.284   3.452  16.505  0.00  0.00    +0.000 OA
ATOM     27  C   UNL     1       2.283   3.184  18.860  0.00  0.00    +0.000 A 
ATOM     28  C   UNL     1       0.966   2.944  19.198  0.00  0.00    +0.000 A 
ATOM     29  C   UNL     1       0.676   2.784  20.558  0.00  0.00    +0.000 A 
ATOM     30  C   UNL     1       1.693   2.872  21.531  0.00  0.00    +0.000 A 
ATOM     31  C   UNL     1       3.020   3.122  21.162  0.00  0.00    +0.000 A 
ATOM     32  C   UNL     1       3.281   3.271  19.815  0.00  0.00    +0.000 A 
ATOM     33  C   UNL     1       4.537   3.538  19.116  0.00  0.00    +0.000 C 
ATOM     34  O   UNL     1       5.602   3.739  19.669  0.00  0.00    +0.000 OA
ENDBRANCH  23  24
ENDBRANCH  22  23
ENDBRANCH   2  22
TORSDOF 5
ENDMDL
MODEL 7
REMARK VINA RESULT:      -9.0      2.129      4.172
REMARK  Name = 
REMARK  5 active torsions:
REMARK  status: ('A' for Active; 'I' for Inactive)
REMARK    1  A    between atoms: C_2  and  C_3
REMARK    2  A    between atoms: C_3  and  C_4
REMARK    3  A    between atoms: C_4  and  N_5
REMARK    4  A    between atoms: N_16  and  C_17
REMARK    5  A    between atoms: C_20  and  N_21
REMARK                            x       y       z     vdW  Elec       q    Type
REMARK                         _______ _______ _______ _____ _____    ______ ____
ROOT
ATOM      1  O   UNL     1       5.428   7.005  17.603  0.00  0.00    +0.000 OA
ATOM      2  C   UNL     1       4.556   6.295  17.115  0.00  0.00    +0.000 C 
ATOM      3  N   UNL     1       3.213   6.305  17.441  0.00  0.00    +0.000 N 
ATOM      4  H   UNL     1       2.623   5.606  17.005  0.00  0.00    +0.000 HD
ENDROOT
BRANCH   3   5
ATOM      5  C   UNL     1       2.576   7.149  18.378  0.00  0.00    +0.000 A 
ATOM      6  C   UNL     1       2.378   6.820  19.719  0.00  0.00    +0.000 A 
ATOM      7  C   UNL     1       1.708   7.693  20.585  0.00  0.00    +0.000 A 
ATOM      8  C   UNL     1       1.224   8.922  20.119  0.00  0.00    +0.000 A 
ATOM      9  C   UNL     1       1.453   9.269  18.784  0.00  0.00    +0.000 A 
ATOM     10  C   UNL     1       2.121   8.390  17.923  0.00  0.00    +0.000 A 
BRANCH   8  11
ATOM     11  N   UNL     1       0.514   9.781  21.012  0.00  0.00    +0.000 N 
ATOM     12  N   UNL     1      -0.303   9.250  21.980  0.00  0.00    +0.000 NA
ATOM     13  C   UNL     1      -0.790  10.302  22.640  0.00  0.00    +0.000 A 
ATOM     14  C   UNL     1      -0.329  11.507  22.115  0.00  0.00    +0.000 A 
ATOM     15  C   UNL     1      -0.546  12.889  22.425  0.00  0.00    +0.000 A 
ATOM     16  O   UNL     1      -1.238  13.294  23.350  0.00  0.00    +0.000 OA
ATOM     17  N   UNL     1       0.117  13.739  21.562  0.00  0.00    +0.000 N 
ATOM     18  C   UNL     1       0.917  13.293  20.531  0.00  0.00    +0.000 A 
ATOM     19  N   UNL     1       1.141  12.051  20.246  0.00  0.00    +0.000 NA
ATOM     20  C   UNL     1       0.495  11.173  21.065  0.00  0.00    +0.000 A 
ATOM     21  H   UNL     1      -0.008  14.725  21.725  0.00  0.00    +0.000 HD
ENDBRANCH   8  11
ENDBRANCH   3   5
BRANCH   2  22
ATOM     22  C   UNL     1       4.881   5.318  16.002  0.00  0.00    +0.000 C 
BRANCH  22  23
ATOM     23  C   UNL     1       5.166   3.934  16.577  0.00  0.00    +0.000 C 
BRANCH  23  24
ATOM     24  N   UNL     1       4.264   3.613  17.664  0.00  0.00    +0.000 N 
ATOM     25  C   UNL     1       2.924   3.372  17.507  0.00  0.00    +0.000 C 
ATOM     26  O   UNL     1       2.255   3.378  16.489  0.00  0.00    +0.000 OA
ATOM     27  C   UNL     1       2.388   3.124  18.843  0.00  0.00    +0.000 A 
ATOM     28  C   UNL     1       1.108   2.800  19.246  0.00  0.00    +0.000 A 
ATOM     29  C   UNL     1       0.896   2.628  20.619  0.00  0.00    +0.000 A 
ATOM     30  C   UNL     1       1.952   2.789  21.540  0.00  0.00    +0.000 A 
ATOM     31  C   UNL     1       3.240   3.123  21.105  0.00  0.00    +0.000 A 
ATOM     32  C   UNL     1       3.424   3.280  19.746  0.00  0.00    +0.000 A 
ATOM     33  C   UNL     1       4.624   3.625  18.985  0.00  0.00    +0.000 C 
ATOM     34  O   UNL     1       5.699   3.898  19.484  0.00  0.00    +0.000 OA
ENDBRANCH  23  24
ENDBRANCH  22  23
ENDBRANCH   2  22
TORSDOF 5
ENDMDL
MODEL 8
REMARK VINA RESULT:      -8.9      2.214      9.799
REMARK  Name = 
REMARK  5 active torsions:
REMARK  status: ('A' for Active; 'I' for Inactive)
REMARK    1  A    between atoms: C_2  and  C_3
REMARK    2  A    between atoms: C_3  and  C_4
REMARK    3  A    between atoms: C_4  and  N_5
REMARK    4  A    between atoms: N_16  and  C_17
REMARK    5  A    between atoms: C_20  and  N_21
REMARK                            x       y       z     vdW  Elec       q    Type
REMARK                         _______ _______ _______ _____ _____    ______ ____
ROOT
ATOM      1  O   UNL     1      -1.341  10.067  18.543  0.00  0.00    +0.000 OA
ATOM      2  C   UNL     1      -0.561  10.791  19.152  0.00  0.00    +0.000 C 
ATOM      3  N   UNL     1       0.703  10.446  19.592  0.00  0.00    +0.000 N 
ATOM      4  H   UNL     1       1.204  11.129  20.149  0.00  0.00    +0.000 HD
ENDROOT
BRANCH   3   5
ATOM      5  C   UNL     1       1.355   9.207  19.407  0.00  0.00    +0.000 A 
ATOM      6  C   UNL     1       1.988   8.825  18.223  0.00  0.00    +0.000 A 
ATOM      7  C   UNL     1       2.587   7.565  18.100  0.00  0.00    +0.000 A 
ATOM      8  C   UNL     1       2.566   6.661  19.170  0.00  0.00    +0.000 A 
ATOM      9  C   UNL     1       1.964   7.056  20.368  0.00  0.00    +0.000 A 
ATOM     10  C   UNL     1       1.364   8.317  20.484  0.00  0.00    +0.000 A 
BRANCH   8  11
ATOM     11  N   UNL     1       3.154   5.370  19.010  0.00  0.00    +0.000 N 
ATOM     12  N   UNL     1       4.518   5.235  18.927  0.00  0.00    +0.000 NA
ATOM     13  C   UNL     1       4.731   3.923  18.803  0.00  0.00    +0.000 A 
ATOM     14  C   UNL     1       3.541   3.201  18.782  0.00  0.00    +0.000 A 
ATOM     15  C   UNL     1       3.208   1.812  18.655  0.00  0.00    +0.000 A 
ATOM     16  O   UNL     1       4.027   0.906  18.568  0.00  0.00    +0.000 OA
ATOM     17  N   UNL     1       1.846   1.590  18.643  0.00  0.00    +0.000 N 
ATOM     18  C   UNL     1       0.916   2.602  18.763  0.00  0.00    +0.000 A 
ATOM     19  N   UNL     1       1.195   3.858  18.897  0.00  0.00    +0.000 NA
ATOM     20  C   UNL     1       2.532   4.128  18.902  0.00  0.00    +0.000 A 
ATOM     21  H   UNL     1       1.552   0.632  18.544  0.00  0.00    +0.000 HD
ENDBRANCH   8  11
ENDBRANCH   3   5
BRANCH   2  22
ATOM     22  C   UNL     1      -0.912  12.236  19.448  0.00  0.00    +0.000 C 
BRANCH  22  23
ATOM     23  C   UNL     1      -0.532  13.127  18.270  0.00  0.00    +0.000 C 
BRANCH  23  24
ATOM     24  N   UNL     1       0.604  13.970  18.584  0.00  0.00    +0.000 N 
ATOM     25  C   UNL     1       1.911  13.586  18.437  0.00  0.00    +0.000 C 
ATOM     26  O   UNL     1       2.362  12.527  18.040  0.00  0.00    +0.000 OA
ATOM     27  C   UNL     1       2.726  14.709  18.892  0.00  0.00    +0.000 A 
ATOM     28  C   UNL     1       4.098  14.862  18.926  0.00  0.00    +0.000 A 
ATOM     29  C   UNL     1       4.593  16.069  19.431  0.00  0.00    +0.000 A 
ATOM     30  C   UNL     1       3.717  17.075  19.890  0.00  0.00    +0.000 A 
ATOM     31  C   UNL     1       2.330  16.893  19.850  0.00  0.00    +0.000 A 
ATOM     32  C   UNL     1       1.867  15.696  19.341  0.00  0.00    +0.000 A 
ATOM     33  C   UNL     1       0.502  15.204  19.169  0.00  0.00    +0.000 C 
ATOM     34  O   UNL     1      -0.495  15.801  19.529  0.00  0.00    +0.000 OA
ENDBRANCH  23  24
ENDBRANCH  22  23
ENDBRANCH   2  22
TORSDOF 5
ENDMDL
MODEL 9
REMARK VINA RESULT:      -8.8      3.312     10.533
REMARK  Name = 
REMARK  5 active torsions:
REMARK  status: ('A' for Active; 'I' for Inactive)
REMARK    1  A    between atoms: C_2  and  C_3
REMARK    2  A    between atoms: C_3  and  C_4
REMARK    3  A    between atoms: C_4  and  N_5
REMARK    4  A    between atoms: N_16  and  C_17
REMARK    5  A    between atoms: C_20  and  N_21
REMARK                            x       y       z     vdW  Elec       q    Type
REMARK                         _______ _______ _______ _____ _____    ______ ____
ROOT
ATOM      1  O   UNL     1      -1.128  10.316  17.784  0.00  0.00    +0.000 OA
ATOM      2  C   UNL     1      -0.398  11.034  18.459  0.00  0.00    +0.000 C 
ATOM      3  N   UNL     1       0.741  10.640  19.135  0.00  0.00    +0.000 N 
ATOM      4  H   UNL     1       1.201  11.334  19.715  0.00  0.00    +0.000 HD
ENDROOT
BRANCH   3   5
ATOM      5  C   UNL     1       1.305   9.346  19.163  0.00  0.00    +0.000 A 
ATOM      6  C   UNL     1       1.338   8.531  20.295  0.00  0.00    +0.000 A 
ATOM      7  C   UNL     1       1.944   7.269  20.258  0.00  0.00    +0.000 A 
ATOM      8  C   UNL     1       2.527   6.796  19.076  0.00  0.00    +0.000 A 
ATOM      9  C   UNL     1       2.463   7.595  17.931  0.00  0.00    +0.000 A 
ATOM     10  C   UNL     1       1.858   8.858  17.976  0.00  0.00    +0.000 A 
BRANCH   8  11
ATOM     11  N   UNL     1       3.169   5.520  19.071  0.00  0.00    +0.000 N 
ATOM     12  N   UNL     1       4.531   5.431  19.221  0.00  0.00    +0.000 NA
ATOM     13  C   UNL     1       4.799   4.123  19.191  0.00  0.00    +0.000 A 
ATOM     14  C   UNL     1       3.649   3.359  19.007  0.00  0.00    +0.000 A 
ATOM     15  C   UNL     1       3.382   1.956  18.887  0.00  0.00    +0.000 A 
ATOM     16  O   UNL     1       4.229   1.077  18.977  0.00  0.00    +0.000 OA
ATOM     17  N   UNL     1       2.047   1.686  18.661  0.00  0.00    +0.000 N 
ATOM     18  C   UNL     1       1.082   2.668  18.582  0.00  0.00    +0.000 A 
ATOM     19  N   UNL     1       1.299   3.938  18.705  0.00  0.00    +0.000 NA
ATOM     20  C   UNL     1       2.609   4.254  18.917  0.00  0.00    +0.000 A 
ATOM     21  H   UNL     1       1.800   0.714  18.558  0.00  0.00    +0.000 HD
ENDBRANCH   8  11
ENDBRANCH   3   5
BRANCH   2  22
ATOM     22  C   UNL     1      -0.666  12.522  18.576  0.00  0.00    +0.000 C 
BRANCH  22  23
ATOM     23  C   UNL     1      -0.067  13.068  19.868  0.00  0.00    +0.000 C 
BRANCH  23  24
ATOM     24  N   UNL     1      -1.062  13.168  20.917  0.00  0.00    +0.000 N 
ATOM     25  C   UNL     1      -1.376  12.150  21.779  0.00  0.00    +0.000 C 
ATOM     26  O   UNL     1      -0.918  11.023  21.839  0.00  0.00    +0.000 OA
ATOM     27  C   UNL     1      -2.438  12.654  22.645  0.00  0.00    +0.000 A 
ATOM     28  C   UNL     1      -3.091  12.050  23.701  0.00  0.00    +0.000 A 
ATOM     29  C   UNL     1      -4.087  12.795  24.344  0.00  0.00    +0.000 A 
ATOM     30  C   UNL     1      -4.403  14.101  23.917  0.00  0.00    +0.000 A 
ATOM     31  C   UNL     1      -3.730  14.688  22.839  0.00  0.00    +0.000 A 
ATOM     32  C   UNL     1      -2.749  13.935  22.226  0.00  0.00    +0.000 A 
ATOM     33  C   UNL     1      -1.881  14.251  21.093  0.00  0.00    +0.000 C 
ATOM     34  O   UNL     1      -1.942  15.278  20.445  0.00  0.00    +0.000 OA
ENDBRANCH  23  24
ENDBRANCH  22  23
ENDBRANCH   2  22
TORSDOF 5
ENDMDL
