MODEL 1
REMARK VINA RESULT:      -7.3      0.000      0.000
REMARK  Name = 
REMARK  6 active torsions:
REMARK  status: ('A' for Active; 'I' for Inactive)
REMARK    1  A    between atoms: C_2  and  C_3
REMARK    2  A    between atoms: C_7  and  N_8
REMARK    3  A    between atoms: C_13  and  C_14
REMARK    4  A    between atoms: C_14  and  N_15
REMARK    5  A    between atoms: C_18  and  C_19
REMARK    6  A    between atoms: C_23  and  C_24
REMARK                            x       y       z     vdW  Elec       q    Type
REMARK                         _______ _______ _______ _____ _____    ______ ____
ROOT
ATOM      1  N   UNL     1      -0.242  11.285  18.509  0.00  0.00    +0.000 N 
ATOM      2  C   UNL     1       0.514  10.549  19.570  0.00  0.00    +0.000 C 
ATOM      3  C   UNL     1       0.073  11.255  20.822  0.00  0.00    +0.000 A 
ATOM      4  C   UNL     1      -0.241  12.564  20.459  0.00  0.00    +0.000 A 
ATOM      5  C   UNL     1      -0.866  13.454  21.311  0.00  0.00    +0.000 A 
ATOM      6  C   UNL     1      -1.291  12.980  22.559  0.00  0.00    +0.000 A 
ATOM      7  C   UNL     1      -0.975  11.651  22.938  0.00  0.00    +0.000 A 
ATOM      8  C   UNL     1      -0.257  10.774  22.083  0.00  0.00    +0.000 A 
ATOM      9  C   UNL     1      -0.302  12.626  18.977  0.00  0.00    +0.000 C 
ATOM     10  O   UNL     1      -0.577  13.628  18.351  0.00  0.00    +0.000 OA
ENDROOT
BRANCH   1  15
ATOM     11  C   UNL     1      -3.794  11.377  17.888  0.00  0.00    +0.000 A 
ATOM     12  C   UNL     1      -3.757  10.749  16.638  0.00  0.00    +0.000 A 
ATOM     13  C   UNL     1      -2.715   9.882  16.317  0.00  0.00    +0.000 A 
ATOM     14  C   UNL     1      -1.631   9.753  17.180  0.00  0.00    +0.000 A 
ATOM     15  C   UNL     1      -1.519  10.635  18.265  0.00  0.00    +0.000 A 
ATOM     16  C   UNL     1      -2.667  11.296  18.717  0.00  0.00    +0.000 A 
BRANCH  11  18
ATOM     17  C   UNL     1      -6.087  12.222  17.558  0.00  0.00    +0.000 C 
ATOM     18  C   UNL     1      -4.935  12.229  18.231  0.00  0.00    +0.000 C 
ENDBRANCH  11  18
ENDBRANCH   1  15
BRANCH   8  19
ATOM     19  C   UNL     1      -0.005   9.349  22.515  0.00  0.00    +0.000 C 
ATOM     20  F   UNL     1       1.262   8.913  22.275  0.00  0.00    +0.000 F 
ATOM     21  F   UNL     1      -0.201   9.178  23.852  0.00  0.00    +0.000 F 
ATOM     22  F   UNL     1      -0.829   8.455  21.900  0.00  0.00    +0.000 F 
ENDBRANCH   8  19
BRANCH   6  23
ATOM     23  C   UNL     1      -2.238  13.842  23.380  0.00  0.00    +0.000 C 
BRANCH  23  24
ATOM     24  N   UNL     1      -3.535  14.206  22.820  0.00  0.00    +0.000 NA
ATOM     25  C   UNL     1      -4.620  14.407  23.772  0.00  0.00    +0.000 C 
ATOM     26  C   UNL     1      -5.410  13.112  23.749  0.00  0.00    +0.000 C 
ATOM     27  C   UNL     1      -5.226  12.576  22.329  0.00  0.00    +0.000 C 
ATOM     28  C   UNL     1      -4.037  13.345  21.755  0.00  0.00    +0.000 C 
BRANCH  27  29
ATOM     29  C   UNL     1      -6.476  12.759  21.480  0.00  0.00    +0.000 C 
ATOM     30  F   UNL     1      -6.857  11.547  20.993  0.00  0.00    +0.000 F 
ENDBRANCH  27  29
ENDBRANCH  23  24
ENDBRANCH   6  23
TORSDOF 6
ENDMDL
MODEL 2
REMARK VINA RESULT:      -7.1      0.927      1.250
REMARK  Name = 
REMARK  6 active torsions:
REMARK  status: ('A' for Active; 'I' for Inactive)
REMARK    1  A    between atoms: C_2  and  C_3
REMARK    2  A    between atoms: C_7  and  N_8
REMARK    3  A    between atoms: C_13  and  C_14
REMARK    4  A    between atoms: C_14  and  N_15
REMARK    5  A    between atoms: C_18  and  C_19
REMARK    6  A    between atoms: C_23  and  C_24
REMARK                            x       y       z     vdW  Elec       q    Type
REMARK                         _______ _______ _______ _____ _____    ______ ____
ROOT
ATOM      1  N   UNL     1      -0.174  11.227  18.442  0.00  0.00    +0.000 N 
ATOM      2  C   UNL     1       0.584  10.502  19.508  0.00  0.00    +0.000 C 
ATOM      3  C   UNL     1       0.124  11.203  20.756  0.00  0.00    +0.000 A 
ATOM      4  C   UNL     1      -0.205  12.506  20.391  0.00  0.00    +0.000 A 
ATOM      5  C   UNL     1      -0.850  13.388  21.237  0.00  0.00    +0.000 A 
ATOM      6  C   UNL     1      -1.277  12.908  22.483  0.00  0.00    +0.000 A 
ATOM      7  C   UNL     1      -0.945  11.584  22.864  0.00  0.00    +0.000 A 
ATOM      8  C   UNL     1      -0.208  10.718  22.016  0.00  0.00    +0.000 A 
ATOM      9  C   UNL     1      -0.257  12.567  18.908  0.00  0.00    +0.000 C 
ATOM     10  O   UNL     1      -0.541  13.564  18.280  0.00  0.00    +0.000 OA
ENDROOT
BRANCH   1  15
ATOM     11  C   UNL     1      -3.748  11.256  17.953  0.00  0.00    +0.000 A 
ATOM     12  C   UNL     1      -3.739  10.734  16.655  0.00  0.00    +0.000 A 
ATOM     13  C   UNL     1      -2.684   9.929  16.227  0.00  0.00    +0.000 A 
ATOM     14  C   UNL     1      -1.567   9.765  17.038  0.00  0.00    +0.000 A 
ATOM     15  C   UNL     1      -1.440  10.558  18.189  0.00  0.00    +0.000 A 
ATOM     16  C   UNL     1      -2.590  11.143  18.733  0.00  0.00    +0.000 A 
BRANCH  11  18
ATOM     17  C   UNL     1      -6.152  11.577  18.401  0.00  0.00    +0.000 C 
ATOM     18  C   UNL     1      -4.900  12.040  18.405  0.00  0.00    +0.000 C 
ENDBRANCH  11  18
ENDBRANCH   1  15
BRANCH   8  19
ATOM     19  C   UNL     1       0.061   9.297  22.450  0.00  0.00    +0.000 C 
ATOM     20  F   UNL     1       1.322   8.862  22.175  0.00  0.00    +0.000 F 
ATOM     21  F   UNL     1      -0.095   9.135  23.793  0.00  0.00    +0.000 F 
ATOM     22  F   UNL     1      -0.778   8.395  21.867  0.00  0.00    +0.000 F 
ENDBRANCH   8  19
BRANCH   6  23
ATOM     23  C   UNL     1      -2.242  13.757  23.296  0.00  0.00    +0.000 C 
BRANCH  23  24
ATOM     24  N   UNL     1      -3.602  13.277  23.513  0.00  0.00    +0.000 NA
ATOM     25  C   UNL     1      -4.318  12.801  22.336  0.00  0.00    +0.000 C 
ATOM     26  C   UNL     1      -5.210  13.957  21.923  0.00  0.00    +0.000 C 
ATOM     27  C   UNL     1      -5.524  14.685  23.230  0.00  0.00    +0.000 C 
ATOM     28  C   UNL     1      -4.493  14.177  24.237  0.00  0.00    +0.000 C 
BRANCH  27  29
ATOM     29  C   UNL     1      -6.946  14.425  23.704  0.00  0.00    +0.000 C 
ATOM     30  F   UNL     1      -6.962  13.280  24.439  0.00  0.00    +0.000 F 
ENDBRANCH  27  29
ENDBRANCH  23  24
ENDBRANCH   6  23
TORSDOF 6
ENDMDL
MODEL 3
REMARK VINA RESULT:      -7.0      4.091      6.442
REMARK  Name = 
REMARK  6 active torsions:
REMARK  status: ('A' for Active; 'I' for Inactive)
REMARK    1  A    between atoms: C_2  and  C_3
REMARK    2  A    between atoms: C_7  and  N_8
REMARK    3  A    between atoms: C_13  and  C_14
REMARK    4  A    between atoms: C_14  and  N_15
REMARK    5  A    between atoms: C_18  and  C_19
REMARK    6  A    between atoms: C_23  and  C_24
REMARK                            x       y       z     vdW  Elec       q    Type
REMARK                         _______ _______ _______ _____ _____    ______ ____
ROOT
ATOM      1  N   UNL     1       2.665   7.066  19.346  0.00  0.00    +0.000 N 
ATOM      2  C   UNL     1       2.362   7.848  20.584  0.00  0.00    +0.000 C 
ATOM      3  C   UNL     1       1.367   8.859  20.085  0.00  0.00    +0.000 A 
ATOM      4  C   UNL     1       1.649   9.075  18.738  0.00  0.00    +0.000 A 
ATOM      5  C   UNL     1       0.822   9.795  17.898  0.00  0.00    +0.000 A 
ATOM      6  C   UNL     1      -0.406  10.239  18.410  0.00  0.00    +0.000 A 
ATOM      7  C   UNL     1      -0.701  10.026  19.780  0.00  0.00    +0.000 A 
ATOM      8  C   UNL     1       0.199   9.357  20.650  0.00  0.00    +0.000 A 
ATOM      9  C   UNL     1       2.592   8.018  18.293  0.00  0.00    +0.000 C 
ATOM     10  O   UNL     1       3.012   7.917  17.160  0.00  0.00    +0.000 OA
ENDROOT
BRANCH   1  15
ATOM     11  C   UNL     1       1.966   3.624  18.521  0.00  0.00    +0.000 A 
ATOM     12  C   UNL     1       1.586   3.223  19.806  0.00  0.00    +0.000 A 
ATOM     13  C   UNL     1       1.075   4.151  20.712  0.00  0.00    +0.000 A 
ATOM     14  C   UNL     1       1.079   5.504  20.391  0.00  0.00    +0.000 A 
ATOM     15  C   UNL     1       1.765   5.928  19.243  0.00  0.00    +0.000 A 
ATOM     16  C   UNL     1       2.032   4.994  18.235  0.00  0.00    +0.000 A 
BRANCH  11  18
ATOM     17  C   UNL     1       3.390   1.730  17.838  0.00  0.00    +0.000 C 
ATOM     18  C   UNL     1       2.434   2.620  17.563  0.00  0.00    +0.000 C 
ENDBRANCH  11  18
ENDBRANCH   1  15
BRANCH   8  19
ATOM     19  C   UNL     1      -0.198   9.103  22.085  0.00  0.00    +0.000 C 
ATOM     20  F   UNL     1       0.854   9.028  22.945  0.00  0.00    +0.000 F 
ATOM     21  F   UNL     1      -1.000  10.088  22.575  0.00  0.00    +0.000 F 
ATOM     22  F   UNL     1      -0.894   7.942  22.245  0.00  0.00    +0.000 F 
ENDBRANCH   8  19
BRANCH   6  23
ATOM     23  C   UNL     1      -1.453  10.761  17.437  0.00  0.00    +0.000 C 
BRANCH  23  24
ATOM     24  N   UNL     1      -2.832  10.303  17.564  0.00  0.00    +0.000 NA
ATOM     25  C   UNL     1      -3.514   9.946  16.326  0.00  0.00    +0.000 C 
ATOM     26  C   UNL     1      -4.359  11.158  15.979  0.00  0.00    +0.000 C 
ATOM     27  C   UNL     1      -4.704  11.784  17.331  0.00  0.00    +0.000 C 
ATOM     28  C   UNL     1      -3.726  11.165  18.328  0.00  0.00    +0.000 C 
BRANCH  27  29
ATOM     29  C   UNL     1      -6.150  11.526  17.729  0.00  0.00    +0.000 C 
ATOM     30  F   UNL     1      -6.172  10.981  18.976  0.00  0.00    +0.000 F 
ENDBRANCH  27  29
ENDBRANCH  23  24
ENDBRANCH   6  23
TORSDOF 6
ENDMDL
MODEL 4
REMARK VINA RESULT:      -7.0      7.055      9.367
REMARK  Name = 
REMARK  6 active torsions:
REMARK  status: ('A' for Active; 'I' for Inactive)
REMARK    1  A    between atoms: C_2  and  C_3
REMARK    2  A    between atoms: C_7  and  N_8
REMARK    3  A    between atoms: C_13  and  C_14
REMARK    4  A    between atoms: C_14  and  N_15
REMARK    5  A    between atoms: C_18  and  C_19
REMARK    6  A    between atoms: C_23  and  C_24
REMARK                            x       y       z     vdW  Elec       q    Type
REMARK                         _______ _______ _______ _____ _____    ______ ____
ROOT
ATOM      1  N   UNL     1       6.271   4.275  18.194  0.00  0.00    +0.000 N 
ATOM      2  C   UNL     1       5.037   3.430  18.174  0.00  0.00    +0.000 C 
ATOM      3  C   UNL     1       3.970   4.417  18.558  0.00  0.00    +0.000 A 
ATOM      4  C   UNL     1       4.580   5.382  19.356  0.00  0.00    +0.000 A 
ATOM      5  C   UNL     1       3.954   6.554  19.736  0.00  0.00    +0.000 A 
ATOM      6  C   UNL     1       2.684   6.822  19.206  0.00  0.00    +0.000 A 
ATOM      7  C   UNL     1       2.055   5.845  18.394  0.00  0.00    +0.000 A 
ATOM      8  C   UNL     1       2.678   4.609  18.082  0.00  0.00    +0.000 A 
ATOM      9  C   UNL     1       6.050   5.207  19.244  0.00  0.00    +0.000 C 
ATOM     10  O   UNL     1       6.862   5.912  19.805  0.00  0.00    +0.000 OA
ENDROOT
BRANCH   1  15
ATOM     11  C   UNL     1       5.841   4.292  14.613  0.00  0.00    +0.000 A 
ATOM     12  C   UNL     1       5.218   5.543  14.530  0.00  0.00    +0.000 A 
ATOM     13  C   UNL     1       5.446   6.509  15.508  0.00  0.00    +0.000 A 
ATOM     14  C   UNL     1       6.176   6.182  16.646  0.00  0.00    +0.000 A 
ATOM     15  C   UNL     1       6.510   4.840  16.876  0.00  0.00    +0.000 A 
ATOM     16  C   UNL     1       6.513   3.951  15.794  0.00  0.00    +0.000 A 
BRANCH  11  18
ATOM     17  C   UNL     1       6.193   3.434  12.328  0.00  0.00    +0.000 C 
ATOM     18  C   UNL     1       5.642   3.318  13.538  0.00  0.00    +0.000 C 
ENDBRANCH  11  18
ENDBRANCH   1  15
BRANCH   8  19
ATOM     19  C   UNL     1       1.986   3.633  17.160  0.00  0.00    +0.000 C 
ATOM     20  F   UNL     1       1.779   2.404  17.707  0.00  0.00    +0.000 F 
ATOM     21  F   UNL     1       0.754   4.075  16.782  0.00  0.00    +0.000 F 
ATOM     22  F   UNL     1       2.674   3.415  16.004  0.00  0.00    +0.000 F 
ENDBRANCH   8  19
BRANCH   6  23
ATOM     23  C   UNL     1       2.111   8.222  19.363  0.00  0.00    +0.000 C 
BRANCH  23  24
ATOM     24  N   UNL     1       0.914   8.414  20.173  0.00  0.00    +0.000 NA
ATOM     25  C   UNL     1       0.219   9.685  20.015  0.00  0.00    +0.000 C 
ATOM     26  C   UNL     1       0.676  10.533  21.188  0.00  0.00    +0.000 C 
ATOM     27  C   UNL     1       0.966   9.524  22.299  0.00  0.00    +0.000 C 
ATOM     28  C   UNL     1       1.062   8.167  21.604  0.00  0.00    +0.000 C 
BRANCH  27  29
ATOM     29  C   UNL     1      -0.113   9.529  23.373  0.00  0.00    +0.000 C 
ATOM     30  F   UNL     1      -0.769  10.720  23.332  0.00  0.00    +0.000 F 
ENDBRANCH  27  29
ENDBRANCH  23  24
ENDBRANCH   6  23
TORSDOF 6
ENDMDL
MODEL 5
REMARK VINA RESULT:      -6.9      9.117     11.337
REMARK  Name = 
REMARK  6 active torsions:
REMARK  status: ('A' for Active; 'I' for Inactive)
REMARK    1  A    between atoms: C_2  and  C_3
REMARK    2  A    between atoms: C_7  and  N_8
REMARK    3  A    between atoms: C_13  and  C_14
REMARK    4  A    between atoms: C_14  and  N_15
REMARK    5  A    between atoms: C_18  and  C_19
REMARK    6  A    between atoms: C_23  and  C_24
REMARK                            x       y       z     vdW  Elec       q    Type
REMARK                         _______ _______ _______ _____ _____    ______ ____
ROOT
ATOM      1  N   UNL     1      11.489  13.119  19.116  0.00  0.00    +0.000 N 
ATOM      2  C   UNL     1      11.075  12.715  20.495  0.00  0.00    +0.000 C 
ATOM      3  C   UNL     1      10.138  13.825  20.883  0.00  0.00    +0.000 A 
ATOM      4  C   UNL     1      10.549  14.962  20.191  0.00  0.00    +0.000 A 
ATOM      5  C   UNL     1       9.809  16.129  20.147  0.00  0.00    +0.000 A 
ATOM      6  C   UNL     1       8.542  16.125  20.746  0.00  0.00    +0.000 A 
ATOM      7  C   UNL     1       8.116  14.973  21.454  0.00  0.00    +0.000 A 
ATOM      8  C   UNL     1       8.925  13.812  21.561  0.00  0.00    +0.000 A 
ATOM      9  C   UNL     1      11.523  14.540  19.153  0.00  0.00    +0.000 C 
ATOM     10  O   UNL     1      12.048  15.299  18.367  0.00  0.00    +0.000 OA
ENDROOT
BRANCH   1  15
ATOM     11  C   UNL     1       9.005  10.698  18.125  0.00  0.00    +0.000 A 
ATOM     12  C   UNL     1       8.001  11.618  17.803  0.00  0.00    +0.000 A 
ATOM     13  C   UNL     1       8.332  12.916  17.419  0.00  0.00    +0.000 A 
ATOM     14  C   UNL     1       9.653  13.345  17.497  0.00  0.00    +0.000 A 
ATOM     15  C   UNL     1      10.596  12.526  18.134  0.00  0.00    +0.000 A 
ATOM     16  C   UNL     1      10.321  11.159  18.268  0.00  0.00    +0.000 A 
BRANCH  11  18
ATOM     17  C   UNL     1       7.879   8.551  17.674  0.00  0.00    +0.000 C 
ATOM     18  C   UNL     1       8.638   9.320  18.457  0.00  0.00    +0.000 C 
ENDBRANCH  11  18
ENDBRANCH   1  15
BRANCH   8  19
ATOM     19  C   UNL     1       8.392  12.592  22.275  0.00  0.00    +0.000 C 
ATOM     20  F   UNL     1       8.429  11.454  21.530  0.00  0.00    +0.000 F 
ATOM     21  F   UNL     1       9.100  12.311  23.404  0.00  0.00    +0.000 F 
ATOM     22  F   UNL     1       7.097  12.734  22.674  0.00  0.00    +0.000 F 
ENDBRANCH   8  19
BRANCH   6  23
ATOM     23  C   UNL     1       7.596  17.279  20.452  0.00  0.00    +0.000 C 
BRANCH  23  24
ATOM     24  N   UNL     1       6.503  17.080  19.507  0.00  0.00    +0.000 NA
ATOM     25  C   UNL     1       5.152  17.229  20.036  0.00  0.00    +0.000 C 
ATOM     26  C   UNL     1       4.670  15.813  20.291  0.00  0.00    +0.000 C 
ATOM     27  C   UNL     1       5.398  14.966  19.247  0.00  0.00    +0.000 C 
ATOM     28  C   UNL     1       6.540  15.843  18.735  0.00  0.00    +0.000 C 
BRANCH  27  29
ATOM     29  C   UNL     1       4.475  14.531  18.118  0.00  0.00    +0.000 C 
ATOM     30  F   UNL     1       4.479  15.491  17.153  0.00  0.00    +0.000 F 
ENDBRANCH  27  29
ENDBRANCH  23  24
ENDBRANCH   6  23
TORSDOF 6
ENDMDL
MODEL 6
REMARK VINA RESULT:      -6.8      9.312     11.817
REMARK  Name = 
REMARK  6 active torsions:
REMARK  status: ('A' for Active; 'I' for Inactive)
REMARK    1  A    between atoms: C_2  and  C_3
REMARK    2  A    between atoms: C_7  and  N_8
REMARK    3  A    between atoms: C_13  and  C_14
REMARK    4  A    between atoms: C_14  and  N_15
REMARK    5  A    between atoms: C_18  and  C_19
REMARK    6  A    between atoms: C_23  and  C_24
REMARK                            x       y       z     vdW  Elec       q    Type
REMARK                         _______ _______ _______ _____ _____    ______ ____
ROOT
ATOM      1  N   UNL     1      10.509  11.680  18.735  0.00  0.00    +0.000 N 
ATOM      2  C   UNL     1      11.045  12.912  18.078  0.00  0.00    +0.000 C 
ATOM      3  C   UNL     1       9.788  13.669  17.751  0.00  0.00    +0.000 A 
ATOM      4  C   UNL     1       8.782  12.724  17.567  0.00  0.00    +0.000 A 
ATOM      5  C   UNL     1       7.446  13.056  17.444  0.00  0.00    +0.000 A 
ATOM      6  C   UNL     1       7.086  14.400  17.613  0.00  0.00    +0.000 A 
ATOM      7  C   UNL     1       8.103  15.370  17.798  0.00  0.00    +0.000 A 
ATOM      8  C   UNL     1       9.479  15.022  17.839  0.00  0.00    +0.000 A 
ATOM      9  C   UNL     1       9.286  11.417  18.060  0.00  0.00    +0.000 C 
ATOM     10  O   UNL     1       8.633  10.395  18.059  0.00  0.00    +0.000 OA
ENDROOT
BRANCH   1  15
ATOM     11  C   UNL     1       9.986  13.766  21.630  0.00  0.00    +0.000 A 
ATOM     12  C   UNL     1       8.862  13.089  22.118  0.00  0.00    +0.000 A 
ATOM     13  C   UNL     1       8.664  11.743  21.814  0.00  0.00    +0.000 A 
ATOM     14  C   UNL     1       9.504  11.109  20.905  0.00  0.00    +0.000 A 
ATOM     15  C   UNL     1      10.418  11.881  20.171  0.00  0.00    +0.000 A 
ATOM     16  C   UNL     1      10.783  13.140  20.663  0.00  0.00    +0.000 A 
BRANCH  11  18
ATOM     17  C   UNL     1       9.362  16.150  21.734  0.00  0.00    +0.000 C 
ATOM     18  C   UNL     1      10.210  15.160  22.020  0.00  0.00    +0.000 C 
ENDBRANCH  11  18
ENDBRANCH   1  15
BRANCH   8  19
ATOM     19  C   UNL     1      10.513  16.089  18.102  0.00  0.00    +0.000 C 
ATOM     20  F   UNL     1      11.468  15.727  19.002  0.00  0.00    +0.000 F 
ATOM     21  F   UNL     1      11.191  16.434  16.972  0.00  0.00    +0.000 F 
ATOM     22  F   UNL     1       9.973  17.246  18.579  0.00  0.00    +0.000 F 
ENDBRANCH   8  19
BRANCH   6  23
ATOM     23  C   UNL     1       5.614  14.742  17.784  0.00  0.00    +0.000 C 
BRANCH  23  24
ATOM     24  N   UNL     1       5.224  15.725  18.789  0.00  0.00    +0.000 NA
ATOM     25  C   UNL     1       5.145  15.250  20.165  0.00  0.00    +0.000 C 
ATOM     26  C   UNL     1       3.670  14.992  20.409  0.00  0.00    +0.000 C 
ATOM     27  C   UNL     1       2.951  15.996  19.507  0.00  0.00    +0.000 C 
ATOM     28  C   UNL     1       4.005  16.477  18.512  0.00  0.00    +0.000 C 
BRANCH  27  29
ATOM     29  C   UNL     1       2.357  17.153  20.298  0.00  0.00    +0.000 C 
ATOM     30  F   UNL     1       2.922  17.176  21.535  0.00  0.00    +0.000 F 
ENDBRANCH  27  29
ENDBRANCH  23  24
ENDBRANCH   6  23
TORSDOF 6
ENDMDL
MODEL 7
REMARK VINA RESULT:      -6.8      7.163      9.526
REMARK  Name = 
REMARK  6 active torsions:
REMARK  status: ('A' for Active; 'I' for Inactive)
REMARK    1  A    between atoms: C_2  and  C_3
REMARK    2  A    between atoms: C_7  and  N_8
REMARK    3  A    between atoms: C_13  and  C_14
REMARK    4  A    between atoms: C_14  and  N_15
REMARK    5  A    between atoms: C_18  and  C_19
REMARK    6  A    between atoms: C_23  and  C_24
REMARK                            x       y       z     vdW  Elec       q    Type
REMARK                         _______ _______ _______ _____ _____    ______ ____
ROOT
ATOM      1  N   UNL     1       6.364   4.203  18.099  0.00  0.00    +0.000 N 
ATOM      2  C   UNL     1       5.150   3.333  18.026  0.00  0.00    +0.000 C 
ATOM      3  C   UNL     1       4.080   4.236  18.574  0.00  0.00    +0.000 A 
ATOM      4  C   UNL     1       4.703   5.113  19.459  0.00  0.00    +0.000 A 
ATOM      5  C   UNL     1       4.070   6.211  20.008  0.00  0.00    +0.000 A 
ATOM      6  C   UNL     1       2.771   6.507  19.568  0.00  0.00    +0.000 A 
ATOM      7  C   UNL     1       2.128   5.619  18.669  0.00  0.00    +0.000 A 
ATOM      8  C   UNL     1       2.764   4.449  18.181  0.00  0.00    +0.000 A 
ATOM      9  C   UNL     1       6.171   4.993  19.265  0.00  0.00    +0.000 C 
ATOM     10  O   UNL     1       6.991   5.646  19.874  0.00  0.00    +0.000 OA
ENDROOT
BRANCH   1  15
ATOM     11  C   UNL     1       6.092   4.479  14.513  0.00  0.00    +0.000 A 
ATOM     12  C   UNL     1       5.218   5.572  14.500  0.00  0.00    +0.000 A 
ATOM     13  C   UNL     1       5.190   6.464  15.570  0.00  0.00    +0.000 A 
ATOM     14  C   UNL     1       5.925   6.189  16.719  0.00  0.00    +0.000 A 
ATOM     15  C   UNL     1       6.531   4.931  16.852  0.00  0.00    +0.000 A 
ATOM     16  C   UNL     1       6.772   4.174  15.700  0.00  0.00    +0.000 A 
BRANCH  11  18
ATOM     17  C   UNL     1       5.204   3.542  12.412  0.00  0.00    +0.000 C 
ATOM     18  C   UNL     1       6.154   3.594  13.347  0.00  0.00    +0.000 C 
ENDBRANCH  11  18
ENDBRANCH   1  15
BRANCH   8  19
ATOM     19  C   UNL     1       2.052   3.575  17.175  0.00  0.00    +0.000 C 
ATOM     20  F   UNL     1       1.877   2.289  17.584  0.00  0.00    +0.000 F 
ATOM     21  F   UNL     1       0.804   4.039  16.889  0.00  0.00    +0.000 F 
ATOM     22  F   UNL     1       2.704   3.501  15.981  0.00  0.00    +0.000 F 
ENDBRANCH   8  19
BRANCH   6  23
ATOM     23  C   UNL     1       2.175   7.861  19.921  0.00  0.00    +0.000 C 
BRANCH  23  24
ATOM     24  N   UNL     1       1.277   8.510  18.973  0.00  0.00    +0.000 NA
ATOM     25  C   UNL     1       1.903   9.198  17.851  0.00  0.00    +0.000 C 
ATOM     26  C   UNL     1       1.916  10.663  18.245  0.00  0.00    +0.000 C 
ATOM     27  C   UNL     1       0.690  10.831  19.142  0.00  0.00    +0.000 C 
ATOM     28  C   UNL     1       0.285   9.414  19.545  0.00  0.00    +0.000 C 
BRANCH  27  29
ATOM     29  C   UNL     1      -0.444  11.557  18.432  0.00  0.00    +0.000 C 
ATOM     30  F   UNL     1      -1.164  10.654  17.714  0.00  0.00    +0.000 F 
ENDBRANCH  27  29
ENDBRANCH  23  24
ENDBRANCH   6  23
TORSDOF 6
ENDMDL
MODEL 8
REMARK VINA RESULT:      -6.7      8.593     12.139
REMARK  Name = 
REMARK  6 active torsions:
REMARK  status: ('A' for Active; 'I' for Inactive)
REMARK    1  A    between atoms: C_2  and  C_3
REMARK    2  A    between atoms: C_7  and  N_8
REMARK    3  A    between atoms: C_13  and  C_14
REMARK    4  A    between atoms: C_14  and  N_15
REMARK    5  A    between atoms: C_18  and  C_19
REMARK    6  A    between atoms: C_23  and  C_24
REMARK                            x       y       z     vdW  Elec       q    Type
REMARK                         _______ _______ _______ _____ _____    ______ ____
ROOT
ATOM      1  N   UNL     1       4.238   4.576  19.086  0.00  0.00    +0.000 N 
ATOM      2  C   UNL     1       5.543   5.272  19.303  0.00  0.00    +0.000 C 
ATOM      3  C   UNL     1       6.203   5.136  17.959  0.00  0.00    +0.000 A 
ATOM      4  C   UNL     1       5.709   3.968  17.382  0.00  0.00    +0.000 A 
ATOM      5  C   UNL     1       5.941   3.618  16.065  0.00  0.00    +0.000 A 
ATOM      6  C   UNL     1       6.622   4.536  15.253  0.00  0.00    +0.000 A 
ATOM      7  C   UNL     1       7.131   5.726  15.832  0.00  0.00    +0.000 A 
ATOM      8  C   UNL     1       6.955   6.030  17.207  0.00  0.00    +0.000 A 
ATOM      9  C   UNL     1       4.539   3.522  18.181  0.00  0.00    +0.000 C 
ATOM     10  O   UNL     1       3.873   2.543  17.919  0.00  0.00    +0.000 OA
ENDROOT
BRANCH   1  15
ATOM     11  C   UNL     1       2.138   7.460  19.617  0.00  0.00    +0.000 A 
ATOM     12  C   UNL     1       2.665   8.239  18.581  0.00  0.00    +0.000 A 
ATOM     13  C   UNL     1       3.257   7.631  17.475  0.00  0.00    +0.000 A 
ATOM     14  C   UNL     1       3.458   6.254  17.468  0.00  0.00    +0.000 A 
ATOM     15  C   UNL     1       3.232   5.529  18.646  0.00  0.00    +0.000 A 
ATOM     16  C   UNL     1       2.408   6.085  19.632  0.00  0.00    +0.000 A 
BRANCH  11  18
ATOM     17  C   UNL     1       0.671   9.186  20.593  0.00  0.00    +0.000 C 
ATOM     18  C   UNL     1       1.458   8.118  20.736  0.00  0.00    +0.000 C 
ENDBRANCH  11  18
ENDBRANCH   1  15
BRANCH   8  19
ATOM     19  C   UNL     1       7.464   7.343  17.753  0.00  0.00    +0.000 C 
ATOM     20  F   UNL     1       8.176   7.225  18.907  0.00  0.00    +0.000 F 
ATOM     21  F   UNL     1       8.294   7.974  16.876  0.00  0.00    +0.000 F 
ATOM     22  F   UNL     1       6.465   8.229  18.022  0.00  0.00    +0.000 F 
ENDBRANCH   8  19
BRANCH   6  23
ATOM     23  C   UNL     1       6.624   4.314  13.748  0.00  0.00    +0.000 C 
BRANCH  23  24
ATOM     24  N   UNL     1       5.732   3.311  13.177  0.00  0.00    +0.000 NA
ATOM     25  C   UNL     1       6.293   2.462  12.133  0.00  0.00    +0.000 C 
ATOM     26  C   UNL     1       5.809   3.070  10.829  0.00  0.00    +0.000 C 
ATOM     27  C   UNL     1       4.464   3.707  11.179  0.00  0.00    +0.000 C 
ATOM     28  C   UNL     1       4.440   3.796  12.704  0.00  0.00    +0.000 C 
BRANCH  27  29
ATOM     29  C   UNL     1       3.291   2.898  10.646  0.00  0.00    +0.000 C 
ATOM     30  F   UNL     1       2.806   3.509   9.531  0.00  0.00    +0.000 F 
ENDBRANCH  27  29
ENDBRANCH  23  24
ENDBRANCH   6  23
TORSDOF 6
ENDMDL
MODEL 9
REMARK VINA RESULT:      -6.7      1.902      2.559
REMARK  Name = 
REMARK  6 active torsions:
REMARK  status: ('A' for Active; 'I' for Inactive)
REMARK    1  A    between atoms: C_2  and  C_3
REMARK    2  A    between atoms: C_7  and  N_8
REMARK    3  A    between atoms: C_13  and  C_14
REMARK    4  A    between atoms: C_14  and  N_15
REMARK    5  A    between atoms: C_18  and  C_19
REMARK    6  A    between atoms: C_23  and  C_24
REMARK                            x       y       z     vdW  Elec       q    Type
REMARK                         _______ _______ _______ _____ _____    ______ ____
ROOT
ATOM      1  N   UNL     1      -0.345  11.358  18.436  0.00  0.00    +0.000 N 
ATOM      2  C   UNL     1       0.452  10.574  19.429  0.00  0.00    +0.000 C 
ATOM      3  C   UNL     1      -0.002  11.164  20.736  0.00  0.00    +0.000 A 
ATOM      4  C   UNL     1      -0.373  12.482  20.478  0.00  0.00    +0.000 A 
ATOM      5  C   UNL     1      -1.025  13.278  21.401  0.00  0.00    +0.000 A 
ATOM      6  C   UNL     1      -1.416  12.692  22.613  0.00  0.00    +0.000 A 
ATOM      7  C   UNL     1      -1.041  11.352  22.885  0.00  0.00    +0.000 A 
ATOM      8  C   UNL     1      -0.298  10.574  21.959  0.00  0.00    +0.000 A 
ATOM      9  C   UNL     1      -0.454  12.655  19.006  0.00  0.00    +0.000 C 
ATOM     10  O   UNL     1      -0.777  13.690  18.462  0.00  0.00    +0.000 OA
ENDROOT
BRANCH   1  15
ATOM     11  C   UNL     1      -3.883  11.360  17.732  0.00  0.00    +0.000 A 
ATOM     12  C   UNL     1      -3.800  10.751  16.475  0.00  0.00    +0.000 A 
ATOM     13  C   UNL     1      -2.726   9.918  16.166  0.00  0.00    +0.000 A 
ATOM     14  C   UNL     1      -1.659   9.807  17.053  0.00  0.00    +0.000 A 
ATOM     15  C   UNL     1      -1.597  10.675  18.152  0.00  0.00    +0.000 A 
ATOM     16  C   UNL     1      -2.774  11.298  18.586  0.00  0.00    +0.000 A 
BRANCH  11  18
ATOM     17  C   UNL     1      -6.042  12.424  17.197  0.00  0.00    +0.000 C 
ATOM     18  C   UNL     1      -5.056  12.174  18.060  0.00  0.00    +0.000 C 
ENDBRANCH  11  18
ENDBRANCH   1  15
BRANCH   8  19
ATOM     19  C   UNL     1       0.017   9.132  22.277  0.00  0.00    +0.000 C 
ATOM     20  F   UNL     1      -0.177   8.796  23.582  0.00  0.00    +0.000 F 
ATOM     21  F   UNL     1      -0.757   8.270  21.561  0.00  0.00    +0.000 F 
ATOM     22  F   UNL     1       1.307   8.796  21.995  0.00  0.00    +0.000 F 
ENDBRANCH   8  19
BRANCH   6  23
ATOM     23  C   UNL     1      -2.388  13.448  23.506  0.00  0.00    +0.000 C 
BRANCH  23  24
ATOM     24  N   UNL     1      -2.366  14.906  23.505  0.00  0.00    +0.000 NA
ATOM     25  C   UNL     1      -1.420  15.541  24.415  0.00  0.00    +0.000 C 
ATOM     26  C   UNL     1      -2.245  15.943  25.624  0.00  0.00    +0.000 C 
ATOM     27  C   UNL     1      -3.642  16.211  25.062  0.00  0.00    +0.000 C 
ATOM     28  C   UNL     1      -3.654  15.567  23.677  0.00  0.00    +0.000 C 
BRANCH  27  29
ATOM     29  C   UNL     1      -3.955  17.699  24.992  0.00  0.00    +0.000 C 
ATOM     30  F   UNL     1      -4.912  17.991  25.914  0.00  0.00    +0.000 F 
ENDBRANCH  27  29
ENDBRANCH  23  24
ENDBRANCH   6  23
TORSDOF 6
ENDMDL
