MODEL 1
REMARK VINA RESULT:      -8.1      0.000      0.000
REMARK  Name = 
REMARK  3 active torsions:
REMARK  status: ('A' for Active; 'I' for Inactive)
REMARK    1  A    between atoms: C_2  and  C_16
REMARK    2  A    between atoms: N_3  and  C_4
REMARK    3  A    between atoms: C_7  and  C_8
REMARK                            x       y       z     vdW  Elec       q    Type
REMARK                         _______ _______ _______ _____ _____    ______ ____
ROOT
ATOM      1  O   UNL     1       7.564   9.738  17.616  0.00  0.00    +0.000 OA
ATOM      2  C   UNL     1       8.499   9.342  18.303  0.00  0.00    +0.000 C 
ATOM      3  N   UNL     1       8.651   8.069  18.823  0.00  0.00    +0.000 N 
ATOM      4  H   UNL     1       9.355   7.920  19.533  0.00  0.00    +0.000 HD
ENDROOT
BRANCH   2   5
ATOM      5  C   UNL     1       9.533  10.331  18.673  0.00  0.00    +0.000 A 
ATOM      6  C   UNL     1       9.575  10.763  20.004  0.00  0.00    +0.000 A 
ATOM      7  C   UNL     1      10.498  11.729  20.379  0.00  0.00    +0.000 A 
ATOM      8  F   UNL     1      10.539  12.140  21.653  0.00  0.00    +0.000 F 
ATOM      9  C   UNL     1      11.370  12.280  19.453  0.00  0.00    +0.000 A 
ATOM     10  C   UNL     1      11.309  11.852  18.133  0.00  0.00    +0.000 A 
ATOM     11  F   UNL     1      12.134  12.393  17.227  0.00  0.00    +0.000 F 
ATOM     12  C   UNL     1      10.400  10.881  17.725  0.00  0.00    +0.000 A 
ENDBRANCH   2   5
BRANCH   3  13
ATOM     13  C   UNL     1       7.732   7.019  18.593  0.00  0.00    +0.000 A 
ATOM     14  C   UNL     1       6.858   6.963  17.527  0.00  0.00    +0.000 A 
ATOM     15  N   UNL     1       5.944   5.991  17.353  0.00  0.00    +0.000 NA
ATOM     16  C   UNL     1       5.894   5.023  18.284  0.00  0.00    +0.000 A 
ATOM     17  N   UNL     1       6.734   4.947  19.339  0.00  0.00    +0.000 NA
ATOM     18  C   UNL     1       7.637   5.948  19.461  0.00  0.00    +0.000 A 
BRANCH  16  19
ATOM     19  C   UNL     1       4.847   3.999  18.119  0.00  0.00    +0.000 A 
ATOM     20  C   UNL     1       4.688   2.970  19.073  0.00  0.00    +0.000 A 
ATOM     21  C   UNL     1       3.691   2.003  18.953  0.00  0.00    +0.000 A 
ATOM     22  C   UNL     1       2.825   2.038  17.866  0.00  0.00    +0.000 A 
ATOM     23  C   UNL     1       2.969   3.027  16.897  0.00  0.00    +0.000 A 
ATOM     24  C   UNL     1       3.971   3.995  17.020  0.00  0.00    +0.000 A 
ENDBRANCH  16  19
ENDBRANCH   3  13
TORSDOF 3
ENDMDL
MODEL 2
REMARK VINA RESULT:      -8.0      0.115      1.010
REMARK  Name = 
REMARK  3 active torsions:
REMARK  status: ('A' for Active; 'I' for Inactive)
REMARK    1  A    between atoms: C_2  and  C_16
REMARK    2  A    between atoms: N_3  and  C_4
REMARK    3  A    between atoms: C_7  and  C_8
REMARK                            x       y       z     vdW  Elec       q    Type
REMARK                         _______ _______ _______ _____ _____    ______ ____
ROOT
ATOM      1  O   UNL     1       7.499   9.866  17.775  0.00  0.00    +0.000 OA
ATOM      2  C   UNL     1       8.498   9.442  18.347  0.00  0.00    +0.000 C 
ATOM      3  N   UNL     1       8.708   8.142  18.770  0.00  0.00    +0.000 N 
ATOM      4  H   UNL     1       9.477   7.960  19.401  0.00  0.00    +0.000 HD
ENDROOT
BRANCH   2   5
ATOM      5  C   UNL     1       9.552  10.422  18.681  0.00  0.00    +0.000 A 
ATOM      6  C   UNL     1       9.635  10.864  20.007  0.00  0.00    +0.000 A 
ATOM      7  C   UNL     1      10.578  11.823  20.349  0.00  0.00    +0.000 A 
ATOM      8  F   UNL     1      10.658  12.244  21.617  0.00  0.00    +0.000 F 
ATOM      9  C   UNL     1      11.432  12.355  19.395  0.00  0.00    +0.000 A 
ATOM     10  C   UNL     1      11.331  11.917  18.080  0.00  0.00    +0.000 A 
ATOM     11  F   UNL     1      12.138  12.440  17.148  0.00  0.00    +0.000 F 
ATOM     12  C   UNL     1      10.400  10.953  17.706  0.00  0.00    +0.000 A 
ENDBRANCH   2   5
BRANCH   3  13
ATOM     13  C   UNL     1       7.782   7.095  18.560  0.00  0.00    +0.000 A 
ATOM     14  C   UNL     1       6.844   7.069  17.550  0.00  0.00    +0.000 A 
ATOM     15  N   UNL     1       5.924   6.098  17.399  0.00  0.00    +0.000 NA
ATOM     16  C   UNL     1       5.937   5.098  18.297  0.00  0.00    +0.000 A 
ATOM     17  N   UNL     1       6.842   4.991  19.294  0.00  0.00    +0.000 NA
ATOM     18  C   UNL     1       7.746   5.993  19.395  0.00  0.00    +0.000 A 
BRANCH  16  19
ATOM     19  C   UNL     1       4.887   4.073  18.161  0.00  0.00    +0.000 A 
ATOM     20  C   UNL     1       4.031   4.063  17.039  0.00  0.00    +0.000 A 
ATOM     21  C   UNL     1       3.046   3.090  16.874  0.00  0.00    +0.000 A 
ATOM     22  C   UNL     1       2.887   2.100  17.837  0.00  0.00    +0.000 A 
ATOM     23  C   UNL     1       3.701   2.095  18.966  0.00  0.00    +0.000 A 
ATOM     24  C   UNL     1       4.688   3.072  19.128  0.00  0.00    +0.000 A 
ENDBRANCH  16  19
ENDBRANCH   3  13
TORSDOF 3
ENDMDL
MODEL 3
REMARK VINA RESULT:      -7.7      8.515     10.343
REMARK  Name = 
REMARK  3 active torsions:
REMARK  status: ('A' for Active; 'I' for Inactive)
REMARK    1  A    between atoms: C_2  and  C_16
REMARK    2  A    between atoms: N_3  and  C_4
REMARK    3  A    between atoms: C_7  and  C_8
REMARK                            x       y       z     vdW  Elec       q    Type
REMARK                         _______ _______ _______ _____ _____    ______ ____
ROOT
ATOM      1  O   UNL     1       2.282   8.427  18.763  0.00  0.00    +0.000 OA
ATOM      2  C   UNL     1       2.172   7.506  19.564  0.00  0.00    +0.000 C 
ATOM      3  N   UNL     1       1.545   7.564  20.796  0.00  0.00    +0.000 N 
ATOM      4  H   UNL     1       1.692   6.804  21.447  0.00  0.00    +0.000 HD
ENDROOT
BRANCH   2   5
ATOM      5  C   UNL     1       2.828   6.228  19.219  0.00  0.00    +0.000 A 
ATOM      6  C   UNL     1       3.377   6.102  17.937  0.00  0.00    +0.000 A 
ATOM      7  C   UNL     1       3.956   4.900  17.557  0.00  0.00    +0.000 A 
ATOM      8  F   UNL     1       4.483   4.782  16.332  0.00  0.00    +0.000 F 
ATOM      9  C   UNL     1       3.989   3.819  18.425  0.00  0.00    +0.000 A 
ATOM     10  C   UNL     1       3.430   3.952  19.689  0.00  0.00    +0.000 A 
ATOM     11  F   UNL     1       3.439   2.908  20.527  0.00  0.00    +0.000 F 
ATOM     12  C   UNL     1       2.847   5.146  20.103  0.00  0.00    +0.000 A 
ENDBRANCH   2   5
BRANCH   3  13
ATOM     13  C   UNL     1       0.902   8.722  21.289  0.00  0.00    +0.000 A 
ATOM     14  C   UNL     1       0.973   9.161  22.594  0.00  0.00    +0.000 A 
ATOM     15  N   UNL     1       0.304  10.229  23.068  0.00  0.00    +0.000 NA
ATOM     16  C   UNL     1      -0.476  10.897  22.201  0.00  0.00    +0.000 A 
ATOM     17  N   UNL     1      -0.581  10.590  20.890  0.00  0.00    +0.000 NA
ATOM     18  C   UNL     1       0.118   9.511  20.468  0.00  0.00    +0.000 A 
BRANCH  16  19
ATOM     19  C   UNL     1      -1.253  12.025  22.743  0.00  0.00    +0.000 A 
ATOM     20  C   UNL     1      -2.539  11.819  23.289  0.00  0.00    +0.000 A 
ATOM     21  C   UNL     1      -3.285  12.864  23.831  0.00  0.00    +0.000 A 
ATOM     22  C   UNL     1      -2.763  14.153  23.835  0.00  0.00    +0.000 A 
ATOM     23  C   UNL     1      -1.508  14.394  23.285  0.00  0.00    +0.000 A 
ATOM     24  C   UNL     1      -0.762  13.342  22.742  0.00  0.00    +0.000 A 
ENDBRANCH  16  19
ENDBRANCH   3  13
TORSDOF 3
ENDMDL
MODEL 4
REMARK VINA RESULT:      -7.7      0.183      1.720
REMARK  Name = 
REMARK  3 active torsions:
REMARK  status: ('A' for Active; 'I' for Inactive)
REMARK    1  A    between atoms: C_2  and  C_16
REMARK    2  A    between atoms: N_3  and  C_4
REMARK    3  A    between atoms: C_7  and  C_8
REMARK                            x       y       z     vdW  Elec       q    Type
REMARK                         _______ _______ _______ _____ _____    ______ ____
ROOT
ATOM      1  O   UNL     1       7.483   9.851  17.651  0.00  0.00    +0.000 OA
ATOM      2  C   UNL     1       8.450   9.460  18.294  0.00  0.00    +0.000 C 
ATOM      3  N   UNL     1       8.648   8.178  18.776  0.00  0.00    +0.000 N 
ATOM      4  H   UNL     1       9.380   8.028  19.457  0.00  0.00    +0.000 HD
ENDROOT
BRANCH   2   5
ATOM      5  C   UNL     1       9.474  10.463  18.652  0.00  0.00    +0.000 A 
ATOM      6  C   UNL     1      10.291  10.955  17.627  0.00  0.00    +0.000 A 
ATOM      7  C   UNL     1      11.299  11.860  17.932  0.00  0.00    +0.000 A 
ATOM      8  F   UNL     1      12.078  12.331  16.950  0.00  0.00    +0.000 F 
ATOM      9  C   UNL     1      11.514  12.274  19.237  0.00  0.00    +0.000 A 
ATOM     10  C   UNL     1      10.704  11.769  20.247  0.00  0.00    +0.000 A 
ATOM     11  F   UNL     1      10.918  12.148  21.513  0.00  0.00    +0.000 F 
ATOM     12  C   UNL     1       9.682  10.865  19.974  0.00  0.00    +0.000 A 
ENDBRANCH   2   5
BRANCH   3  13
ATOM     13  C   UNL     1       7.746   7.114  18.551  0.00  0.00    +0.000 A 
ATOM     14  C   UNL     1       6.806   7.083  17.542  0.00  0.00    +0.000 A 
ATOM     15  N   UNL     1       5.909   6.093  17.377  0.00  0.00    +0.000 NA
ATOM     16  C   UNL     1       5.946   5.080  18.260  0.00  0.00    +0.000 A 
ATOM     17  N   UNL     1       6.854   4.978  19.254  0.00  0.00    +0.000 NA
ATOM     18  C   UNL     1       7.736   5.999  19.368  0.00  0.00    +0.000 A 
BRANCH  16  19
ATOM     19  C   UNL     1       4.919   4.034  18.110  0.00  0.00    +0.000 A 
ATOM     20  C   UNL     1       4.686   3.099  19.141  0.00  0.00    +0.000 A 
ATOM     21  C   UNL     1       3.704   2.115  19.035  0.00  0.00    +0.000 A 
ATOM     22  C   UNL     1       2.929   2.037  17.883  0.00  0.00    +0.000 A 
ATOM     23  C   UNL     1       3.149   2.930  16.839  0.00  0.00    +0.000 A 
ATOM     24  C   UNL     1       4.135   3.916  16.949  0.00  0.00    +0.000 A 
ENDBRANCH  16  19
ENDBRANCH   3  13
TORSDOF 3
ENDMDL
MODEL 5
REMARK VINA RESULT:      -7.6      6.921      8.419
REMARK  Name = 
REMARK  3 active torsions:
REMARK  status: ('A' for Active; 'I' for Inactive)
REMARK    1  A    between atoms: C_2  and  C_16
REMARK    2  A    between atoms: N_3  and  C_4
REMARK    3  A    between atoms: C_7  and  C_8
REMARK                            x       y       z     vdW  Elec       q    Type
REMARK                         _______ _______ _______ _____ _____    ______ ____
ROOT
ATOM      1  O   UNL     1       2.391   5.461  17.832  0.00  0.00    +0.000 OA
ATOM      2  C   UNL     1       3.411   6.140  17.879  0.00  0.00    +0.000 C 
ATOM      3  N   UNL     1       3.483   7.486  18.189  0.00  0.00    +0.000 N 
ATOM      4  H   UNL     1       4.348   7.977  18.002  0.00  0.00    +0.000 HD
ENDROOT
BRANCH   2   5
ATOM      5  C   UNL     1       4.679   5.481  17.504  0.00  0.00    +0.000 A 
ATOM      6  C   UNL     1       5.810   5.753  18.284  0.00  0.00    +0.000 A 
ATOM      7  C   UNL     1       7.031   5.195  17.933  0.00  0.00    +0.000 A 
ATOM      8  F   UNL     1       8.111   5.453  18.681  0.00  0.00    +0.000 F 
ATOM      9  C   UNL     1       7.149   4.381  16.817  0.00  0.00    +0.000 A 
ATOM     10  C   UNL     1       6.022   4.129  16.045  0.00  0.00    +0.000 A 
ATOM     11  F   UNL     1       6.130   3.362  14.953  0.00  0.00    +0.000 F 
ATOM     12  C   UNL     1       4.782   4.669  16.372  0.00  0.00    +0.000 A 
ENDBRANCH   2   5
BRANCH   3  13
ATOM     13  C   UNL     1       2.358   8.268  18.534  0.00  0.00    +0.000 A 
ATOM     14  C   UNL     1       1.657   9.064  17.652  0.00  0.00    +0.000 A 
ATOM     15  N   UNL     1       0.626   9.855  18.005  0.00  0.00    +0.000 NA
ATOM     16  C   UNL     1       0.271   9.855  19.302  0.00  0.00    +0.000 A 
ATOM     17  N   UNL     1       0.849   9.078  20.242  0.00  0.00    +0.000 NA
ATOM     18  C   UNL     1       1.876   8.298  19.829  0.00  0.00    +0.000 A 
BRANCH  16  19
ATOM     19  C   UNL     1      -0.816  10.771  19.689  0.00  0.00    +0.000 A 
ATOM     20  C   UNL     1      -0.855  11.337  20.982  0.00  0.00    +0.000 A 
ATOM     21  C   UNL     1      -1.858  12.226  21.366  0.00  0.00    +0.000 A 
ATOM     22  C   UNL     1      -2.858  12.568  20.463  0.00  0.00    +0.000 A 
ATOM     23  C   UNL     1      -2.861  12.010  19.188  0.00  0.00    +0.000 A 
ATOM     24  C   UNL     1      -1.853  11.119  18.806  0.00  0.00    +0.000 A 
ENDBRANCH  16  19
ENDBRANCH   3  13
TORSDOF 3
ENDMDL
MODEL 6
REMARK VINA RESULT:      -7.6      8.616     10.332
REMARK  Name = 
REMARK  3 active torsions:
REMARK  status: ('A' for Active; 'I' for Inactive)
REMARK    1  A    between atoms: C_2  and  C_16
REMARK    2  A    between atoms: N_3  and  C_4
REMARK    3  A    between atoms: C_7  and  C_8
REMARK                            x       y       z     vdW  Elec       q    Type
REMARK                         _______ _______ _______ _____ _____    ______ ____
ROOT
ATOM      1  O   UNL     1       2.206   8.376  18.979  0.00  0.00    +0.000 OA
ATOM      2  C   UNL     1       2.067   7.465  19.788  0.00  0.00    +0.000 C 
ATOM      3  N   UNL     1       1.416   7.545  21.006  0.00  0.00    +0.000 N 
ATOM      4  H   UNL     1       1.540   6.790  21.668  0.00  0.00    +0.000 HD
ENDROOT
BRANCH   2   5
ATOM      5  C   UNL     1       2.714   6.175  19.470  0.00  0.00    +0.000 A 
ATOM      6  C   UNL     1       2.458   5.091  20.319  0.00  0.00    +0.000 A 
ATOM      7  C   UNL     1       3.087   3.877  20.084  0.00  0.00    +0.000 A 
ATOM      8  F   UNL     1       2.840   2.840  20.895  0.00  0.00    +0.000 F 
ATOM      9  C   UNL     1       3.972   3.725  19.027  0.00  0.00    +0.000 A 
ATOM     10  C   UNL     1       4.227   4.812  18.200  0.00  0.00    +0.000 A 
ATOM     11  F   UNL     1       5.095   4.680  17.190  0.00  0.00    +0.000 F 
ATOM     12  C   UNL     1       3.608   6.041  18.406  0.00  0.00    +0.000 A 
ENDBRANCH   2   5
BRANCH   3  13
ATOM     13  C   UNL     1       0.778   8.716  21.473  0.00  0.00    +0.000 A 
ATOM     14  C   UNL     1       0.819   9.164  22.777  0.00  0.00    +0.000 A 
ATOM     15  N   UNL     1       0.154  10.245  23.224  0.00  0.00    +0.000 NA
ATOM     16  C   UNL     1      -0.590  10.920  22.331  0.00  0.00    +0.000 A 
ATOM     17  N   UNL     1      -0.662  10.605  21.020  0.00  0.00    +0.000 NA
ATOM     18  C   UNL     1       0.031   9.512  20.625  0.00  0.00    +0.000 A 
BRANCH  16  19
ATOM     19  C   UNL     1      -1.364  12.064  22.844  0.00  0.00    +0.000 A 
ATOM     20  C   UNL     1      -0.810  13.362  22.852  0.00  0.00    +0.000 A 
ATOM     21  C   UNL     1      -1.530  14.466  23.309  0.00  0.00    +0.000 A 
ATOM     22  C   UNL     1      -2.828  14.296  23.777  0.00  0.00    +0.000 A 
ATOM     23  C   UNL     1      -3.395  13.025  23.802  0.00  0.00    +0.000 A 
ATOM     24  C   UNL     1      -2.670  11.920  23.343  0.00  0.00    +0.000 A 
ENDBRANCH  16  19
ENDBRANCH   3  13
TORSDOF 3
ENDMDL
MODEL 7
REMARK VINA RESULT:      -7.5      8.417     10.042
REMARK  Name = 
REMARK  3 active torsions:
REMARK  status: ('A' for Active; 'I' for Inactive)
REMARK    1  A    between atoms: C_2  and  C_16
REMARK    2  A    between atoms: N_3  and  C_4
REMARK    3  A    between atoms: C_7  and  C_8
REMARK                            x       y       z     vdW  Elec       q    Type
REMARK                         _______ _______ _______ _____ _____    ______ ____
ROOT
ATOM      1  O   UNL     1       1.900   8.629  18.383  0.00  0.00    +0.000 OA
ATOM      2  C   UNL     1       2.159   7.789  19.238  0.00  0.00    +0.000 C 
ATOM      3  N   UNL     1       1.756   7.818  20.562  0.00  0.00    +0.000 N 
ATOM      4  H   UNL     1       2.194   7.180  21.212  0.00  0.00    +0.000 HD
ENDROOT
BRANCH   2   5
ATOM      5  C   UNL     1       3.040   6.671  18.843  0.00  0.00    +0.000 A 
ATOM      6  C   UNL     1       3.662   6.743  17.591  0.00  0.00    +0.000 A 
ATOM      7  C   UNL     1       4.456   5.688  17.162  0.00  0.00    +0.000 A 
ATOM      8  F   UNL     1       5.053   5.759  15.965  0.00  0.00    +0.000 F 
ATOM      9  C   UNL     1       4.633   4.562  17.950  0.00  0.00    +0.000 A 
ATOM     10  C   UNL     1       4.000   4.498  19.185  0.00  0.00    +0.000 A 
ATOM     11  F   UNL     1       4.148   3.405  19.945  0.00  0.00    +0.000 F 
ATOM     12  C   UNL     1       3.202   5.540  19.647  0.00  0.00    +0.000 A 
ENDBRANCH   2   5
BRANCH   3  13
ATOM     13  C   UNL     1       0.942   8.838  21.106  0.00  0.00    +0.000 A 
ATOM     14  C   UNL     1       0.041   9.591  20.382  0.00  0.00    +0.000 A 
ATOM     15  N   UNL     1      -0.682  10.602  20.898  0.00  0.00    +0.000 NA
ATOM     16  C   UNL     1      -0.503  10.881  22.201  0.00  0.00    +0.000 A 
ATOM     17  N   UNL     1       0.310  10.177  23.017  0.00  0.00    +0.000 NA
ATOM     18  C   UNL     1       1.008   9.168  22.447  0.00  0.00    +0.000 A 
BRANCH  16  19
ATOM     19  C   UNL     1      -1.251  12.030  22.740  0.00  0.00    +0.000 A 
ATOM     20  C   UNL     1      -2.561  11.866  23.242  0.00  0.00    +0.000 A 
ATOM     21  C   UNL     1      -3.281  12.931  23.781  0.00  0.00    +0.000 A 
ATOM     22  C   UNL     1      -2.708  14.197  23.826  0.00  0.00    +0.000 A 
ATOM     23  C   UNL     1      -1.427  14.396  23.320  0.00  0.00    +0.000 A 
ATOM     24  C   UNL     1      -0.707  13.325  22.780  0.00  0.00    +0.000 A 
ENDBRANCH  16  19
ENDBRANCH   3  13
TORSDOF 3
ENDMDL
MODEL 8
REMARK VINA RESULT:      -7.5      8.311     10.068
REMARK  Name = 
REMARK  3 active torsions:
REMARK  status: ('A' for Active; 'I' for Inactive)
REMARK    1  A    between atoms: C_2  and  C_16
REMARK    2  A    between atoms: N_3  and  C_4
REMARK    3  A    between atoms: C_7  and  C_8
REMARK                            x       y       z     vdW  Elec       q    Type
REMARK                         _______ _______ _______ _____ _____    ______ ____
ROOT
ATOM      1  O   UNL     1       2.099   8.303  18.373  0.00  0.00    +0.000 OA
ATOM      2  C   UNL     1       2.183   7.434  19.233  0.00  0.00    +0.000 C 
ATOM      3  N   UNL     1       1.756   7.537  20.545  0.00  0.00    +0.000 N 
ATOM      4  H   UNL     1       2.059   6.834  21.206  0.00  0.00    +0.000 HD
ENDROOT
BRANCH   2   5
ATOM      5  C   UNL     1       2.867   6.178  18.860  0.00  0.00    +0.000 A 
ATOM      6  C   UNL     1       4.150   5.956  19.374  0.00  0.00    +0.000 A 
ATOM      7  C   UNL     1       4.845   4.813  19.005  0.00  0.00    +0.000 A 
ATOM      8  F   UNL     1       6.072   4.602  19.499  0.00  0.00    +0.000 F 
ATOM      9  C   UNL     1       4.291   3.893  18.128  0.00  0.00    +0.000 A 
ATOM     10  C   UNL     1       3.022   4.131  17.616  0.00  0.00    +0.000 A 
ATOM     11  F   UNL     1       2.487   3.259  16.753  0.00  0.00    +0.000 F 
ATOM     12  C   UNL     1       2.296   5.264  17.970  0.00  0.00    +0.000 A 
ENDBRANCH   2   5
BRANCH   3  13
ATOM     13  C   UNL     1       1.118   8.684  21.069  0.00  0.00    +0.000 A 
ATOM     14  C   UNL     1       1.156   9.065  22.394  0.00  0.00    +0.000 A 
ATOM     15  N   UNL     1       0.490  10.124  22.893  0.00  0.00    +0.000 NA
ATOM     16  C   UNL     1      -0.250  10.843  22.032  0.00  0.00    +0.000 A 
ATOM     17  N   UNL     1      -0.318  10.595  20.706  0.00  0.00    +0.000 NA
ATOM     18  C   UNL     1       0.375   9.523  20.259  0.00  0.00    +0.000 A 
BRANCH  16  19
ATOM     19  C   UNL     1      -1.024  11.961  22.599  0.00  0.00    +0.000 A 
ATOM     20  C   UNL     1      -2.299  11.741  23.164  0.00  0.00    +0.000 A 
ATOM     21  C   UNL     1      -3.042  12.777  23.730  0.00  0.00    +0.000 A 
ATOM     22  C   UNL     1      -2.527  14.068  23.739  0.00  0.00    +0.000 A 
ATOM     23  C   UNL     1      -1.282  14.322  23.171  0.00  0.00    +0.000 A 
ATOM     24  C   UNL     1      -0.540  13.281  22.605  0.00  0.00    +0.000 A 
ENDBRANCH  16  19
ENDBRANCH   3  13
TORSDOF 3
ENDMDL
MODEL 9
REMARK VINA RESULT:      -7.5      8.460      9.302
REMARK  Name = 
REMARK  3 active torsions:
REMARK  status: ('A' for Active; 'I' for Inactive)
REMARK    1  A    between atoms: C_2  and  C_16
REMARK    2  A    between atoms: N_3  and  C_4
REMARK    3  A    between atoms: C_7  and  C_8
REMARK                            x       y       z     vdW  Elec       q    Type
REMARK                         _______ _______ _______ _____ _____    ______ ____
ROOT
ATOM      1  O   UNL     1       1.356  11.971  21.329  0.00  0.00    +0.000 OA
ATOM      2  C   UNL     1       0.213  11.530  21.289  0.00  0.00    +0.000 C 
ATOM      3  N   UNL     1      -0.193  10.365  20.663  0.00  0.00    +0.000 N 
ATOM      4  H   UNL     1      -1.184  10.211  20.528  0.00  0.00    +0.000 HD
ENDROOT
BRANCH   2   5
ATOM      5  C   UNL     1      -0.850  12.350  21.907  0.00  0.00    +0.000 A 
ATOM      6  C   UNL     1      -1.737  11.713  22.784  0.00  0.00    +0.000 A 
ATOM      7  C   UNL     1      -2.780  12.437  23.344  0.00  0.00    +0.000 A 
ATOM      8  F   UNL     1      -3.626  11.828  24.184  0.00  0.00    +0.000 F 
ATOM      9  C   UNL     1      -2.961  13.778  23.041  0.00  0.00    +0.000 A 
ATOM     10  C   UNL     1      -2.081  14.394  22.160  0.00  0.00    +0.000 A 
ATOM     11  F   UNL     1      -2.261  15.683  21.845  0.00  0.00    +0.000 F 
ATOM     12  C   UNL     1      -1.023  13.698  21.585  0.00  0.00    +0.000 A 
ENDBRANCH   2   5
BRANCH   3  13
ATOM     13  C   UNL     1       0.693   9.490  19.996  0.00  0.00    +0.000 A 
ATOM     14  C   UNL     1       1.062   9.607  18.672  0.00  0.00    +0.000 A 
ATOM     15  N   UNL     1       1.856   8.730  18.030  0.00  0.00    +0.000 NA
ATOM     16  C   UNL     1       2.310   7.682  18.738  0.00  0.00    +0.000 A 
ATOM     17  N   UNL     1       2.059   7.494  20.052  0.00  0.00    +0.000 NA
ATOM     18  C   UNL     1       1.260   8.410  20.648  0.00  0.00    +0.000 A 
BRANCH  16  19
ATOM     19  C   UNL     1       3.126   6.694  18.010  0.00  0.00    +0.000 A 
ATOM     20  C   UNL     1       4.243   7.102  17.250  0.00  0.00    +0.000 A 
ATOM     21  C   UNL     1       5.046   6.186  16.572  0.00  0.00    +0.000 A 
ATOM     22  C   UNL     1       4.746   4.830  16.633  0.00  0.00    +0.000 A 
ATOM     23  C   UNL     1       3.640   4.397  17.357  0.00  0.00    +0.000 A 
ATOM     24  C   UNL     1       2.836   5.319  18.036  0.00  0.00    +0.000 A 
ENDBRANCH  16  19
ENDBRANCH   3  13
TORSDOF 3
ENDMDL
