MODEL 1
REMARK VINA RESULT:      -8.7      0.000      0.000
REMARK  Name = 
REMARK  7 active torsions:
REMARK  status: ('A' for Active; 'I' for Inactive)
REMARK    1  A    between atoms: C_1  and  C_2
REMARK    2  A    between atoms: C_4  and  C_5
REMARK    3  A    between atoms: C_6  and  C_7
REMARK    4  A    between atoms: N_9  and  C_10
REMARK    5  A    between atoms: C_13  and  S_14
REMARK    6  A    between atoms: S_14  and  N_17
REMARK    7  A    between atoms: C_25  and  O_26
REMARK                            x       y       z     vdW  Elec       q    Type
REMARK                         _______ _______ _______ _____ _____    ______ ____
ROOT
ATOM      1  C   UNL     1       7.991   7.438  18.383  0.00  0.00    +0.000 A 
ATOM      2  C   UNL     1       6.920   7.559  17.490  0.00  0.00    +0.000 A 
ATOM      3  C   UNL     1       6.130   6.440  17.138  0.00  0.00    +0.000 A 
ATOM      4  C   UNL     1       6.407   5.170  17.665  0.00  0.00    +0.000 A 
ATOM      5  C   UNL     1       7.554   5.018  18.454  0.00  0.00    +0.000 A 
ATOM      6  C   UNL     1       8.339   6.141  18.799  0.00  0.00    +0.000 A 
ENDROOT
BRANCH   1   9
ATOM      7  C   UNL     1       8.763   9.854  18.536  0.00  0.00    +0.000 C 
ATOM      8  O   UNL     1       8.335  10.232  17.448  0.00  0.00    +0.000 OA
ATOM      9  N   UNL     1       8.689   8.533  18.977  0.00  0.00    +0.000 N 
ATOM     10  H   UNL     1       9.082   8.375  19.897  0.00  0.00    +0.000 HD
BRANCH   7  16
ATOM     11  C   UNL     1       9.274  12.620  22.557  0.00  0.00    +0.000 C 
ATOM     12  C   UNL     1       9.630  12.034  21.249  0.00  0.00    +0.000 A 
ATOM     13  N   UNL     1      10.710  12.281  20.546  0.00  0.00    +0.000 NA
ATOM     14  C   UNL     1      10.568  11.509  19.416  0.00  0.00    +0.000 A 
ATOM     15  C   UNL     1      11.620  11.564  18.376  0.00  0.00    +0.000 C 
ATOM     16  C   UNL     1       9.378  10.789  19.471  0.00  0.00    +0.000 A 
ATOM     17  O   UNL     1       8.767  11.135  20.666  0.00  0.00    +0.000 OA
ENDBRANCH   7  16
ENDBRANCH   1   9
BRANCH   4  18
ATOM     18  S   UNL     1       5.023   4.015  17.907  0.00  0.00    +0.000 S 
ATOM     19  O   UNL     1       4.686   3.536  16.579  0.00  0.00    +0.000 OA
ATOM     20  O   UNL     1       5.494   3.120  18.951  0.00  0.00    +0.000 OA
BRANCH  18  21
ATOM     21  N   UNL     1       3.659   4.849  18.499  0.00  0.00    +0.000 NA
ATOM     22  C   UNL     1       3.718   5.405  19.870  0.00  0.00    +0.000 C 
ATOM     23  C   UNL     1       2.480   4.873  20.582  0.00  0.00    +0.000 C 
ATOM     24  C   UNL     1       2.596   3.398  21.037  0.00  0.00    +0.000 C 
ATOM     25  C   UNL     1       1.625   2.662  20.094  0.00  0.00    +0.000 C 
ATOM     26  C   UNL     1       0.497   3.680  19.972  0.00  0.00    +0.000 C 
ATOM     27  C   UNL     1       1.421   4.794  19.477  0.00  0.00    +0.000 C 
ATOM     28  C   UNL     1       2.290   4.192  18.325  0.00  0.00    +0.000 C 
ATOM     29  C   UNL     1       2.131   2.672  18.641  0.00  0.00    +0.000 C 
BRANCH  29  30
ATOM     30  O   UNL     1       3.230   1.835  18.414  0.00  0.00    +0.000 OA
ATOM     31  H   UNL     1       3.024   0.932  18.702  0.00  0.00    +0.000 HD
ENDBRANCH  29  30
ENDBRANCH  18  21
ENDBRANCH   4  18
TORSDOF 5
ENDMDL
MODEL 2
REMARK VINA RESULT:      -8.6      0.992      1.286
REMARK  Name = 
REMARK  7 active torsions:
REMARK  status: ('A' for Active; 'I' for Inactive)
REMARK    1  A    between atoms: C_1  and  C_2
REMARK    2  A    between atoms: C_4  and  C_5
REMARK    3  A    between atoms: C_6  and  C_7
REMARK    4  A    between atoms: N_9  and  C_10
REMARK    5  A    between atoms: C_13  and  S_14
REMARK    6  A    between atoms: S_14  and  N_17
REMARK    7  A    between atoms: C_25  and  O_26
REMARK                            x       y       z     vdW  Elec       q    Type
REMARK                         _______ _______ _______ _____ _____    ______ ____
ROOT
ATOM      1  C   UNL     1       8.110   7.499  18.423  0.00  0.00    +0.000 A 
ATOM      2  C   UNL     1       7.530   7.482  17.150  0.00  0.00    +0.000 A 
ATOM      3  C   UNL     1       6.633   6.457  16.767  0.00  0.00    +0.000 A 
ATOM      4  C   UNL     1       6.309   5.418  17.652  0.00  0.00    +0.000 A 
ATOM      5  C   UNL     1       6.986   5.358  18.877  0.00  0.00    +0.000 A 
ATOM      6  C   UNL     1       7.882   6.385  19.249  0.00  0.00    +0.000 A 
ENDROOT
BRANCH   1   9
ATOM      7  C   UNL     1       8.798   9.940  18.594  0.00  0.00    +0.000 C 
ATOM      8  O   UNL     1       8.228  10.341  17.582  0.00  0.00    +0.000 OA
ATOM      9  N   UNL     1       8.830   8.599  18.980  0.00  0.00    +0.000 N 
ATOM     10  H   UNL     1       9.336   8.422  19.839  0.00  0.00    +0.000 HD
BRANCH   7  16
ATOM     11  C   UNL     1       9.513  12.828  22.496  0.00  0.00    +0.000 C 
ATOM     12  C   UNL     1       9.826  12.159  21.216  0.00  0.00    +0.000 A 
ATOM     13  N   UNL     1      10.925  12.289  20.510  0.00  0.00    +0.000 NA
ATOM     14  C   UNL     1      10.725  11.483  19.413  0.00  0.00    +0.000 A 
ATOM     15  C   UNL     1      11.781  11.409  18.379  0.00  0.00    +0.000 C 
ATOM     16  C   UNL     1       9.482  10.863  19.492  0.00  0.00    +0.000 A 
ATOM     17  O   UNL     1       8.897  11.307  20.667  0.00  0.00    +0.000 OA
ENDBRANCH   7  16
ENDBRANCH   1   9
BRANCH   4  18
ATOM     18  S   UNL     1       4.659   4.663  17.530  0.00  0.00    +0.000 S 
ATOM     19  O   UNL     1       3.827   5.661  16.882  0.00  0.00    +0.000 OA
ATOM     20  O   UNL     1       4.913   3.366  16.927  0.00  0.00    +0.000 OA
BRANCH  18  21
ATOM     21  N   UNL     1       4.014   4.407  19.087  0.00  0.00    +0.000 NA
ATOM     22  C   UNL     1       4.451   3.210  19.839  0.00  0.00    +0.000 C 
ATOM     23  C   UNL     1       3.171   2.500  20.261  0.00  0.00    +0.000 C 
ATOM     24  C   UNL     1       2.489   1.696  19.128  0.00  0.00    +0.000 C 
ATOM     25  C   UNL     1       1.217   2.514  18.833  0.00  0.00    +0.000 C 
ATOM     26  C   UNL     1       0.825   2.974  20.233  0.00  0.00    +0.000 C 
ATOM     27  C   UNL     1       2.176   3.641  20.501  0.00  0.00    +0.000 C 
ATOM     28  C   UNL     1       2.500   4.536  19.261  0.00  0.00    +0.000 C 
ATOM     29  C   UNL     1       1.556   3.879  18.206  0.00  0.00    +0.000 C 
BRANCH  29  30
ATOM     30  O   UNL     1       2.001   3.804  16.882  0.00  0.00    +0.000 OA
ATOM     31  H   UNL     1       1.823   2.920  16.523  0.00  0.00    +0.000 HD
ENDBRANCH  29  30
ENDBRANCH  18  21
ENDBRANCH   4  18
TORSDOF 5
ENDMDL
MODEL 3
REMARK VINA RESULT:      -8.1      1.097      1.872
REMARK  Name = 
REMARK  7 active torsions:
REMARK  status: ('A' for Active; 'I' for Inactive)
REMARK    1  A    between atoms: C_1  and  C_2
REMARK    2  A    between atoms: C_4  and  C_5
REMARK    3  A    between atoms: C_6  and  C_7
REMARK    4  A    between atoms: N_9  and  C_10
REMARK    5  A    between atoms: C_13  and  S_14
REMARK    6  A    between atoms: S_14  and  N_17
REMARK    7  A    between atoms: C_25  and  O_26
REMARK                            x       y       z     vdW  Elec       q    Type
REMARK                         _______ _______ _______ _____ _____    ______ ____
ROOT
ATOM      1  C   UNL     1       7.260   7.990  17.461  0.00  0.00    +0.000 A 
ATOM      2  C   UNL     1       5.987   7.827  16.905  0.00  0.00    +0.000 A 
ATOM      3  C   UNL     1       5.352   6.564  16.888  0.00  0.00    +0.000 A 
ATOM      4  C   UNL     1       5.987   5.432  17.419  0.00  0.00    +0.000 A 
ATOM      5  C   UNL     1       7.311   5.562  17.857  0.00  0.00    +0.000 A 
ATOM      6  C   UNL     1       7.939   6.828  17.868  0.00  0.00    +0.000 A 
ENDROOT
BRANCH   1   9
ATOM      7  C   UNL     1       8.784   9.563  18.751  0.00  0.00    +0.000 C 
ATOM      8  O   UNL     1       9.068   8.799  19.670  0.00  0.00    +0.000 OA
ATOM      9  N   UNL     1       7.879   9.247  17.738  0.00  0.00    +0.000 N 
ATOM     10  H   UNL     1       7.749   9.977  17.048  0.00  0.00    +0.000 HD
BRANCH   7  16
ATOM     11  C   UNL     1      11.243  13.307  16.747  0.00  0.00    +0.000 C 
ATOM     12  C   UNL     1      10.497  12.560  17.782  0.00  0.00    +0.000 A 
ATOM     13  N   UNL     1      10.214  12.971  18.996  0.00  0.00    +0.000 NA
ATOM     14  C   UNL     1       9.528  11.922  19.561  0.00  0.00    +0.000 A 
ATOM     15  C   UNL     1       9.067  12.041  20.962  0.00  0.00    +0.000 C 
ATOM     16  C   UNL     1       9.402  10.880  18.646  0.00  0.00    +0.000 A 
ATOM     17  O   UNL     1      10.036  11.298  17.487  0.00  0.00    +0.000 OA
ENDBRANCH   7  16
ENDBRANCH   1   9
BRANCH   4  18
ATOM     18  S   UNL     1       4.955   4.121  18.142  0.00  0.00    +0.000 S 
ATOM     19  O   UNL     1       4.745   3.163  17.071  0.00  0.00    +0.000 OA
ATOM     20  O   UNL     1       5.651   3.763  19.366  0.00  0.00    +0.000 OA
BRANCH  18  21
ATOM     21  N   UNL     1       3.426   4.744  18.564  0.00  0.00    +0.000 NA
ATOM     22  C   UNL     1       3.317   5.562  19.793  0.00  0.00    +0.000 C 
ATOM     23  C   UNL     1       2.196   4.931  20.610  0.00  0.00    +0.000 C 
ATOM     24  C   UNL     1       2.606   3.637  21.354  0.00  0.00    +0.000 C 
ATOM     25  C   UNL     1       1.847   2.536  20.590  0.00  0.00    +0.000 C 
ATOM     26  C   UNL     1       0.534   3.242  20.273  0.00  0.00    +0.000 C 
ATOM     27  C   UNL     1       1.217   4.406  19.553  0.00  0.00    +0.000 C 
ATOM     28  C   UNL     1       2.234   3.786  18.540  0.00  0.00    +0.000 C 
ATOM     29  C   UNL     1       2.390   2.363  19.160  0.00  0.00    +0.000 C 
BRANCH  29  30
ATOM     30  O   UNL     1       3.649   1.753  19.098  0.00  0.00    +0.000 OA
ATOM     31  H   UNL     1       4.321   2.407  18.850  0.00  0.00    +0.000 HD
ENDBRANCH  29  30
ENDBRANCH  18  21
ENDBRANCH   4  18
TORSDOF 5
ENDMDL
MODEL 4
REMARK VINA RESULT:      -8.1      5.986      8.368
REMARK  Name = 
REMARK  7 active torsions:
REMARK  status: ('A' for Active; 'I' for Inactive)
REMARK    1  A    between atoms: C_1  and  C_2
REMARK    2  A    between atoms: C_4  and  C_5
REMARK    3  A    between atoms: C_6  and  C_7
REMARK    4  A    between atoms: N_9  and  C_10
REMARK    5  A    between atoms: C_13  and  S_14
REMARK    6  A    between atoms: S_14  and  N_17
REMARK    7  A    between atoms: C_25  and  O_26
REMARK                            x       y       z     vdW  Elec       q    Type
REMARK                         _______ _______ _______ _____ _____    ______ ____
ROOT
ATOM      1  C   UNL     1       0.508   9.838  19.057  0.00  0.00    +0.000 A 
ATOM      2  C   UNL     1       1.278   9.645  17.905  0.00  0.00    +0.000 A 
ATOM      3  C   UNL     1       2.269   8.637  17.847  0.00  0.00    +0.000 A 
ATOM      4  C   UNL     1       2.518   7.809  18.952  0.00  0.00    +0.000 A 
ATOM      5  C   UNL     1       1.843   8.083  20.148  0.00  0.00    +0.000 A 
ATOM      6  C   UNL     1       0.856   9.093  20.197  0.00  0.00    +0.000 A 
ENDROOT
BRANCH   1   9
ATOM      7  C   UNL     1      -1.776  10.653  18.295  0.00  0.00    +0.000 C 
ATOM      8  O   UNL     1      -1.835  10.015  17.247  0.00  0.00    +0.000 OA
ATOM      9  N   UNL     1      -0.660  10.656  19.133  0.00  0.00    +0.000 N 
ATOM     10  H   UNL     1      -0.760  11.228  19.963  0.00  0.00    +0.000 HD
BRANCH   7  16
ATOM     11  C   UNL     1      -4.406  13.570  21.237  0.00  0.00    +0.000 C 
ATOM     12  C   UNL     1      -4.097  12.752  20.046  0.00  0.00    +0.000 A 
ATOM     13  N   UNL     1      -4.885  12.530  19.020  0.00  0.00    +0.000 NA
ATOM     14  C   UNL     1      -4.152  11.709  18.195  0.00  0.00    +0.000 A 
ATOM     15  C   UNL     1      -4.760  11.237  16.932  0.00  0.00    +0.000 C 
ATOM     16  C   UNL     1      -2.901  11.458  18.754  0.00  0.00    +0.000 A 
ATOM     17  O   UNL     1      -2.869  12.138  19.962  0.00  0.00    +0.000 OA
ENDBRANCH   7  16
ENDBRANCH   1   9
BRANCH   4  18
ATOM     18  S   UNL     1       3.096   6.111  18.646  0.00  0.00    +0.000 S 
ATOM     19  O   UNL     1       3.510   6.092  17.255  0.00  0.00    +0.000 OA
ATOM     20  O   UNL     1       4.031   5.861  19.729  0.00  0.00    +0.000 OA
BRANCH  18  21
ATOM     21  N   UNL     1       1.800   5.014  18.798  0.00  0.00    +0.000 NA
ATOM     22  C   UNL     1       1.312   4.691  20.158  0.00  0.00    +0.000 C 
ATOM     23  C   UNL     1       1.325   3.169  20.248  0.00  0.00    +0.000 C 
ATOM     24  C   UNL     1       2.731   2.561  20.470  0.00  0.00    +0.000 C 
ATOM     25  C   UNL     1       3.034   1.877  19.123  0.00  0.00    +0.000 C 
ATOM     26  C   UNL     1       1.660   1.338  18.744  0.00  0.00    +0.000 C 
ATOM     27  C   UNL     1       0.988   2.711  18.825  0.00  0.00    +0.000 C 
ATOM     28  C   UNL     1       1.878   3.705  18.011  0.00  0.00    +0.000 C 
ATOM     29  C   UNL     1       3.219   2.908  17.995  0.00  0.00    +0.000 C 
BRANCH  29  30
ATOM     30  O   UNL     1       4.415   3.631  18.073  0.00  0.00    +0.000 OA
ATOM     31  H   UNL     1       4.721   3.666  18.993  0.00  0.00    +0.000 HD
ENDBRANCH  29  30
ENDBRANCH  18  21
ENDBRANCH   4  18
TORSDOF 5
ENDMDL
MODEL 5
REMARK VINA RESULT:      -8.0      1.484      1.758
REMARK  Name = 
REMARK  7 active torsions:
REMARK  status: ('A' for Active; 'I' for Inactive)
REMARK    1  A    between atoms: C_1  and  C_2
REMARK    2  A    between atoms: C_4  and  C_5
REMARK    3  A    between atoms: C_6  and  C_7
REMARK    4  A    between atoms: N_9  and  C_10
REMARK    5  A    between atoms: C_13  and  S_14
REMARK    6  A    between atoms: S_14  and  N_17
REMARK    7  A    between atoms: C_25  and  O_26
REMARK                            x       y       z     vdW  Elec       q    Type
REMARK                         _______ _______ _______ _____ _____    ______ ____
ROOT
ATOM      1  C   UNL     1       7.259   8.004  17.375  0.00  0.00    +0.000 A 
ATOM      2  C   UNL     1       5.997   7.801  16.807  0.00  0.00    +0.000 A 
ATOM      3  C   UNL     1       5.377   6.529  16.836  0.00  0.00    +0.000 A 
ATOM      4  C   UNL     1       6.019   5.431  17.427  0.00  0.00    +0.000 A 
ATOM      5  C   UNL     1       7.334   5.597  17.879  0.00  0.00    +0.000 A 
ATOM      6  C   UNL     1       7.945   6.870  17.843  0.00  0.00    +0.000 A 
ENDROOT
BRANCH   1   9
ATOM      7  C   UNL     1       8.753   9.649  18.608  0.00  0.00    +0.000 C 
ATOM      8  O   UNL     1       9.045   8.925  19.557  0.00  0.00    +0.000 OA
ATOM      9  N   UNL     1       7.857   9.280  17.604  0.00  0.00    +0.000 N 
ATOM     10  H   UNL     1       7.720   9.981  16.886  0.00  0.00    +0.000 HD
BRANCH   7  16
ATOM     11  C   UNL     1      12.079  13.233  19.029  0.00  0.00    +0.000 C 
ATOM     12  C   UNL     1      10.812  12.585  18.630  0.00  0.00    +0.000 A 
ATOM     13  N   UNL     1       9.815  13.143  17.985  0.00  0.00    +0.000 NA
ATOM     14  C   UNL     1       8.879  12.141  17.869  0.00  0.00    +0.000 A 
ATOM     15  C   UNL     1       7.594  12.438  17.198  0.00  0.00    +0.000 C 
ATOM     16  C   UNL     1       9.352  10.970  18.454  0.00  0.00    +0.000 A 
ATOM     17  O   UNL     1      10.613  11.263  18.951  0.00  0.00    +0.000 OA
ENDBRANCH   7  16
ENDBRANCH   1   9
BRANCH   4  18
ATOM     18  S   UNL     1       4.991   4.139  18.192  0.00  0.00    +0.000 S 
ATOM     19  O   UNL     1       4.804   3.136  17.160  0.00  0.00    +0.000 OA
ATOM     20  O   UNL     1       5.676   3.841  19.438  0.00  0.00    +0.000 OA
BRANCH  18  21
ATOM     21  N   UNL     1       3.450   4.763  18.570  0.00  0.00    +0.000 NA
ATOM     22  C   UNL     1       3.318   5.630  19.761  0.00  0.00    +0.000 C 
ATOM     23  C   UNL     1       2.193   5.021  20.590  0.00  0.00    +0.000 C 
ATOM     24  C   UNL     1       2.608   3.764  21.393  0.00  0.00    +0.000 C 
ATOM     25  C   UNL     1       1.869   2.624  20.666  0.00  0.00    +0.000 C 
ATOM     26  C   UNL     1       0.553   3.302  20.304  0.00  0.00    +0.000 C 
ATOM     27  C   UNL     1       1.233   4.443  19.545  0.00  0.00    +0.000 C 
ATOM     28  C   UNL     1       2.269   3.792  18.571  0.00  0.00    +0.000 C 
ATOM     29  C   UNL     1       2.432   2.398  19.252  0.00  0.00    +0.000 C 
BRANCH  29  30
ATOM     30  O   UNL     1       3.698   1.800  19.230  0.00  0.00    +0.000 OA
ATOM     31  H   UNL     1       3.804   1.278  18.420  0.00  0.00    +0.000 HD
ENDBRANCH  29  30
ENDBRANCH  18  21
ENDBRANCH   4  18
TORSDOF 5
ENDMDL
MODEL 6
REMARK VINA RESULT:      -8.0      6.424      8.997
REMARK  Name = 
REMARK  7 active torsions:
REMARK  status: ('A' for Active; 'I' for Inactive)
REMARK    1  A    between atoms: C_1  and  C_2
REMARK    2  A    between atoms: C_4  and  C_5
REMARK    3  A    between atoms: C_6  and  C_7
REMARK    4  A    between atoms: N_9  and  C_10
REMARK    5  A    between atoms: C_13  and  S_14
REMARK    6  A    between atoms: S_14  and  N_17
REMARK    7  A    between atoms: C_25  and  O_26
REMARK                            x       y       z     vdW  Elec       q    Type
REMARK                         _______ _______ _______ _____ _____    ______ ____
ROOT
ATOM      1  C   UNL     1       2.787   7.788  18.283  0.00  0.00    +0.000 A 
ATOM      2  C   UNL     1       2.141   8.866  17.666  0.00  0.00    +0.000 A 
ATOM      3  C   UNL     1       1.260   9.703  18.390  0.00  0.00    +0.000 A 
ATOM      4  C   UNL     1       0.997   9.468  19.747  0.00  0.00    +0.000 A 
ATOM      5  C   UNL     1       1.537   8.316  20.335  0.00  0.00    +0.000 A 
ATOM      6  C   UNL     1       2.414   7.485  19.604  0.00  0.00    +0.000 A 
ENDROOT
BRANCH   1   9
ATOM      7  C   UNL     1       3.911   5.675  17.429  0.00  0.00    +0.000 C 
ATOM      8  O   UNL     1       3.050   4.875  17.789  0.00  0.00    +0.000 OA
ATOM      9  N   UNL     1       3.860   7.040  17.710  0.00  0.00    +0.000 N 
ATOM     10  H   UNL     1       4.640   7.573  17.345  0.00  0.00    +0.000 HD
BRANCH   7  16
ATOM     11  C   UNL     1       6.443   3.943  13.599  0.00  0.00    +0.000 C 
ATOM     12  C   UNL     1       6.216   4.469  14.961  0.00  0.00    +0.000 A 
ATOM     13  N   UNL     1       7.124   4.663  15.889  0.00  0.00    +0.000 NA
ATOM     14  C   UNL     1       6.416   5.145  16.966  0.00  0.00    +0.000 A 
ATOM     15  C   UNL     1       7.142   5.457  18.217  0.00  0.00    +0.000 C 
ATOM     16  C   UNL     1       5.063   5.242  16.649  0.00  0.00    +0.000 A 
ATOM     17  O   UNL     1       4.936   4.798  15.341  0.00  0.00    +0.000 OA
ENDBRANCH   7  16
ENDBRANCH   1   9
BRANCH   4  18
ATOM     18  S   UNL     1       0.613  10.892  20.812  0.00  0.00    +0.000 S 
ATOM     19  O   UNL     1       0.962  10.470  22.157  0.00  0.00    +0.000 OA
ATOM     20  O   UNL     1       1.280  12.005  20.159  0.00  0.00    +0.000 OA
BRANCH  18  21
ATOM     21  N   UNL     1      -1.064  11.196  20.801  0.00  0.00    +0.000 NA
ATOM     22  C   UNL     1      -1.671  11.732  19.562  0.00  0.00    +0.000 C 
ATOM     23  C   UNL     1      -2.441  12.977  19.987  0.00  0.00    +0.000 C 
ATOM     24  C   UNL     1      -1.549  14.218  20.239  0.00  0.00    +0.000 C 
ATOM     25  C   UNL     1      -1.618  14.395  21.767  0.00  0.00    +0.000 C 
ATOM     26  C   UNL     1      -3.068  14.019  22.048  0.00  0.00    +0.000 C 
ATOM     27  C   UNL     1      -2.942  12.641  21.395  0.00  0.00    +0.000 C 
ATOM     28  C   UNL     1      -1.655  11.972  21.979  0.00  0.00    +0.000 C 
ATOM     29  C   UNL     1      -0.912  13.241  22.502  0.00  0.00    +0.000 C 
BRANCH  29  30
ATOM     30  O   UNL     1       0.484  13.272  22.406  0.00  0.00    +0.000 OA
ATOM     31  H   UNL     1       0.776  12.734  21.653  0.00  0.00    +0.000 HD
ENDBRANCH  29  30
ENDBRANCH  18  21
ENDBRANCH   4  18
TORSDOF 5
ENDMDL
MODEL 7
REMARK VINA RESULT:      -8.0      1.700      2.183
REMARK  Name = 
REMARK  7 active torsions:
REMARK  status: ('A' for Active; 'I' for Inactive)
REMARK    1  A    between atoms: C_1  and  C_2
REMARK    2  A    between atoms: C_4  and  C_5
REMARK    3  A    between atoms: C_6  and  C_7
REMARK    4  A    between atoms: N_9  and  C_10
REMARK    5  A    between atoms: C_13  and  S_14
REMARK    6  A    between atoms: S_14  and  N_17
REMARK    7  A    between atoms: C_25  and  O_26
REMARK                            x       y       z     vdW  Elec       q    Type
REMARK                         _______ _______ _______ _____ _____    ______ ____
ROOT
ATOM      1  C   UNL     1       7.638   8.278  17.755  0.00  0.00    +0.000 A 
ATOM      2  C   UNL     1       6.475   7.939  17.054  0.00  0.00    +0.000 A 
ATOM      3  C   UNL     1       5.849   6.684  17.239  0.00  0.00    +0.000 A 
ATOM      4  C   UNL     1       6.385   5.736  18.123  0.00  0.00    +0.000 A 
ATOM      5  C   UNL     1       7.618   6.018  18.726  0.00  0.00    +0.000 A 
ATOM      6  C   UNL     1       8.237   7.273  18.534  0.00  0.00    +0.000 A 
ENDROOT
BRANCH   1   9
ATOM      7  C   UNL     1       8.921  10.173  18.860  0.00  0.00    +0.000 C 
ATOM      8  O   UNL     1       9.041   9.663  19.971  0.00  0.00    +0.000 OA
ATOM      9  N   UNL     1       8.204   9.588  17.816  0.00  0.00    +0.000 N 
ATOM     10  H   UNL     1       8.198  10.125  16.958  0.00  0.00    +0.000 HD
BRANCH   7  16
ATOM     11  C   UNL     1      12.332  13.701  18.845  0.00  0.00    +0.000 C 
ATOM     12  C   UNL     1      11.051  13.038  18.523  0.00  0.00    +0.000 A 
ATOM     13  N   UNL     1      10.070  13.532  17.804  0.00  0.00    +0.000 NA
ATOM     14  C   UNL     1       9.111  12.546  17.810  0.00  0.00    +0.000 A 
ATOM     15  C   UNL     1       7.836  12.785  17.097  0.00  0.00    +0.000 C 
ATOM     16  C   UNL     1       9.553  11.449  18.543  0.00  0.00    +0.000 A 
ATOM     17  O   UNL     1      10.818  11.773  19.008  0.00  0.00    +0.000 OA
ENDBRANCH   7  16
ENDBRANCH   1   9
BRANCH   4  18
ATOM     18  S   UNL     1       5.244   4.596  18.963  0.00  0.00    +0.000 S 
ATOM     19  O   UNL     1       5.932   3.318  18.993  0.00  0.00    +0.000 OA
ATOM     20  O   UNL     1       4.880   5.301  20.181  0.00  0.00    +0.000 OA
BRANCH  18  21
ATOM     21  N   UNL     1       3.834   4.384  18.030  0.00  0.00    +0.000 NA
ATOM     22  C   UNL     1       2.815   5.457  18.046  0.00  0.00    +0.000 C 
ATOM     23  C   UNL     1       1.501   4.772  18.403  0.00  0.00    +0.000 C 
ATOM     24  C   UNL     1       1.352   4.432  19.906  0.00  0.00    +0.000 C 
ATOM     25  C   UNL     1       1.458   2.896  19.930  0.00  0.00    +0.000 C 
ATOM     26  C   UNL     1       0.721   2.523  18.649  0.00  0.00    +0.000 C 
ATOM     27  C   UNL     1       1.621   3.385  17.761  0.00  0.00    +0.000 C 
ATOM     28  C   UNL     1       3.099   3.047  18.142  0.00  0.00    +0.000 C 
ATOM     29  C   UNL     1       2.873   2.421  19.553  0.00  0.00    +0.000 C 
BRANCH  29  30
ATOM     30  O   UNL     1       3.836   2.658  20.540  0.00  0.00    +0.000 OA
ATOM     31  H   UNL     1       3.951   3.613  20.668  0.00  0.00    +0.000 HD
ENDBRANCH  29  30
ENDBRANCH  18  21
ENDBRANCH   4  18
TORSDOF 5
ENDMDL
MODEL 8
REMARK VINA RESULT:      -7.9      1.556      1.764
REMARK  Name = 
REMARK  7 active torsions:
REMARK  status: ('A' for Active; 'I' for Inactive)
REMARK    1  A    between atoms: C_1  and  C_2
REMARK    2  A    between atoms: C_4  and  C_5
REMARK    3  A    between atoms: C_6  and  C_7
REMARK    4  A    between atoms: N_9  and  C_10
REMARK    5  A    between atoms: C_13  and  S_14
REMARK    6  A    between atoms: S_14  and  N_17
REMARK    7  A    between atoms: C_25  and  O_26
REMARK                            x       y       z     vdW  Elec       q    Type
REMARK                         _______ _______ _______ _____ _____    ______ ____
ROOT
ATOM      1  C   UNL     1       7.578   8.344  17.637  0.00  0.00    +0.000 A 
ATOM      2  C   UNL     1       6.566   7.878  16.791  0.00  0.00    +0.000 A 
ATOM      3  C   UNL     1       6.064   6.561  16.906  0.00  0.00    +0.000 A 
ATOM      4  C   UNL     1       6.577   5.677  17.866  0.00  0.00    +0.000 A 
ATOM      5  C   UNL     1       7.678   6.094  18.626  0.00  0.00    +0.000 A 
ATOM      6  C   UNL     1       8.174   7.411  18.503  0.00  0.00    +0.000 A 
ENDROOT
BRANCH   1   9
ATOM      7  C   UNL     1       8.881  10.269  18.665  0.00  0.00    +0.000 C 
ATOM      8  O   UNL     1       9.355   9.655  19.617  0.00  0.00    +0.000 OA
ATOM      9  N   UNL     1       7.981   9.709  17.757  0.00  0.00    +0.000 N 
ATOM     10  H   UNL     1       7.680  10.337  17.023  0.00  0.00    +0.000 HD
BRANCH   7  16
ATOM     11  C   UNL     1       8.300  15.081  17.900  0.00  0.00    +0.000 C 
ATOM     12  C   UNL     1       9.019  13.800  18.054  0.00  0.00    +0.000 A 
ATOM     13  N   UNL     1      10.314  13.609  17.951  0.00  0.00    +0.000 NA
ATOM     14  C   UNL     1      10.479  12.260  18.162  0.00  0.00    +0.000 A 
ATOM     15  C   UNL     1      11.842  11.688  18.094  0.00  0.00    +0.000 C 
ATOM     16  C   UNL     1       9.248  11.655  18.402  0.00  0.00    +0.000 A 
ATOM     17  O   UNL     1       8.298  12.662  18.329  0.00  0.00    +0.000 OA
ENDBRANCH   7  16
ENDBRANCH   1   9
BRANCH   4  18
ATOM     18  S   UNL     1       5.467   4.414  18.559  0.00  0.00    +0.000 S 
ATOM     19  O   UNL     1       5.552   3.287  17.649  0.00  0.00    +0.000 OA
ATOM     20  O   UNL     1       5.879   4.312  19.949  0.00  0.00    +0.000 OA
BRANCH  18  21
ATOM     21  N   UNL     1       3.855   4.967  18.523  0.00  0.00    +0.000 NA
ATOM     22  C   UNL     1       3.439   5.982  19.517  0.00  0.00    +0.000 C 
ATOM     23  C   UNL     1       2.196   5.414  20.190  0.00  0.00    +0.000 C 
ATOM     24  C   UNL     1       2.491   4.318  21.243  0.00  0.00    +0.000 C 
ATOM     25  C   UNL     1       1.971   3.034  20.568  0.00  0.00    +0.000 C 
ATOM     26  C   UNL     1       0.729   3.552  19.852  0.00  0.00    +0.000 C 
ATOM     27  C   UNL     1       1.501   4.622  19.076  0.00  0.00    +0.000 C 
ATOM     28  C   UNL     1       2.744   3.920  18.439  0.00  0.00    +0.000 C 
ATOM     29  C   UNL     1       2.825   2.652  19.346  0.00  0.00    +0.000 C 
BRANCH  29  30
ATOM     30  O   UNL     1       4.093   2.155  19.668  0.00  0.00    +0.000 OA
ATOM     31  H   UNL     1       4.592   1.971  18.858  0.00  0.00    +0.000 HD
ENDBRANCH  29  30
ENDBRANCH  18  21
ENDBRANCH   4  18
TORSDOF 5
ENDMDL
MODEL 9
REMARK VINA RESULT:      -7.9      1.806      2.129
REMARK  Name = 
REMARK  7 active torsions:
REMARK  status: ('A' for Active; 'I' for Inactive)
REMARK    1  A    between atoms: C_1  and  C_2
REMARK    2  A    between atoms: C_4  and  C_5
REMARK    3  A    between atoms: C_6  and  C_7
REMARK    4  A    between atoms: N_9  and  C_10
REMARK    5  A    between atoms: C_13  and  S_14
REMARK    6  A    between atoms: S_14  and  N_17
REMARK    7  A    between atoms: C_25  and  O_26
REMARK                            x       y       z     vdW  Elec       q    Type
REMARK                         _______ _______ _______ _____ _____    ______ ____
ROOT
ATOM      1  C   UNL     1       8.201   8.868  18.280  0.00  0.00    +0.000 A 
ATOM      2  C   UNL     1       7.461   8.554  17.135  0.00  0.00    +0.000 A 
ATOM      3  C   UNL     1       7.011   7.235  16.893  0.00  0.00    +0.000 A 
ATOM      4  C   UNL     1       7.305   6.199  17.791  0.00  0.00    +0.000 A 
ATOM      5  C   UNL     1       8.155   6.480  18.869  0.00  0.00    +0.000 A 
ATOM      6  C   UNL     1       8.601   7.800  19.101  0.00  0.00    +0.000 A 
ENDROOT
BRANCH   1   9
ATOM      7  C   UNL     1       9.485  11.061  18.272  0.00  0.00    +0.000 C 
ATOM      8  O   UNL     1      10.371  10.729  17.488  0.00  0.00    +0.000 OA
ATOM      9  N   UNL     1       8.493  10.192  18.727  0.00  0.00    +0.000 N 
ATOM     10  H   UNL     1       7.830  10.611  19.368  0.00  0.00    +0.000 HD
BRANCH   7  16
ATOM     11  C   UNL     1       8.922  15.935  18.191  0.00  0.00    +0.000 C 
ATOM     12  C   UNL     1       9.157  14.597  18.772  0.00  0.00    +0.000 A 
ATOM     13  N   UNL     1       9.390  14.318  20.033  0.00  0.00    +0.000 NA
ATOM     14  C   UNL     1       9.552  12.952  20.058  0.00  0.00    +0.000 A 
ATOM     15  C   UNL     1       9.856  12.292  21.347  0.00  0.00    +0.000 C 
ATOM     16  C   UNL     1       9.399  12.426  18.778  0.00  0.00    +0.000 A 
ATOM     17  O   UNL     1       9.143  13.501  17.941  0.00  0.00    +0.000 OA
ENDBRANCH   7  16
ENDBRANCH   1   9
BRANCH   4  18
ATOM     18  S   UNL     1       6.117   4.831  17.952  0.00  0.00    +0.000 S 
ATOM     19  O   UNL     1       6.357   3.977  16.803  0.00  0.00    +0.000 OA
ATOM     20  O   UNL     1       6.310   4.359  19.313  0.00  0.00    +0.000 OA
BRANCH  18  21
ATOM     21  N   UNL     1       4.523   5.419  17.815  0.00  0.00    +0.000 NA
ATOM     22  C   UNL     1       3.981   6.240  18.921  0.00  0.00    +0.000 C 
ATOM     23  C   UNL     1       2.661   5.585  19.310  0.00  0.00    +0.000 C 
ATOM     24  C   UNL     1       2.818   4.305  20.167  0.00  0.00    +0.000 C 
ATOM     25  C   UNL     1       2.391   3.183  19.202  0.00  0.00    +0.000 C 
ATOM     26  C   UNL     1       1.253   3.855  18.444  0.00  0.00    +0.000 C 
ATOM     27  C   UNL     1       2.117   5.032  17.988  0.00  0.00    +0.000 C 
ATOM     28  C   UNL     1       3.433   4.432  17.394  0.00  0.00    +0.000 C 
ATOM     29  C   UNL     1       3.397   3.016  18.049  0.00  0.00    +0.000 C 
BRANCH  29  30
ATOM     30  O   UNL     1       4.613   2.437  18.431  0.00  0.00    +0.000 OA
ATOM     31  H   UNL     1       5.312   3.109  18.438  0.00  0.00    +0.000 HD
ENDBRANCH  29  30
ENDBRANCH  18  21
ENDBRANCH   4  18
TORSDOF 5
ENDMDL
