MODEL 1
REMARK VINA RESULT:      -7.8      0.000      0.000
REMARK  Name = 
REMARK  4 active torsions:
REMARK  status: ('A' for Active; 'I' for Inactive)
REMARK    1  A    between atoms: C_2  and  C_19
REMARK    2  A    between atoms: C_6  and  N_7
REMARK    3  A    between atoms: N_25  and  C_26
REMARK    4  A    between atoms: C_26  and  C_27
REMARK                            x       y       z     vdW  Elec       q    Type
REMARK                         _______ _______ _______ _____ _____    ______ ____
ROOT
ATOM      1  O   UNL     1      -0.434  13.996  18.785  0.00  0.00    +0.000 OA
ATOM      2  C   UNL     1      -0.766  12.989  19.448  0.00  0.00    +0.000 C 
ATOM      3  N   UNL     1      -0.783  13.149  20.793  0.00  0.00    +0.000 N 
ATOM      4  C   UNL     1      -0.348  14.436  21.332  0.00  0.00    +0.000 C 
ATOM      5  C   UNL     1      -0.538  14.350  22.830  0.00  0.00    +0.000 C 
ATOM      6  C   UNL     1      -1.579  13.240  23.011  0.00  0.00    +0.000 C 
ATOM      7  C   UNL     1      -1.318  12.286  21.824  0.00  0.00    +0.000 C 
ENDROOT
BRANCH   6   8
ATOM      8  N   UNL     1      -2.962  13.754  23.067  0.00  0.00    +0.000 N 
ATOM      9  C   UNL     1      -3.309  14.999  22.593  0.00  0.00    +0.000 A 
ATOM     10  N   UNL     1      -4.498  15.503  22.587  0.00  0.00    +0.000 NA
ATOM     11  C   UNL     1      -5.535  14.704  23.078  0.00  0.00    +0.000 A 
ATOM     12  C   UNL     1      -6.840  15.194  22.997  0.00  0.00    +0.000 A 
ATOM     13  C   UNL     1      -7.916  14.418  23.436  0.00  0.00    +0.000 A 
ATOM     14  C   UNL     1      -7.677  13.146  23.974  0.00  0.00    +0.000 A 
ATOM     15  C   UNL     1      -6.383  12.658  24.070  0.00  0.00    +0.000 A 
ATOM     16  C   UNL     1      -5.314  13.448  23.623  0.00  0.00    +0.000 A 
ATOM     17  C   UNL     1      -3.928  12.944  23.654  0.00  0.00    +0.000 A 
ATOM     18  O   UNL     1      -3.694  11.856  24.174  0.00  0.00    +0.000 OA
ENDBRANCH   6   8
BRANCH   2  19
ATOM     19  C   UNL     1      -0.858  11.656  18.673  0.00  0.00    +0.000 C 
ATOM     20  C   UNL     1      -1.399  12.178  17.297  0.00  0.00    +0.000 C 
ATOM     21  C   UNL     1      -2.526  11.286  16.784  0.00  0.00    +0.000 C 
ATOM     22  C   UNL     1      -2.789  10.260  17.862  0.00  0.00    +0.000 C 
ATOM     23  C   UNL     1      -1.535  10.278  18.734  0.00  0.00    +0.000 C 
ATOM     24  C   UNL     1      -0.492   9.366  18.017  0.00  0.00    +0.000 C 
ATOM     25  N   UNL     1       0.758   9.756  18.640  0.00  0.00    +0.000 NA
ATOM     26  C   UNL     1       0.616  11.191  18.904  0.00  0.00    +0.000 C 
BRANCH  25  27
ATOM     27  C   UNL     1       1.950   9.437  17.851  0.00  0.00    +0.000 C 
BRANCH  27  28
ATOM     28  C   UNL     1       2.572   8.096  18.207  0.00  0.00    +0.000 A 
ATOM     29  C   UNL     1       3.574   7.529  17.404  0.00  0.00    +0.000 A 
ATOM     30  C   UNL     1       4.173   6.316  17.762  0.00  0.00    +0.000 A 
ATOM     31  C   UNL     1       3.778   5.654  18.924  0.00  0.00    +0.000 A 
ATOM     32  C   UNL     1       2.777   6.201  19.723  0.00  0.00    +0.000 A 
ATOM     33  C   UNL     1       2.180   7.412  19.367  0.00  0.00    +0.000 A 
ENDBRANCH  27  28
ENDBRANCH  25  27
ENDBRANCH   2  19
TORSDOF 4
ENDMDL
MODEL 2
REMARK VINA RESULT:      -7.7      4.283      9.361
REMARK  Name = 
REMARK  4 active torsions:
REMARK  status: ('A' for Active; 'I' for Inactive)
REMARK    1  A    between atoms: C_2  and  C_19
REMARK    2  A    between atoms: C_6  and  N_7
REMARK    3  A    between atoms: N_25  and  C_26
REMARK    4  A    between atoms: C_26  and  C_27
REMARK                            x       y       z     vdW  Elec       q    Type
REMARK                         _______ _______ _______ _____ _____    ______ ____
ROOT
ATOM      1  O   UNL     1       0.068  13.646  17.875  0.00  0.00    +0.000 OA
ATOM      2  C   UNL     1       0.702  13.322  18.902  0.00  0.00    +0.000 C 
ATOM      3  N   UNL     1       0.329  12.155  19.481  0.00  0.00    +0.000 N 
ATOM      4  C   UNL     1      -0.806  11.439  18.902  0.00  0.00    +0.000 C 
ATOM      5  C   UNL     1      -0.945  10.160  19.696  0.00  0.00    +0.000 C 
ATOM      6  C   UNL     1       0.441   9.952  20.316  0.00  0.00    +0.000 C 
ATOM      7  C   UNL     1       0.975  11.387  20.523  0.00  0.00    +0.000 C 
ENDROOT
BRANCH   6   8
ATOM      8  N   UNL     1       1.319   9.105  19.485  0.00  0.00    +0.000 N 
ATOM      9  C   UNL     1       1.739   9.480  18.229  0.00  0.00    +0.000 A 
ATOM     10  N   UNL     1       2.524   8.804  17.459  0.00  0.00    +0.000 NA
ATOM     11  C   UNL     1       3.019   7.593  17.953  0.00  0.00    +0.000 A 
ATOM     12  C   UNL     1       3.940   6.890  17.174  0.00  0.00    +0.000 A 
ATOM     13  C   UNL     1       4.497   5.696  17.640  0.00  0.00    +0.000 A 
ATOM     14  C   UNL     1       4.112   5.197  18.893  0.00  0.00    +0.000 A 
ATOM     15  C   UNL     1       3.189   5.883  19.666  0.00  0.00    +0.000 A 
ATOM     16  C   UNL     1       2.641   7.080  19.185  0.00  0.00    +0.000 A 
ATOM     17  C   UNL     1       1.699   7.870  20.000  0.00  0.00    +0.000 A 
ATOM     18  O   UNL     1       1.308   7.420  21.075  0.00  0.00    +0.000 OA
ENDBRANCH   6   8
BRANCH   2  19
ATOM     19  C   UNL     1       1.629  14.400  19.507  0.00  0.00    +0.000 C 
ATOM     20  C   UNL     1       2.580  14.655  18.287  0.00  0.00    +0.000 C 
ATOM     21  C   UNL     1       4.036  14.718  18.739  0.00  0.00    +0.000 C 
ATOM     22  C   UNL     1       4.044  14.400  20.216  0.00  0.00    +0.000 C 
ATOM     23  C   UNL     1       2.604  14.626  20.672  0.00  0.00    +0.000 C 
ATOM     24  C   UNL     1       2.462  16.159  20.928  0.00  0.00    +0.000 C 
ATOM     25  N   UNL     1       1.026  16.352  20.938  0.00  0.00    +0.000 NA
ATOM     26  C   UNL     1       0.509  15.394  19.956  0.00  0.00    +0.000 C 
BRANCH  25  27
ATOM     27  C   UNL     1       0.600  17.727  20.671  0.00  0.00    +0.000 C 
BRANCH  27  28
ATOM     28  C   UNL     1       0.367  18.015  19.196  0.00  0.00    +0.000 A 
ATOM     29  C   UNL     1      -0.920  18.290  18.708  0.00  0.00    +0.000 A 
ATOM     30  C   UNL     1      -1.119  18.598  17.358  0.00  0.00    +0.000 A 
ATOM     31  C   UNL     1      -0.038  18.631  16.478  0.00  0.00    +0.000 A 
ATOM     32  C   UNL     1       1.242  18.348  16.947  0.00  0.00    +0.000 A 
ATOM     33  C   UNL     1       1.442  18.043  18.295  0.00  0.00    +0.000 A 
ENDBRANCH  27  28
ENDBRANCH  25  27
ENDBRANCH   2  19
TORSDOF 4
ENDMDL
MODEL 3
REMARK VINA RESULT:      -7.5      3.578      6.158
REMARK  Name = 
REMARK  4 active torsions:
REMARK  status: ('A' for Active; 'I' for Inactive)
REMARK    1  A    between atoms: C_2  and  C_19
REMARK    2  A    between atoms: C_6  and  N_7
REMARK    3  A    between atoms: N_25  and  C_26
REMARK    4  A    between atoms: C_26  and  C_27
REMARK                            x       y       z     vdW  Elec       q    Type
REMARK                         _______ _______ _______ _____ _____    ______ ____
ROOT
ATOM      1  O   UNL     1       3.177   7.974  16.809  0.00  0.00    +0.000 OA
ATOM      2  C   UNL     1       2.659   7.840  17.939  0.00  0.00    +0.000 C 
ATOM      3  N   UNL     1       2.236   8.982  18.532  0.00  0.00    +0.000 N 
ATOM      4  C   UNL     1       2.489  10.244  17.838  0.00  0.00    +0.000 C 
ATOM      5  C   UNL     1       1.854  11.324  18.685  0.00  0.00    +0.000 C 
ATOM      6  C   UNL     1       0.805  10.577  19.517  0.00  0.00    +0.000 C 
ATOM      7  C   UNL     1       1.412   9.169  19.706  0.00  0.00    +0.000 C 
ENDROOT
BRANCH   6   8
ATOM      8  N   UNL     1      -0.529  10.569  18.885  0.00  0.00    +0.000 N 
ATOM      9  C   UNL     1      -0.841   9.749  17.824  0.00  0.00    +0.000 A 
ATOM     10  N   UNL     1      -1.989   9.670  17.239  0.00  0.00    +0.000 NA
ATOM     11  C   UNL     1      -3.021  10.469  17.743  0.00  0.00    +0.000 A 
ATOM     12  C   UNL     1      -4.292  10.333  17.183  0.00  0.00    +0.000 A 
ATOM     13  C   UNL     1      -5.367  11.078  17.678  0.00  0.00    +0.000 A 
ATOM     14  C   UNL     1      -5.157  11.976  18.734  0.00  0.00    +0.000 A 
ATOM     15  C   UNL     1      -3.894  12.125  19.286  0.00  0.00    +0.000 A 
ATOM     16  C   UNL     1      -2.828  11.370  18.779  0.00  0.00    +0.000 A 
ATOM     17  C   UNL     1      -1.481  11.456  19.375  0.00  0.00    +0.000 A 
ATOM     18  O   UNL     1      -1.267  12.279  20.263  0.00  0.00    +0.000 OA
ENDBRANCH   6   8
BRANCH   2  19
ATOM     19  C   UNL     1       2.804   6.452  18.602  0.00  0.00    +0.000 C 
ATOM     20  C   UNL     1       1.973   5.583  17.596  0.00  0.00    +0.000 C 
ATOM     21  C   UNL     1       1.049   4.625  18.342  0.00  0.00    +0.000 C 
ATOM     22  C   UNL     1       1.195   4.942  19.813  0.00  0.00    +0.000 C 
ATOM     23  C   UNL     1       2.508   5.716  19.917  0.00  0.00    +0.000 C 
ATOM     24  C   UNL     1       3.643   4.646  19.959  0.00  0.00    +0.000 C 
ATOM     25  N   UNL     1       4.826   5.420  19.636  0.00  0.00    +0.000 NA
ATOM     26  C   UNL     1       4.364   6.433  18.681  0.00  0.00    +0.000 C 
BRANCH  25  27
ATOM     27  C   UNL     1       5.946   4.626  19.127  0.00  0.00    +0.000 C 
BRANCH  27  28
ATOM     28  C   UNL     1       6.030   4.598  17.609  0.00  0.00    +0.000 A 
ATOM     29  C   UNL     1       7.092   5.218  16.932  0.00  0.00    +0.000 A 
ATOM     30  C   UNL     1       7.186   5.150  15.538  0.00  0.00    +0.000 A 
ATOM     31  C   UNL     1       6.221   4.465  14.802  0.00  0.00    +0.000 A 
ATOM     32  C   UNL     1       5.156   3.855  15.460  0.00  0.00    +0.000 A 
ATOM     33  C   UNL     1       5.062   3.921  16.852  0.00  0.00    +0.000 A 
ENDBRANCH  27  28
ENDBRANCH  25  27
ENDBRANCH   2  19
TORSDOF 4
ENDMDL
MODEL 4
REMARK VINA RESULT:      -7.5      6.381     10.664
REMARK  Name = 
REMARK  4 active torsions:
REMARK  status: ('A' for Active; 'I' for Inactive)
REMARK    1  A    between atoms: C_2  and  C_19
REMARK    2  A    between atoms: C_6  and  N_7
REMARK    3  A    between atoms: N_25  and  C_26
REMARK    4  A    between atoms: C_26  and  C_27
REMARK                            x       y       z     vdW  Elec       q    Type
REMARK                         _______ _______ _______ _____ _____    ______ ____
ROOT
ATOM      1  O   UNL     1       3.822  13.771  22.120  0.00  0.00    +0.000 OA
ATOM      2  C   UNL     1       4.095  14.430  21.094  0.00  0.00    +0.000 C 
ATOM      3  N   UNL     1       5.222  15.180  21.158  0.00  0.00    +0.000 N 
ATOM      4  C   UNL     1       5.954  15.202  22.423  0.00  0.00    +0.000 C 
ATOM      5  C   UNL     1       7.184  16.047  22.181  0.00  0.00    +0.000 C 
ATOM      6  C   UNL     1       7.375  16.004  20.661  0.00  0.00    +0.000 C 
ATOM      7  C   UNL     1       5.938  15.872  20.109  0.00  0.00    +0.000 C 
ENDROOT
BRANCH   6   8
ATOM      8  N   UNL     1       8.280  14.921  20.228  0.00  0.00    +0.000 N 
ATOM      9  C   UNL     1       8.402  13.736  20.919  0.00  0.00    +0.000 A 
ATOM     10  N   UNL     1       9.152  12.739  20.587  0.00  0.00    +0.000 NA
ATOM     11  C   UNL     1       9.888  12.857  19.403  0.00  0.00    +0.000 A 
ATOM     12  C   UNL     1      10.634  11.757  18.979  0.00  0.00    +0.000 A 
ATOM     13  C   UNL     1      11.354  11.808  17.782  0.00  0.00    +0.000 A 
ATOM     14  C   UNL     1      11.333  12.981  17.013  0.00  0.00    +0.000 A 
ATOM     15  C   UNL     1      10.604  14.082  17.435  0.00  0.00    +0.000 A 
ATOM     16  C   UNL     1       9.887  14.013  18.637  0.00  0.00    +0.000 A 
ATOM     17  C   UNL     1       9.053  15.141  19.093  0.00  0.00    +0.000 A 
ATOM     18  O   UNL     1       9.069  16.196  18.462  0.00  0.00    +0.000 OA
ENDBRANCH   6   8
BRANCH   2  19
ATOM     19  C   UNL     1       2.997  14.502  20.009  0.00  0.00    +0.000 C 
ATOM     20  C   UNL     1       3.867  14.268  18.726  0.00  0.00    +0.000 C 
ATOM     21  C   UNL     1       3.481  15.249  17.623  0.00  0.00    +0.000 C 
ATOM     22  C   UNL     1       2.449  16.181  18.216  0.00  0.00    +0.000 C 
ATOM     23  C   UNL     1       1.925  15.449  19.450  0.00  0.00    +0.000 C 
ATOM     24  C   UNL     1       0.839  14.453  18.938  0.00  0.00    +0.000 C 
ATOM     25  N   UNL     1       0.700  13.530  20.048  0.00  0.00    +0.000 NA
ATOM     26  C   UNL     1       2.045  13.423  20.619  0.00  0.00    +0.000 C 
BRANCH  25  27
ATOM     27  C   UNL     1       0.129  12.231  19.685  0.00  0.00    +0.000 C 
BRANCH  27  28
ATOM     28  C   UNL     1      -0.057  11.298  20.871  0.00  0.00    +0.000 A 
ATOM     29  C   UNL     1       0.607  10.063  20.929  0.00  0.00    +0.000 A 
ATOM     30  C   UNL     1       0.467   9.229  22.044  0.00  0.00    +0.000 A 
ATOM     31  C   UNL     1      -0.341   9.617  23.112  0.00  0.00    +0.000 A 
ATOM     32  C   UNL     1      -1.015  10.834  23.061  0.00  0.00    +0.000 A 
ATOM     33  C   UNL     1      -0.873  11.668  21.950  0.00  0.00    +0.000 A 
ENDBRANCH  27  28
ENDBRANCH  25  27
ENDBRANCH   2  19
TORSDOF 4
ENDMDL
MODEL 5
REMARK VINA RESULT:      -7.4      2.480      9.103
REMARK  Name = 
REMARK  4 active torsions:
REMARK  status: ('A' for Active; 'I' for Inactive)
REMARK    1  A    between atoms: C_2  and  C_19
REMARK    2  A    between atoms: C_6  and  N_7
REMARK    3  A    between atoms: N_25  and  C_26
REMARK    4  A    between atoms: C_26  and  C_27
REMARK                            x       y       z     vdW  Elec       q    Type
REMARK                         _______ _______ _______ _____ _____    ______ ____
ROOT
ATOM      1  O   UNL     1       1.073  14.099  22.149  0.00  0.00    +0.000 OA
ATOM      2  C   UNL     1       0.145  13.602  21.474  0.00  0.00    +0.000 C 
ATOM      3  N   UNL     1       0.510  13.040  20.296  0.00  0.00    +0.000 N 
ATOM      4  C   UNL     1       1.915  13.132  19.903  0.00  0.00    +0.000 C 
ATOM      5  C   UNL     1       2.040  12.369  18.604  0.00  0.00    +0.000 C 
ATOM      6  C   UNL     1       0.834  11.422  18.611  0.00  0.00    +0.000 C 
ATOM      7  C   UNL     1      -0.247  12.200  19.393  0.00  0.00    +0.000 C 
ENDROOT
BRANCH   6   8
ATOM      8  N   UNL     1       1.147  10.099  19.187  0.00  0.00    +0.000 N 
ATOM      9  C   UNL     1       0.816   9.756  20.478  0.00  0.00    +0.000 A 
ATOM     10  N   UNL     1       1.036   8.613  21.039  0.00  0.00    +0.000 NA
ATOM     11  C   UNL     1       1.638   7.622  20.258  0.00  0.00    +0.000 A 
ATOM     12  C   UNL     1       1.802   6.353  20.815  0.00  0.00    +0.000 A 
ATOM     13  C   UNL     1       2.360   5.316  20.063  0.00  0.00    +0.000 A 
ATOM     14  C   UNL     1       2.771   5.561  18.745  0.00  0.00    +0.000 A 
ATOM     15  C   UNL     1       2.623   6.822  18.189  0.00  0.00    +0.000 A 
ATOM     16  C   UNL     1       2.059   7.851  18.956  0.00  0.00    +0.000 A 
ATOM     17  C   UNL     1       1.831   9.192  18.385  0.00  0.00    +0.000 A 
ATOM     18  O   UNL     1       2.237   9.440  17.251  0.00  0.00    +0.000 OA
ENDBRANCH   6   8
BRANCH   2  19
ATOM     19  C   UNL     1      -1.292  13.920  21.940  0.00  0.00    +0.000 C 
ATOM     20  C   UNL     1      -1.371  13.010  23.215  0.00  0.00    +0.000 C 
ATOM     21  C   UNL     1      -2.697  12.257  23.263  0.00  0.00    +0.000 C 
ATOM     22  C   UNL     1      -3.428  12.588  21.982  0.00  0.00    +0.000 C 
ATOM     23  C   UNL     1      -2.750  13.855  21.461  0.00  0.00    +0.000 C 
ATOM     24  C   UNL     1      -3.403  15.046  22.228  0.00  0.00    +0.000 C 
ATOM     25  N   UNL     1      -2.459  16.124  22.013  0.00  0.00    +0.000 NA
ATOM     26  C   UNL     1      -1.144  15.475  21.994  0.00  0.00    +0.000 C 
BRANCH  25  27
ATOM     27  C   UNL     1      -2.544  17.207  22.995  0.00  0.00    +0.000 C 
BRANCH  27  28
ATOM     28  C   UNL     1      -1.740  16.946  24.259  0.00  0.00    +0.000 A 
ATOM     29  C   UNL     1      -2.148  15.977  25.187  0.00  0.00    +0.000 A 
ATOM     30  C   UNL     1      -1.379  15.711  26.325  0.00  0.00    +0.000 A 
ATOM     31  C   UNL     1      -0.195  16.413  26.552  0.00  0.00    +0.000 A 
ATOM     32  C   UNL     1       0.215  17.385  25.644  0.00  0.00    +0.000 A 
ATOM     33  C   UNL     1      -0.552  17.650  24.506  0.00  0.00    +0.000 A 
ENDBRANCH  27  28
ENDBRANCH  25  27
ENDBRANCH   2  19
TORSDOF 4
ENDMDL
MODEL 6
REMARK VINA RESULT:      -7.3      4.667      6.768
REMARK  Name = 
REMARK  4 active torsions:
REMARK  status: ('A' for Active; 'I' for Inactive)
REMARK    1  A    between atoms: C_2  and  C_19
REMARK    2  A    between atoms: C_6  and  N_7
REMARK    3  A    between atoms: N_25  and  C_26
REMARK    4  A    between atoms: C_26  and  C_27
REMARK                            x       y       z     vdW  Elec       q    Type
REMARK                         _______ _______ _______ _____ _____    ______ ____
ROOT
ATOM      1  O   UNL     1       0.700  16.090  21.202  0.00  0.00    +0.000 OA
ATOM      2  C   UNL     1       1.268  15.064  20.769  0.00  0.00    +0.000 C 
ATOM      3  N   UNL     1       0.777  13.884  21.218  0.00  0.00    +0.000 N 
ATOM      4  C   UNL     1      -0.301  13.926  22.204  0.00  0.00    +0.000 C 
ATOM      5  C   UNL     1      -0.691  12.488  22.462  0.00  0.00    +0.000 C 
ATOM      6  C   UNL     1      -0.205  11.740  21.216  0.00  0.00    +0.000 C 
ATOM      7  C   UNL     1       1.040  12.535  20.764  0.00  0.00    +0.000 C 
ENDROOT
BRANCH   6   8
ATOM      8  N   UNL     1      -1.246  11.624  20.175  0.00  0.00    +0.000 N 
ATOM      9  C   UNL     1      -2.413  12.354  20.210  0.00  0.00    +0.000 A 
ATOM     10  N   UNL     1      -3.353  12.323  19.326  0.00  0.00    +0.000 NA
ATOM     11  C   UNL     1      -3.160  11.496  18.214  0.00  0.00    +0.000 A 
ATOM     12  C   UNL     1      -4.122  11.517  17.203  0.00  0.00    +0.000 A 
ATOM     13  C   UNL     1      -3.956  10.741  16.052  0.00  0.00    +0.000 A 
ATOM     14  C   UNL     1      -2.821   9.928  15.925  0.00  0.00    +0.000 A 
ATOM     15  C   UNL     1      -1.868   9.893  16.931  0.00  0.00    +0.000 A 
ATOM     16  C   UNL     1      -2.049  10.679  18.078  0.00  0.00    +0.000 A 
ATOM     17  C   UNL     1      -1.032  10.714  19.146  0.00  0.00    +0.000 A 
ATOM     18  O   UNL     1      -0.059   9.965  19.077  0.00  0.00    +0.000 OA
ENDBRANCH   6   8
BRANCH   2  19
ATOM     19  C   UNL     1       2.591  15.283  20.000  0.00  0.00    +0.000 C 
ATOM     20  C   UNL     1       2.367  16.747  19.486  0.00  0.00    +0.000 C 
ATOM     21  C   UNL     1       2.772  16.876  18.021  0.00  0.00    +0.000 C 
ATOM     22  C   UNL     1       3.153  15.489  17.556  0.00  0.00    +0.000 C 
ATOM     23  C   UNL     1       3.413  14.703  18.840  0.00  0.00    +0.000 C 
ATOM     24  C   UNL     1       4.874  15.040  19.269  0.00  0.00    +0.000 C 
ATOM     25  N   UNL     1       4.905  14.624  20.658  0.00  0.00    +0.000 NA
ATOM     26  C   UNL     1       3.561  14.913  21.168  0.00  0.00    +0.000 C 
BRANCH  25  27
ATOM     27  C   UNL     1       5.963  15.251  21.452  0.00  0.00    +0.000 C 
BRANCH  27  28
ATOM     28  C   UNL     1       7.116  14.314  21.775  0.00  0.00    +0.000 A 
ATOM     29  C   UNL     1       6.962  13.270  22.700  0.00  0.00    +0.000 A 
ATOM     30  C   UNL     1       8.013  12.384  22.958  0.00  0.00    +0.000 A 
ATOM     31  C   UNL     1       9.233  12.532  22.299  0.00  0.00    +0.000 A 
ATOM     32  C   UNL     1       9.403  13.571  21.388  0.00  0.00    +0.000 A 
ATOM     33  C   UNL     1       8.353  14.454  21.128  0.00  0.00    +0.000 A 
ENDBRANCH  27  28
ENDBRANCH  25  27
ENDBRANCH   2  19
TORSDOF 4
ENDMDL
MODEL 7
REMARK VINA RESULT:      -7.3      5.882     12.509
REMARK  Name = 
REMARK  4 active torsions:
REMARK  status: ('A' for Active; 'I' for Inactive)
REMARK    1  A    between atoms: C_2  and  C_19
REMARK    2  A    between atoms: C_6  and  N_7
REMARK    3  A    between atoms: N_25  and  C_26
REMARK    4  A    between atoms: C_26  and  C_27
REMARK                            x       y       z     vdW  Elec       q    Type
REMARK                         _______ _______ _______ _____ _____    ______ ____
ROOT
ATOM      1  O   UNL     1       4.854   2.903  20.353  0.00  0.00    +0.000 OA
ATOM      2  C   UNL     1       4.319   3.900  19.821  0.00  0.00    +0.000 C 
ATOM      3  N   UNL     1       5.155   4.731  19.152  0.00  0.00    +0.000 N 
ATOM      4  C   UNL     1       6.584   4.427  19.180  0.00  0.00    +0.000 C 
ATOM      5  C   UNL     1       7.252   5.464  18.306  0.00  0.00    +0.000 C 
ATOM      6  C   UNL     1       6.127   5.960  17.390  0.00  0.00    +0.000 C 
ATOM      7  C   UNL     1       4.855   5.826  18.255  0.00  0.00    +0.000 C 
ENDROOT
BRANCH   6   8
ATOM      8  N   UNL     1       6.059   5.220  16.114  0.00  0.00    +0.000 N 
ATOM      9  C   UNL     1       5.084   4.284  15.852  0.00  0.00    +0.000 A 
ATOM     10  N   UNL     1       4.948   3.618  14.754  0.00  0.00    +0.000 NA
ATOM     11  C   UNL     1       5.854   3.890  13.724  0.00  0.00    +0.000 A 
ATOM     12  C   UNL     1       5.670   3.249  12.498  0.00  0.00    +0.000 A 
ATOM     13  C   UNL     1       6.522   3.517  11.423  0.00  0.00    +0.000 A 
ATOM     14  C   UNL     1       7.577   4.426  11.588  0.00  0.00    +0.000 A 
ATOM     15  C   UNL     1       7.773   5.058  12.806  0.00  0.00    +0.000 A 
ATOM     16  C   UNL     1       6.908   4.779  13.873  0.00  0.00    +0.000 A 
ATOM     17  C   UNL     1       7.047   5.471  15.169  0.00  0.00    +0.000 A 
ATOM     18  O   UNL     1       7.998   6.228  15.348  0.00  0.00    +0.000 OA
ENDBRANCH   6   8
BRANCH   2  19
ATOM     19  C   UNL     1       2.850   4.181  20.208  0.00  0.00    +0.000 C 
ATOM     20  C   UNL     1       2.738   3.302  21.502  0.00  0.00    +0.000 C 
ATOM     21  C   UNL     1       1.436   2.506  21.506  0.00  0.00    +0.000 C 
ATOM     22  C   UNL     1       0.760   2.779  20.182  0.00  0.00    +0.000 C 
ATOM     23  C   UNL     1       1.421   4.053  19.661  0.00  0.00    +0.000 C 
ATOM     24  C   UNL     1       0.692   5.241  20.362  0.00  0.00    +0.000 C 
ATOM     25  N   UNL     1       1.611   6.345  20.164  0.00  0.00    +0.000 NA
ATOM     26  C   UNL     1       2.945   5.740  20.226  0.00  0.00    +0.000 C 
BRANCH  25  27
ATOM     27  C   UNL     1       1.441   7.449  21.110  0.00  0.00    +0.000 C 
BRANCH  27  28
ATOM     28  C   UNL     1       1.073   8.767  20.446  0.00  0.00    +0.000 A 
ATOM     29  C   UNL     1       1.449   9.038  19.122  0.00  0.00    +0.000 A 
ATOM     30  C   UNL     1       1.068  10.234  18.503  0.00  0.00    +0.000 A 
ATOM     31  C   UNL     1       0.309  11.174  19.199  0.00  0.00    +0.000 A 
ATOM     32  C   UNL     1      -0.060  10.921  20.518  0.00  0.00    +0.000 A 
ATOM     33  C   UNL     1       0.318   9.728  21.136  0.00  0.00    +0.000 A 
ENDBRANCH  27  28
ENDBRANCH  25  27
ENDBRANCH   2  19
TORSDOF 4
ENDMDL
MODEL 8
REMARK VINA RESULT:      -7.3      2.591      4.123
REMARK  Name = 
REMARK  4 active torsions:
REMARK  status: ('A' for Active; 'I' for Inactive)
REMARK    1  A    between atoms: C_2  and  C_19
REMARK    2  A    between atoms: C_6  and  N_7
REMARK    3  A    between atoms: N_25  and  C_26
REMARK    4  A    between atoms: C_26  and  C_27
REMARK                            x       y       z     vdW  Elec       q    Type
REMARK                         _______ _______ _______ _____ _____    ______ ____
ROOT
ATOM      1  O   UNL     1       0.321  10.062  22.702  0.00  0.00    +0.000 OA
ATOM      2  C   UNL     1      -0.071  10.840  21.805  0.00  0.00    +0.000 C 
ATOM      3  N   UNL     1      -1.199  11.538  22.082  0.00  0.00    +0.000 N 
ATOM      4  C   UNL     1      -1.875  11.265  23.349  0.00  0.00    +0.000 C 
ATOM      5  C   UNL     1      -3.041  12.225  23.419  0.00  0.00    +0.000 C 
ATOM      6  C   UNL     1      -2.649  13.358  22.464  0.00  0.00    +0.000 C 
ATOM      7  C   UNL     1      -1.793  12.658  21.385  0.00  0.00    +0.000 C 
ENDROOT
BRANCH   6   8
ATOM      8  N   UNL     1      -1.954  14.468  23.146  0.00  0.00    +0.000 N 
ATOM      9  C   UNL     1      -0.604  14.696  23.002  0.00  0.00    +0.000 A 
ATOM     10  N   UNL     1       0.065  15.658  23.546  0.00  0.00    +0.000 NA
ATOM     11  C   UNL     1      -0.649  16.570  24.330  0.00  0.00    +0.000 A 
ATOM     12  C   UNL     1       0.037  17.668  24.852  0.00  0.00    +0.000 A 
ATOM     13  C   UNL     1      -0.638  18.631  25.607  0.00  0.00    +0.000 A 
ATOM     14  C   UNL     1      -2.011  18.481  25.851  0.00  0.00    +0.000 A 
ATOM     15  C   UNL     1      -2.696  17.387  25.346  0.00  0.00    +0.000 A 
ATOM     16  C   UNL     1      -2.004  16.431  24.588  0.00  0.00    +0.000 A 
ATOM     17  C   UNL     1      -2.706  15.282  23.985  0.00  0.00    +0.000 A 
ATOM     18  O   UNL     1      -3.896  15.105  24.235  0.00  0.00    +0.000 OA
ENDBRANCH   6   8
BRANCH   2  19
ATOM     19  C   UNL     1       0.620  10.709  20.429  0.00  0.00    +0.000 C 
ATOM     20  C   UNL     1       1.690  11.848  20.555  0.00  0.00    +0.000 C 
ATOM     21  C   UNL     1       1.750  12.679  19.276  0.00  0.00    +0.000 C 
ATOM     22  C   UNL     1       0.658  12.157  18.371  0.00  0.00    +0.000 C 
ATOM     23  C   UNL     1       0.319  10.774  18.925  0.00  0.00    +0.000 C 
ATOM     24  C   UNL     1       1.379   9.795  18.333  0.00  0.00    +0.000 C 
ATOM     25  N   UNL     1       1.267   8.638  19.199  0.00  0.00    +0.000 NA
ATOM     26  C   UNL     1       0.961   9.186  20.523  0.00  0.00    +0.000 C 
BRANCH  25  27
ATOM     27  C   UNL     1       2.446   7.769  19.201  0.00  0.00    +0.000 C 
BRANCH  27  28
ATOM     28  C   UNL     1       2.109   6.288  19.259  0.00  0.00    +0.000 A 
ATOM     29  C   UNL     1       1.774   5.670  20.474  0.00  0.00    +0.000 A 
ATOM     30  C   UNL     1       1.421   4.317  20.512  0.00  0.00    +0.000 A 
ATOM     31  C   UNL     1       1.401   3.563  19.340  0.00  0.00    +0.000 A 
ATOM     32  C   UNL     1       1.743   4.161  18.129  0.00  0.00    +0.000 A 
ATOM     33  C   UNL     1       2.094   5.512  18.090  0.00  0.00    +0.000 A 
ENDBRANCH  27  28
ENDBRANCH  25  27
ENDBRANCH   2  19
TORSDOF 4
ENDMDL
MODEL 9
REMARK VINA RESULT:      -7.2      1.866      2.676
REMARK  Name = 
REMARK  4 active torsions:
REMARK  status: ('A' for Active; 'I' for Inactive)
REMARK    1  A    between atoms: C_2  and  C_19
REMARK    2  A    between atoms: C_6  and  N_7
REMARK    3  A    between atoms: N_25  and  C_26
REMARK    4  A    between atoms: C_26  and  C_27
REMARK                            x       y       z     vdW  Elec       q    Type
REMARK                         _______ _______ _______ _____ _____    ______ ____
ROOT
ATOM      1  O   UNL     1      -0.152  11.372  18.238  0.00  0.00    +0.000 OA
ATOM      2  C   UNL     1      -0.154  11.163  19.470  0.00  0.00    +0.000 C 
ATOM      3  N   UNL     1      -0.479  12.225  20.247  0.00  0.00    +0.000 N 
ATOM      4  C   UNL     1      -0.720  13.506  19.584  0.00  0.00    +0.000 C 
ATOM      5  C   UNL     1      -1.127  14.472  20.673  0.00  0.00    +0.000 C 
ATOM      6  C   UNL     1      -1.632  13.570  21.804  0.00  0.00    +0.000 C 
ATOM      7  C   UNL     1      -0.790  12.283  21.659  0.00  0.00    +0.000 C 
ENDROOT
BRANCH   6   8
ATOM      8  N   UNL     1      -3.089  13.336  21.745  0.00  0.00    +0.000 N 
ATOM      9  C   UNL     1      -3.761  13.150  20.558  0.00  0.00    +0.000 A 
ATOM     10  N   UNL     1      -5.025  12.917  20.431  0.00  0.00    +0.000 NA
ATOM     11  C   UNL     1      -5.778  12.816  21.605  0.00  0.00    +0.000 A 
ATOM     12  C   UNL     1      -7.127  12.475  21.495  0.00  0.00    +0.000 A 
ATOM     13  C   UNL     1      -7.915  12.320  22.640  0.00  0.00    +0.000 A 
ATOM     14  C   UNL     1      -7.343  12.524  23.904  0.00  0.00    +0.000 A 
ATOM     15  C   UNL     1      -6.007  12.875  24.020  0.00  0.00    +0.000 A 
ATOM     16  C   UNL     1      -5.231  13.024  22.862  0.00  0.00    +0.000 A 
ATOM     17  C   UNL     1      -3.793  13.341  22.944  0.00  0.00    +0.000 A 
ATOM     18  O   UNL     1      -3.289  13.578  24.040  0.00  0.00    +0.000 OA
ENDBRANCH   6   8
BRANCH   2  19
ATOM     19  C   UNL     1       0.455   9.824  19.943  0.00  0.00    +0.000 C 
ATOM     20  C   UNL     1      -0.829   9.131  20.518  0.00  0.00    +0.000 C 
ATOM     21  C   UNL     1      -0.534   8.478  21.865  0.00  0.00    +0.000 C 
ATOM     22  C   UNL     1       0.892   8.834  22.214  0.00  0.00    +0.000 C 
ATOM     23  C   UNL     1       1.524   9.262  20.891  0.00  0.00    +0.000 C 
ATOM     24  C   UNL     1       1.951   7.949  20.166  0.00  0.00    +0.000 C 
ATOM     25  N   UNL     1       2.137   8.384  18.796  0.00  0.00    +0.000 NA
ATOM     26  C   UNL     1       1.123   9.422  18.589  0.00  0.00    +0.000 C 
BRANCH  25  27
ATOM     27  C   UNL     1       2.061   7.308  17.805  0.00  0.00    +0.000 C 
BRANCH  27  28
ATOM     28  C   UNL     1       2.926   6.105  18.147  0.00  0.00    +0.000 A 
ATOM     29  C   UNL     1       4.325   6.208  18.185  0.00  0.00    +0.000 A 
ATOM     30  C   UNL     1       5.111   5.109  18.544  0.00  0.00    +0.000 A 
ATOM     31  C   UNL     1       4.512   3.892  18.867  0.00  0.00    +0.000 A 
ATOM     32  C   UNL     1       3.125   3.774  18.822  0.00  0.00    +0.000 A 
ATOM     33  C   UNL     1       2.339   4.871  18.465  0.00  0.00    +0.000 A 
ENDBRANCH  27  28
ENDBRANCH  25  27
ENDBRANCH   2  19
TORSDOF 4
ENDMDL
