MODEL 1
REMARK VINA RESULT:      -8.8      0.000      0.000
REMARK  Name = 
REMARK  3 active torsions:
REMARK  status: ('A' for Active; 'I' for Inactive)
REMARK    1  A    between atoms: C_6  and  S_7
REMARK    2  A    between atoms: S_7  and  N_10
REMARK    3  A    between atoms: N_10  and  C_11
REMARK                            x       y       z     vdW  Elec       q    Type
REMARK                         _______ _______ _______ _____ _____    ______ ____
ROOT
ATOM      1  S   UNL     1       1.940   4.783  20.658  0.00  0.00    +0.000 S 
ATOM      2  O   UNL     1       0.614   4.860  20.077  0.00  0.00    +0.000 OA
ATOM      3  O   UNL     1       2.203   3.917  21.786  0.00  0.00    +0.000 OA
ENDROOT
BRANCH   1   9
ATOM      4  O   UNL     1       7.896   4.456  16.006  0.00  0.00    +0.000 OA
ATOM      5  C   UNL     1       6.858   4.389  16.642  0.00  0.00    +0.000 C 
ATOM      6  C   UNL     1       6.616   4.922  18.058  0.00  0.00    +0.000 C 
ATOM      7  C   UNL     1       5.188   4.535  18.301  0.00  0.00    +0.000 A 
ATOM      8  C   UNL     1       4.385   4.762  19.403  0.00  0.00    +0.000 A 
ATOM      9  C   UNL     1       3.052   4.332  19.342  0.00  0.00    +0.000 A 
ATOM     10  C   UNL     1       2.544   3.696  18.186  0.00  0.00    +0.000 A 
ATOM     11  C   UNL     1       3.373   3.467  17.082  0.00  0.00    +0.000 A 
ATOM     12  C   UNL     1       4.680   3.898  17.168  0.00  0.00    +0.000 A 
ATOM     13  N   UNL     1       5.672   3.813  16.203  0.00  0.00    +0.000 N 
ATOM     14  H   UNL     1       5.574   3.403  15.286  0.00  0.00    +0.000 HD
ENDBRANCH   1   9
BRANCH   1  15
ATOM     15  N   UNL     1       2.360   6.382  21.023  0.00  0.00    +0.000 N 
ATOM     16  H   UNL     1       3.325   6.410  21.353  0.00  0.00    +0.000 HD
BRANCH  15  17
ATOM     17  C   UNL     1       1.995   7.398  20.089  0.00  0.00    +0.000 A 
ATOM     18  C   UNL     1       2.450   7.260  18.777  0.00  0.00    +0.000 A 
ATOM     19  C   UNL     1       2.142   8.230  17.827  0.00  0.00    +0.000 A 
ATOM     20  C   UNL     1       1.382   9.340  18.187  0.00  0.00    +0.000 A 
ATOM     21  C   UNL     1       0.902   9.487  19.498  0.00  0.00    +0.000 A 
ATOM     22  C   UNL     1       1.224   8.515  20.473  0.00  0.00    +0.000 A 
ATOM     23  C   UNL     1       0.681   8.643  21.881  0.00  0.00    +0.000 C 
ATOM     24  C   UNL     1       0.180  10.044  22.232  0.00  0.00    +0.000 C 
ATOM     25  C   UNL     1      -0.711  10.577  21.121  0.00  0.00    +0.000 C 
ATOM     26  C   UNL     1       0.100  10.722  19.838  0.00  0.00    +0.000 C 
ENDBRANCH  15  17
ENDBRANCH   1  15
TORSDOF 3
ENDMDL
MODEL 2
REMARK VINA RESULT:      -8.7      1.285      1.888
REMARK  Name = 
REMARK  3 active torsions:
REMARK  status: ('A' for Active; 'I' for Inactive)
REMARK    1  A    between atoms: C_6  and  S_7
REMARK    2  A    between atoms: S_7  and  N_10
REMARK    3  A    between atoms: N_10  and  C_11
REMARK                            x       y       z     vdW  Elec       q    Type
REMARK                         _______ _______ _______ _____ _____    ______ ____
ROOT
ATOM      1  S   UNL     1       2.905   4.759  19.473  0.00  0.00    +0.000 S 
ATOM      2  O   UNL     1       1.744   4.731  18.605  0.00  0.00    +0.000 OA
ATOM      3  O   UNL     1       3.182   3.661  20.373  0.00  0.00    +0.000 OA
ENDROOT
BRANCH   1   9
ATOM      4  O   UNL     1       7.578   4.793  13.524  0.00  0.00    +0.000 OA
ATOM      5  C   UNL     1       6.970   4.846  14.579  0.00  0.00    +0.000 C 
ATOM      6  C   UNL     1       5.451   4.753  14.765  0.00  0.00    +0.000 C 
ATOM      7  C   UNL     1       5.306   4.899  16.249  0.00  0.00    +0.000 A 
ATOM      8  C   UNL     1       4.167   4.875  17.034  0.00  0.00    +0.000 A 
ATOM      9  C   UNL     1       4.326   4.985  18.422  0.00  0.00    +0.000 A 
ATOM     10  C   UNL     1       5.610   5.104  19.002  0.00  0.00    +0.000 A 
ATOM     11  C   UNL     1       6.752   5.134  18.193  0.00  0.00    +0.000 A 
ATOM     12  C   UNL     1       6.568   5.027  16.830  0.00  0.00    +0.000 A 
ATOM     13  N   UNL     1       7.537   5.001  15.838  0.00  0.00    +0.000 N 
ATOM     14  H   UNL     1       8.533   5.069  15.980  0.00  0.00    +0.000 HD
ENDBRANCH   1   9
BRANCH   1  15
ATOM     15  N   UNL     1       2.789   6.215  20.327  0.00  0.00    +0.000 N 
ATOM     16  H   UNL     1       3.644   6.361  20.864  0.00  0.00    +0.000 HD
BRANCH  15  17
ATOM     17  C   UNL     1       2.291   7.359  19.632  0.00  0.00    +0.000 A 
ATOM     18  C   UNL     1       2.621   7.487  18.283  0.00  0.00    +0.000 A 
ATOM     19  C   UNL     1       2.182   8.591  17.558  0.00  0.00    +0.000 A 
ATOM     20  C   UNL     1       1.414   9.572  18.183  0.00  0.00    +0.000 A 
ATOM     21  C   UNL     1       1.059   9.452  19.535  0.00  0.00    +0.000 A 
ATOM     22  C   UNL     1       1.515   8.342  20.282  0.00  0.00    +0.000 A 
ATOM     23  C   UNL     1       1.108   8.182  21.732  0.00  0.00    +0.000 C 
ATOM     24  C   UNL     1       0.585   9.465  22.378  0.00  0.00    +0.000 C 
ATOM     25  C   UNL     1      -0.432  10.136  21.468  0.00  0.00    +0.000 C 
ATOM     26  C   UNL     1       0.242  10.556  20.166  0.00  0.00    +0.000 C 
ENDBRANCH  15  17
ENDBRANCH   1  15
TORSDOF 3
ENDMDL
MODEL 3
REMARK VINA RESULT:      -8.6      2.436      6.121
REMARK  Name = 
REMARK  3 active torsions:
REMARK  status: ('A' for Active; 'I' for Inactive)
REMARK    1  A    between atoms: C_6  and  S_7
REMARK    2  A    between atoms: S_7  and  N_10
REMARK    3  A    between atoms: N_10  and  C_11
REMARK                            x       y       z     vdW  Elec       q    Type
REMARK                         _______ _______ _______ _____ _____    ______ ____
ROOT
ATOM      1  S   UNL     1       2.917   2.941  18.465  0.00  0.00    +0.000 S 
ATOM      2  O   UNL     1       2.663   2.088  19.609  0.00  0.00    +0.000 OA
ATOM      3  O   UNL     1       2.339   2.636  17.173  0.00  0.00    +0.000 OA
ENDROOT
BRANCH   1   9
ATOM      4  O   UNL     1       1.740  10.413  18.497  0.00  0.00    +0.000 OA
ATOM      5  C   UNL     1       1.859   9.211  18.660  0.00  0.00    +0.000 C 
ATOM      6  C   UNL     1       2.182   8.169  17.584  0.00  0.00    +0.000 C 
ATOM      7  C   UNL     1       2.178   6.893  18.371  0.00  0.00    +0.000 A 
ATOM      8  C   UNL     1       2.426   5.597  17.956  0.00  0.00    +0.000 A 
ATOM      9  C   UNL     1       2.407   4.584  18.925  0.00  0.00    +0.000 A 
ATOM     10  C   UNL     1       2.153   4.881  20.284  0.00  0.00    +0.000 A 
ATOM     11  C   UNL     1       1.897   6.197  20.686  0.00  0.00    +0.000 A 
ATOM     12  C   UNL     1       1.919   7.174  19.712  0.00  0.00    +0.000 A 
ATOM     13  N   UNL     1       1.727   8.538  19.869  0.00  0.00    +0.000 N 
ATOM     14  H   UNL     1       1.529   9.013  20.737  0.00  0.00    +0.000 HD
ENDBRANCH   1   9
BRANCH   1  15
ATOM     15  N   UNL     1       4.602   3.048  18.353  0.00  0.00    +0.000 N 
ATOM     16  H   UNL     1       5.005   2.113  18.418  0.00  0.00    +0.000 HD
BRANCH  15  17
ATOM     17  C   UNL     1       5.152   3.888  17.338  0.00  0.00    +0.000 A 
ATOM     18  C   UNL     1       4.741   3.664  16.023  0.00  0.00    +0.000 A 
ATOM     19  C   UNL     1       5.258   4.439  14.989  0.00  0.00    +0.000 A 
ATOM     20  C   UNL     1       6.189   5.437  15.266  0.00  0.00    +0.000 A 
ATOM     21  C   UNL     1       6.602   5.687  16.584  0.00  0.00    +0.000 A 
ATOM     22  C   UNL     1       6.095   4.894  17.638  0.00  0.00    +0.000 A 
ATOM     23  C   UNL     1       6.504   5.178  19.068  0.00  0.00    +0.000 C 
ATOM     24  C   UNL     1       7.766   6.031  19.198  0.00  0.00    +0.000 C 
ATOM     25  C   UNL     1       7.684   7.236  18.274  0.00  0.00    +0.000 C 
ATOM     26  C   UNL     1       7.631   6.768  16.824  0.00  0.00    +0.000 C 
ENDBRANCH  15  17
ENDBRANCH   1  15
TORSDOF 3
ENDMDL
MODEL 4
REMARK VINA RESULT:      -8.3      2.150      6.390
REMARK  Name = 
REMARK  3 active torsions:
REMARK  status: ('A' for Active; 'I' for Inactive)
REMARK    1  A    between atoms: C_6  and  S_7
REMARK    2  A    between atoms: S_7  and  N_10
REMARK    3  A    between atoms: N_10  and  C_11
REMARK                            x       y       z     vdW  Elec       q    Type
REMARK                         _______ _______ _______ _____ _____    ______ ____
ROOT
ATOM      1  S   UNL     1       2.317   3.872  19.037  0.00  0.00    +0.000 S 
ATOM      2  O   UNL     1       1.930   3.317  20.318  0.00  0.00    +0.000 OA
ATOM      3  O   UNL     1       1.625   3.490  17.825  0.00  0.00    +0.000 OA
ENDROOT
BRANCH   1   9
ATOM      4  O   UNL     1       0.777  10.845  21.532  0.00  0.00    +0.000 OA
ATOM      5  C   UNL     1       1.093   9.805  20.982  0.00  0.00    +0.000 C 
ATOM      6  C   UNL     1       1.143   8.411  21.618  0.00  0.00    +0.000 C 
ATOM      7  C   UNL     1       1.610   7.560  20.476  0.00  0.00    +0.000 A 
ATOM      8  C   UNL     1       1.829   6.195  20.422  0.00  0.00    +0.000 A 
ATOM      9  C   UNL     1       2.220   5.644  19.194  0.00  0.00    +0.000 A 
ATOM     10  C   UNL     1       2.375   6.456  18.047  0.00  0.00    +0.000 A 
ATOM     11  C   UNL     1       2.156   7.836  18.121  0.00  0.00    +0.000 A 
ATOM     12  C   UNL     1       1.774   8.354  19.341  0.00  0.00    +0.000 A 
ATOM     13  N   UNL     1       1.474   9.671  19.652  0.00  0.00    +0.000 N 
ATOM     14  H   UNL     1       1.505  10.453  19.015  0.00  0.00    +0.000 HD
ENDBRANCH   1   9
BRANCH   1  15
ATOM     15  N   UNL     1       3.976   3.561  18.899  0.00  0.00    +0.000 N 
ATOM     16  H   UNL     1       4.147   2.568  19.059  0.00  0.00    +0.000 HD
BRANCH  15  17
ATOM     17  C   UNL     1       4.675   4.139  17.797  0.00  0.00    +0.000 A 
ATOM     18  C   UNL     1       4.215   3.839  16.514  0.00  0.00    +0.000 A 
ATOM     19  C   UNL     1       4.869   4.359  15.399  0.00  0.00    +0.000 A 
ATOM     20  C   UNL     1       5.984   5.176  15.566  0.00  0.00    +0.000 A 
ATOM     21  C   UNL     1       6.450   5.503  16.849  0.00  0.00    +0.000 A 
ATOM     22  C   UNL     1       5.802   4.966  17.985  0.00  0.00    +0.000 A 
ATOM     23  C   UNL     1       6.273   5.339  19.375  0.00  0.00    +0.000 C 
ATOM     24  C   UNL     1       7.681   5.932  19.419  0.00  0.00    +0.000 C 
ATOM     25  C   UNL     1       7.835   7.003  18.351  0.00  0.00    +0.000 C 
ATOM     26  C   UNL     1       7.677   6.377  16.969  0.00  0.00    +0.000 C 
ENDBRANCH  15  17
ENDBRANCH   1  15
TORSDOF 3
ENDMDL
MODEL 5
REMARK VINA RESULT:      -8.2      0.961      1.023
REMARK  Name = 
REMARK  3 active torsions:
REMARK  status: ('A' for Active; 'I' for Inactive)
REMARK    1  A    between atoms: C_6  and  S_7
REMARK    2  A    between atoms: S_7  and  N_10
REMARK    3  A    between atoms: N_10  and  C_11
REMARK                            x       y       z     vdW  Elec       q    Type
REMARK                         _______ _______ _______ _____ _____    ______ ____
ROOT
ATOM      1  S   UNL     1       2.412   5.150  19.868  0.00  0.00    +0.000 S 
ATOM      2  O   UNL     1       1.109   5.247  19.240  0.00  0.00    +0.000 OA
ATOM      3  O   UNL     1       2.619   4.289  21.012  0.00  0.00    +0.000 OA
ENDROOT
BRANCH   1   9
ATOM      4  O   UNL     1       7.831   5.240  14.591  0.00  0.00    +0.000 OA
ATOM      5  C   UNL     1       6.929   5.053  15.389  0.00  0.00    +0.000 C 
ATOM      6  C   UNL     1       6.551   5.952  16.571  0.00  0.00    +0.000 C 
ATOM      7  C   UNL     1       5.402   5.206  17.179  0.00  0.00    +0.000 A 
ATOM      8  C   UNL     1       4.617   5.528  18.272  0.00  0.00    +0.000 A 
ATOM      9  C   UNL     1       3.561   4.665  18.596  0.00  0.00    +0.000 A 
ATOM     10  C   UNL     1       3.300   3.510  17.824  0.00  0.00    +0.000 A 
ATOM     11  C   UNL     1       4.109   3.195  16.726  0.00  0.00    +0.000 A 
ATOM     12  C   UNL     1       5.143   4.059  16.430  0.00  0.00    +0.000 A 
ATOM     13  N   UNL     1       6.050   3.976  15.384  0.00  0.00    +0.000 N 
ATOM     14  H   UNL     1       6.086   3.248  14.686  0.00  0.00    +0.000 HD
ENDBRANCH   1   9
BRANCH   1  15
ATOM     15  N   UNL     1       2.850   6.743  20.235  0.00  0.00    +0.000 N 
ATOM     16  H   UNL     1       3.864   6.838  20.168  0.00  0.00    +0.000 HD
BRANCH  15  17
ATOM     17  C   UNL     1       2.090   7.798  19.644  0.00  0.00    +0.000 A 
ATOM     18  C   UNL     1       2.208   7.984  18.266  0.00  0.00    +0.000 A 
ATOM     19  C   UNL     1       1.506   9.009  17.638  0.00  0.00    +0.000 A 
ATOM     20  C   UNL     1       0.687   9.851  18.387  0.00  0.00    +0.000 A 
ATOM     21  C   UNL     1       0.543   9.668  19.770  0.00  0.00    +0.000 A 
ATOM     22  C   UNL     1       1.265   8.640  20.419  0.00  0.00    +0.000 A 
ATOM     23  C   UNL     1       1.090   8.409  21.905  0.00  0.00    +0.000 C 
ATOM     24  C   UNL     1       0.465   9.589  22.650  0.00  0.00    +0.000 C 
ATOM     25  C   UNL     1      -0.759  10.095  21.903  0.00  0.00    +0.000 C 
ATOM     26  C   UNL     1      -0.343  10.625  20.536  0.00  0.00    +0.000 C 
ENDBRANCH  15  17
ENDBRANCH   1  15
TORSDOF 3
ENDMDL
MODEL 6
REMARK VINA RESULT:      -8.1      2.801      4.531
REMARK  Name = 
REMARK  3 active torsions:
REMARK  status: ('A' for Active; 'I' for Inactive)
REMARK    1  A    between atoms: C_6  and  S_7
REMARK    2  A    between atoms: S_7  and  N_10
REMARK    3  A    between atoms: N_10  and  C_11
REMARK                            x       y       z     vdW  Elec       q    Type
REMARK                         _______ _______ _______ _____ _____    ______ ____
ROOT
ATOM      1  S   UNL     1       0.852   8.757  21.210  0.00  0.00    +0.000 S 
ATOM      2  O   UNL     1      -0.537   8.400  21.421  0.00  0.00    +0.000 OA
ATOM      3  O   UNL     1       1.713   9.075  22.329  0.00  0.00    +0.000 OA
ENDROOT
BRANCH   1   9
ATOM      4  O   UNL     1       3.902   2.089  19.351  0.00  0.00    +0.000 OA
ATOM      5  C   UNL     1       3.454   3.215  19.480  0.00  0.00    +0.000 C 
ATOM      6  C   UNL     1       2.565   3.721  20.622  0.00  0.00    +0.000 C 
ATOM      7  C   UNL     1       2.328   5.147  20.228  0.00  0.00    +0.000 A 
ATOM      8  C   UNL     1       1.611   6.137  20.876  0.00  0.00    +0.000 A 
ATOM      9  C   UNL     1       1.596   7.416  20.303  0.00  0.00    +0.000 A 
ATOM     10  C   UNL     1       2.299   7.688  19.108  0.00  0.00    +0.000 A 
ATOM     11  C   UNL     1       3.014   6.673  18.460  0.00  0.00    +0.000 A 
ATOM     12  C   UNL     1       3.011   5.423  19.044  0.00  0.00    +0.000 A 
ATOM     13  N   UNL     1       3.664   4.279  18.610  0.00  0.00    +0.000 N 
ATOM     14  H   UNL     1       4.235   4.199  17.783  0.00  0.00    +0.000 HD
ENDBRANCH   1   9
BRANCH   1  15
ATOM     15  N   UNL     1       0.820  10.036  20.101  0.00  0.00    +0.000 N 
ATOM     16  H   UNL     1       1.156   9.707  19.196  0.00  0.00    +0.000 HD
BRANCH  15  17
ATOM     17  C   UNL     1      -0.345  10.861  20.067  0.00  0.00    +0.000 A 
ATOM     18  C   UNL     1      -0.572  11.701  21.157  0.00  0.00    +0.000 A 
ATOM     19  C   UNL     1      -1.703  12.514  21.188  0.00  0.00    +0.000 A 
ATOM     20  C   UNL     1      -2.609  12.484  20.131  0.00  0.00    +0.000 A 
ATOM     21  C   UNL     1      -2.388  11.658  19.018  0.00  0.00    +0.000 A 
ATOM     22  C   UNL     1      -1.252  10.818  18.987  0.00  0.00    +0.000 A 
ATOM     23  C   UNL     1      -0.983   9.948  17.776  0.00  0.00    +0.000 C 
ATOM     24  C   UNL     1      -2.199   9.742  16.874  0.00  0.00    +0.000 C 
ATOM     25  C   UNL     1      -2.885  11.072  16.603  0.00  0.00    +0.000 C 
ATOM     26  C   UNL     1      -3.416  11.651  17.910  0.00  0.00    +0.000 C 
ENDBRANCH  15  17
ENDBRANCH   1  15
TORSDOF 3
ENDMDL
MODEL 7
REMARK VINA RESULT:      -8.1      2.444      6.486
REMARK  Name = 
REMARK  3 active torsions:
REMARK  status: ('A' for Active; 'I' for Inactive)
REMARK    1  A    between atoms: C_6  and  S_7
REMARK    2  A    between atoms: S_7  and  N_10
REMARK    3  A    between atoms: N_10  and  C_11
REMARK                            x       y       z     vdW  Elec       q    Type
REMARK                         _______ _______ _______ _____ _____    ______ ____
ROOT
ATOM      1  S   UNL     1       2.752   2.827  18.117  0.00  0.00    +0.000 S 
ATOM      2  O   UNL     1       2.139   1.849  18.995  0.00  0.00    +0.000 OA
ATOM      3  O   UNL     1       2.491   2.810  16.694  0.00  0.00    +0.000 OA
ENDROOT
BRANCH   1   9
ATOM      4  O   UNL     1       1.760  10.289  18.862  0.00  0.00    +0.000 OA
ATOM      5  C   UNL     1       1.857   9.075  18.913  0.00  0.00    +0.000 C 
ATOM      6  C   UNL     1       2.107   8.126  17.736  0.00  0.00    +0.000 C 
ATOM      7  C   UNL     1       2.106   6.785  18.406  0.00  0.00    +0.000 A 
ATOM      8  C   UNL     1       2.305   5.527  17.868  0.00  0.00    +0.000 A 
ATOM      9  C   UNL     1       2.304   4.433  18.744  0.00  0.00    +0.000 A 
ATOM     10  C   UNL     1       2.117   4.612  20.134  0.00  0.00    +0.000 A 
ATOM     11  C   UNL     1       1.910   5.892  20.661  0.00  0.00    +0.000 A 
ATOM     12  C   UNL     1       1.913   6.951  19.778  0.00  0.00    +0.000 A 
ATOM     13  N   UNL     1       1.762   8.299  20.063  0.00  0.00    +0.000 N 
ATOM     14  H   UNL     1       1.613   8.699  20.977  0.00  0.00    +0.000 HD
ENDBRANCH   1   9
BRANCH   1  15
ATOM     15  N   UNL     1       4.415   2.716  18.419  0.00  0.00    +0.000 N 
ATOM     16  H   UNL     1       4.778   1.862  17.996  0.00  0.00    +0.000 HD
BRANCH  15  17
ATOM     17  C   UNL     1       5.208   3.887  18.225  0.00  0.00    +0.000 A 
ATOM     18  C   UNL     1       5.498   4.661  19.350  0.00  0.00    +0.000 A 
ATOM     19  C   UNL     1       6.251   5.825  19.220  0.00  0.00    +0.000 A 
ATOM     20  C   UNL     1       6.712   6.219  17.966  0.00  0.00    +0.000 A 
ATOM     21  C   UNL     1       6.444   5.444  16.827  0.00  0.00    +0.000 A 
ATOM     22  C   UNL     1       5.666   4.270  16.947  0.00  0.00    +0.000 A 
ATOM     23  C   UNL     1       5.400   3.406  15.732  0.00  0.00    +0.000 C 
ATOM     24  C   UNL     1       5.643   4.113  14.399  0.00  0.00    +0.000 C 
ATOM     25  C   UNL     1       6.979   4.839  14.424  0.00  0.00    +0.000 C 
ATOM     26  C   UNL     1       6.950   5.931  15.488  0.00  0.00    +0.000 C 
ENDBRANCH  15  17
ENDBRANCH   1  15
TORSDOF 3
ENDMDL
MODEL 8
REMARK VINA RESULT:      -8.1      2.221      6.730
REMARK  Name = 
REMARK  3 active torsions:
REMARK  status: ('A' for Active; 'I' for Inactive)
REMARK    1  A    between atoms: C_6  and  S_7
REMARK    2  A    between atoms: S_7  and  N_10
REMARK    3  A    between atoms: N_10  and  C_11
REMARK                            x       y       z     vdW  Elec       q    Type
REMARK                         _______ _______ _______ _____ _____    ______ ____
ROOT
ATOM      1  S   UNL     1       3.542   3.398  18.786  0.00  0.00    +0.000 S 
ATOM      2  O   UNL     1       3.065   2.811  20.022  0.00  0.00    +0.000 OA
ATOM      3  O   UNL     1       3.101   2.888  17.506  0.00  0.00    +0.000 OA
ENDROOT
BRANCH   1   9
ATOM      4  O   UNL     1       0.656  10.091  20.813  0.00  0.00    +0.000 OA
ATOM      5  C   UNL     1       1.190   9.102  20.342  0.00  0.00    +0.000 C 
ATOM      6  C   UNL     1       1.394   7.752  21.040  0.00  0.00    +0.000 C 
ATOM      7  C   UNL     1       2.108   6.958  19.988  0.00  0.00    +0.000 A 
ATOM      8  C   UNL     1       2.547   5.647  20.014  0.00  0.00    +0.000 A 
ATOM      9  C   UNL     1       3.147   5.134  18.856  0.00  0.00    +0.000 A 
ATOM     10  C   UNL     1       3.289   5.929  17.695  0.00  0.00    +0.000 A 
ATOM     11  C   UNL     1       2.847   7.257  17.688  0.00  0.00    +0.000 A 
ATOM     12  C   UNL     1       2.262   7.737  18.841  0.00  0.00    +0.000 A 
ATOM     13  N   UNL     1       1.724   8.996  19.063  0.00  0.00    +0.000 N 
ATOM     14  H   UNL     1       1.696   9.755  18.399  0.00  0.00    +0.000 HD
ENDBRANCH   1   9
BRANCH   1  15
ATOM     15  N   UNL     1       5.231   3.355  18.894  0.00  0.00    +0.000 N 
ATOM     16  H   UNL     1       5.559   2.414  18.675  0.00  0.00    +0.000 HD
BRANCH  15  17
ATOM     17  C   UNL     1       5.966   4.422  18.296  0.00  0.00    +0.000 A 
ATOM     18  C   UNL     1       6.505   5.389  19.145  0.00  0.00    +0.000 A 
ATOM     19  C   UNL     1       7.215   6.464  18.617  0.00  0.00    +0.000 A 
ATOM     20  C   UNL     1       7.385   6.575  17.239  0.00  0.00    +0.000 A 
ATOM     21  C   UNL     1       6.865   5.603  16.371  0.00  0.00    +0.000 A 
ATOM     22  C   UNL     1       6.128   4.518  16.898  0.00  0.00    +0.000 A 
ATOM     23  C   UNL     1       5.593   3.443  15.974  0.00  0.00    +0.000 C 
ATOM     24  C   UNL     1       5.535   3.856  14.504  0.00  0.00    +0.000 C 
ATOM     25  C   UNL     1       6.847   4.504  14.087  0.00  0.00    +0.000 C 
ATOM     26  C   UNL     1       7.062   5.786  14.883  0.00  0.00    +0.000 C 
ENDBRANCH  15  17
ENDBRANCH   1  15
TORSDOF 3
ENDMDL
MODEL 9
REMARK VINA RESULT:      -8.1      3.265      4.987
REMARK  Name = 
REMARK  3 active torsions:
REMARK  status: ('A' for Active; 'I' for Inactive)
REMARK    1  A    between atoms: C_6  and  S_7
REMARK    2  A    between atoms: S_7  and  N_10
REMARK    3  A    between atoms: N_10  and  C_11
REMARK                            x       y       z     vdW  Elec       q    Type
REMARK                         _______ _______ _______ _____ _____    ______ ____
ROOT
ATOM      1  S   UNL     1       0.585   9.649  20.891  0.00  0.00    +0.000 S 
ATOM      2  O   UNL     1      -0.716   9.067  21.156  0.00  0.00    +0.000 OA
ATOM      3  O   UNL     1       1.471  10.005  21.977  0.00  0.00    +0.000 OA
ENDROOT
BRANCH   1   9
ATOM      4  O   UNL     1       4.732   3.877  18.299  0.00  0.00    +0.000 OA
ATOM      5  C   UNL     1       4.062   4.866  18.543  0.00  0.00    +0.000 C 
ATOM      6  C   UNL     1       3.300   5.158  19.841  0.00  0.00    +0.000 C 
ATOM      7  C   UNL     1       2.666   6.483  19.543  0.00  0.00    +0.000 A 
ATOM      8  C   UNL     1       1.866   7.280  20.341  0.00  0.00    +0.000 A 
ATOM      9  C   UNL     1       1.446   8.513  19.822  0.00  0.00    +0.000 A 
ATOM     10  C   UNL     1       1.838   8.932  18.530  0.00  0.00    +0.000 A 
ATOM     11  C   UNL     1       2.642   8.109  17.733  0.00  0.00    +0.000 A 
ATOM     12  C   UNL     1       3.040   6.901  18.266  0.00  0.00    +0.000 A 
ATOM     13  N   UNL     1       3.854   5.940  17.685  0.00  0.00    +0.000 N 
ATOM     14  H   UNL     1       4.269   5.989  16.767  0.00  0.00    +0.000 HD
ENDBRANCH   1   9
BRANCH   1  15
ATOM     15  N   UNL     1       0.280  10.991  19.905  0.00  0.00    +0.000 N 
ATOM     16  H   UNL     1       0.720  10.849  18.996  0.00  0.00    +0.000 HD
BRANCH  15  17
ATOM     17  C   UNL     1      -1.051  11.508  19.874  0.00  0.00    +0.000 A 
ATOM     18  C   UNL     1      -1.456  12.308  20.944  0.00  0.00    +0.000 A 
ATOM     19  C   UNL     1      -2.749  12.824  20.978  0.00  0.00    +0.000 A 
ATOM     20  C   UNL     1      -3.639  12.540  19.944  0.00  0.00    +0.000 A 
ATOM     21  C   UNL     1      -3.243  11.752  18.853  0.00  0.00    +0.000 A 
ATOM     22  C   UNL     1      -1.938  11.210  18.819  0.00  0.00    +0.000 A 
ATOM     23  C   UNL     1      -1.487  10.388  17.629  0.00  0.00    +0.000 C 
ATOM     24  C   UNL     1      -2.632   9.863  16.763  0.00  0.00    +0.000 C 
ATOM     25  C   UNL     1      -3.624  10.977  16.469  0.00  0.00    +0.000 C 
ATOM     26  C   UNL     1      -4.257  11.458  17.771  0.00  0.00    +0.000 C 
ENDBRANCH  15  17
ENDBRANCH   1  15
TORSDOF 3
ENDMDL
