MODEL 1
REMARK VINA RESULT:      -9.1      0.000      0.000
REMARK  Name = 
REMARK  7 active torsions:
REMARK  status: ('A' for Active; 'I' for Inactive)
REMARK    1  A    between atoms: C_1  and  N_2
REMARK    2  A    between atoms: C_6  and  C_7
REMARK    3  A    between atoms: C_7  and  O_8
REMARK    4  A    between atoms: C_7  and  C_9
REMARK    5  A    between atoms: C_9  and  C_10
REMARK    6  A    between atoms: C_14  and  N_15
REMARK    7  A    between atoms: C_23  and  C_24
REMARK                            x       y       z     vdW  Elec       q    Type
REMARK                         _______ _______ _______ _____ _____    ______ ____
ROOT
ATOM      1  C   UNL     1       1.862   7.376  20.026  0.00  0.00    +0.000 A 
ATOM      2  C   UNL     1       2.358   8.239  19.040  0.00  0.00    +0.000 A 
ATOM      3  C   UNL     1       2.967   7.742  17.895  0.00  0.00    +0.000 A 
ATOM      4  C   UNL     1       3.247   6.389  17.799  0.00  0.00    +0.000 A 
ATOM      5  C   UNL     1       3.031   5.566  18.915  0.00  0.00    +0.000 A 
ATOM      6  C   UNL     1       2.187   6.017  19.939  0.00  0.00    +0.000 A 
ENDROOT
BRANCH   5   7
ATOM      7  N   UNL     1       4.018   4.543  19.247  0.00  0.00    +0.000 N 
ATOM      8  C   UNL     1       5.374   5.147  19.326  0.00  0.00    +0.000 C 
ATOM      9  C   UNL     1       5.863   4.989  17.919  0.00  0.00    +0.000 A 
ATOM     10  C   UNL     1       5.207   3.873  17.380  0.00  0.00    +0.000 A 
ATOM     11  C   UNL     1       5.304   3.525  16.043  0.00  0.00    +0.000 A 
ATOM     12  C   UNL     1       6.072   4.352  15.234  0.00  0.00    +0.000 A 
ATOM     13  F   UNL     1       6.128   4.115  13.917  0.00  0.00    +0.000 F 
ATOM     14  C   UNL     1       6.721   5.486  15.746  0.00  0.00    +0.000 A 
ATOM     15  C   UNL     1       6.627   5.832  17.111  0.00  0.00    +0.000 A 
ATOM     16  C   UNL     1       4.136   3.484  18.312  0.00  0.00    +0.000 C 
ATOM     17  O   UNL     1       3.394   2.537  18.133  0.00  0.00    +0.000 OA
BRANCH  15  18
ATOM     18  C   UNL     1       7.236   7.125  17.587  0.00  0.00    +0.000 C 
ATOM     19  F   UNL     1       7.934   7.018  18.750  0.00  0.00    +0.000 F 
ATOM     20  F   UNL     1       8.109   7.645  16.683  0.00  0.00    +0.000 F 
ATOM     21  F   UNL     1       6.301   8.091  17.805  0.00  0.00    +0.000 F 
ENDBRANCH  15  18
ENDBRANCH   5   7
BRANCH   1  22
ATOM     22  C   UNL     1       1.102   7.909  21.223  0.00  0.00    +0.000 C 
BRANCH  22  23
ATOM     23  C   UNL     1       1.498   9.313  21.717  0.00  0.00    +0.000 C 
BRANCH  23  29
ATOM     24  C   UNL     1      -0.149  11.232  19.852  0.00  0.00    +0.000 C 
ATOM     25  N   UNL     1      -0.357  11.011  21.257  0.00  0.00    +0.000 N 
ATOM     26  C   UNL     1      -1.334  11.585  22.012  0.00  0.00    +0.000 A 
ATOM     27  N   UNL     1      -1.242  11.155  23.247  0.00  0.00    +0.000 NA
ATOM     28  N   UNL     1      -0.168  10.303  23.311  0.00  0.00    +0.000 NA
ATOM     29  C   UNL     1       0.355  10.199  22.101  0.00  0.00    +0.000 A 
ENDBRANCH  23  29
BRANCH  23  30
ATOM     30  O   UNL     1       2.356   9.195  22.854  0.00  0.00    +0.000 OA
ATOM     31  H   UNL     1       2.693  10.098  23.024  0.00  0.00    +0.000 HD
ENDBRANCH  23  30
ENDBRANCH  22  23
ENDBRANCH   1  22
TORSDOF 6
ENDMDL
MODEL 2
REMARK VINA RESULT:      -8.5      4.708      6.884
REMARK  Name = 
REMARK  7 active torsions:
REMARK  status: ('A' for Active; 'I' for Inactive)
REMARK    1  A    between atoms: C_1  and  N_2
REMARK    2  A    between atoms: C_6  and  C_7
REMARK    3  A    between atoms: C_7  and  O_8
REMARK    4  A    between atoms: C_7  and  C_9
REMARK    5  A    between atoms: C_9  and  C_10
REMARK    6  A    between atoms: C_14  and  N_15
REMARK    7  A    between atoms: C_23  and  C_24
REMARK                            x       y       z     vdW  Elec       q    Type
REMARK                         _______ _______ _______ _____ _____    ______ ____
ROOT
ATOM      1  C   UNL     1       7.726   7.780  17.807  0.00  0.00    +0.000 A 
ATOM      2  C   UNL     1       7.813   6.933  18.920  0.00  0.00    +0.000 A 
ATOM      3  C   UNL     1       7.816   5.552  18.771  0.00  0.00    +0.000 A 
ATOM      4  C   UNL     1       7.554   4.996  17.529  0.00  0.00    +0.000 A 
ATOM      5  C   UNL     1       7.161   5.834  16.474  0.00  0.00    +0.000 A 
ATOM      6  C   UNL     1       7.420   7.209  16.566  0.00  0.00    +0.000 A 
ENDROOT
BRANCH   5   7
ATOM      7  N   UNL     1       6.090   5.401  15.582  0.00  0.00    +0.000 N 
ATOM      8  C   UNL     1       4.885   6.250  15.779  0.00  0.00    +0.000 C 
ATOM      9  C   UNL     1       4.145   5.491  16.838  0.00  0.00    +0.000 A 
ATOM     10  C   UNL     1       4.507   4.143  16.704  0.00  0.00    +0.000 A 
ATOM     11  C   UNL     1       4.129   3.175  17.619  0.00  0.00    +0.000 A 
ATOM     12  C   UNL     1       3.381   3.600  18.709  0.00  0.00    +0.000 A 
ATOM     13  F   UNL     1       3.064   2.725  19.671  0.00  0.00    +0.000 F 
ATOM     14  C   UNL     1       3.025   4.948  18.876  0.00  0.00    +0.000 A 
ATOM     15  C   UNL     1       3.405   5.929  17.935  0.00  0.00    +0.000 A 
ATOM     16  C   UNL     1       5.642   4.069  15.769  0.00  0.00    +0.000 C 
ATOM     17  O   UNL     1       6.176   3.030  15.433  0.00  0.00    +0.000 OA
BRANCH  15  18
ATOM     18  C   UNL     1       3.107   7.378  18.222  0.00  0.00    +0.000 C 
ATOM     19  F   UNL     1       2.126   7.910  17.443  0.00  0.00    +0.000 F 
ATOM     20  F   UNL     1       2.703   7.576  19.505  0.00  0.00    +0.000 F 
ATOM     21  F   UNL     1       4.194   8.178  18.043  0.00  0.00    +0.000 F 
ENDBRANCH  15  18
ENDBRANCH   5   7
BRANCH   1  22
ATOM     22  C   UNL     1       7.832   9.283  17.956  0.00  0.00    +0.000 C 
BRANCH  22  23
ATOM     23  C   UNL     1       9.168   9.826  18.499  0.00  0.00    +0.000 C 
BRANCH  23  29
ATOM     24  C   UNL     1      11.885  11.368  18.838  0.00  0.00    +0.000 C 
ATOM     25  N   UNL     1      10.653  11.899  18.322  0.00  0.00    +0.000 N 
ATOM     26  C   UNL     1      10.467  13.169  17.866  0.00  0.00    +0.000 A 
ATOM     27  N   UNL     1       9.229  13.313  17.461  0.00  0.00    +0.000 NA
ATOM     28  N   UNL     1       8.580  12.124  17.681  0.00  0.00    +0.000 NA
ATOM     29  C   UNL     1       9.447  11.261  18.183  0.00  0.00    +0.000 A 
ENDBRANCH  23  29
BRANCH  23  30
ATOM     30  O   UNL     1       9.200   9.681  19.921  0.00  0.00    +0.000 OA
ATOM     31  H   UNL     1       8.276   9.489  20.186  0.00  0.00    +0.000 HD
ENDBRANCH  23  30
ENDBRANCH  22  23
ENDBRANCH   1  22
TORSDOF 6
ENDMDL
MODEL 3
REMARK VINA RESULT:      -8.4      1.147      1.450
REMARK  Name = 
REMARK  7 active torsions:
REMARK  status: ('A' for Active; 'I' for Inactive)
REMARK    1  A    between atoms: C_1  and  N_2
REMARK    2  A    between atoms: C_6  and  C_7
REMARK    3  A    between atoms: C_7  and  O_8
REMARK    4  A    between atoms: C_7  and  C_9
REMARK    5  A    between atoms: C_9  and  C_10
REMARK    6  A    between atoms: C_14  and  N_15
REMARK    7  A    between atoms: C_23  and  C_24
REMARK                            x       y       z     vdW  Elec       q    Type
REMARK                         _______ _______ _______ _____ _____    ______ ____
ROOT
ATOM      1  C   UNL     1       1.935   7.405  19.902  0.00  0.00    +0.000 A 
ATOM      2  C   UNL     1       2.422   8.232  18.881  0.00  0.00    +0.000 A 
ATOM      3  C   UNL     1       3.032   7.695  17.755  0.00  0.00    +0.000 A 
ATOM      4  C   UNL     1       3.324   6.342  17.712  0.00  0.00    +0.000 A 
ATOM      5  C   UNL     1       3.118   5.562  18.860  0.00  0.00    +0.000 A 
ATOM      6  C   UNL     1       2.272   6.046  19.868  0.00  0.00    +0.000 A 
ENDROOT
BRANCH   5   7
ATOM      7  N   UNL     1       4.113   4.561  19.230  0.00  0.00    +0.000 N 
ATOM      8  C   UNL     1       5.459   5.188  19.323  0.00  0.00    +0.000 C 
ATOM      9  C   UNL     1       5.977   5.012  17.928  0.00  0.00    +0.000 A 
ATOM     10  C   UNL     1       5.348   3.876  17.398  0.00  0.00    +0.000 A 
ATOM     11  C   UNL     1       5.475   3.504  16.070  0.00  0.00    +0.000 A 
ATOM     12  C   UNL     1       6.245   4.328  15.260  0.00  0.00    +0.000 A 
ATOM     13  F   UNL     1       6.330   4.067  13.949  0.00  0.00    +0.000 F 
ATOM     14  C   UNL     1       6.867   5.482  15.762  0.00  0.00    +0.000 A 
ATOM     15  C   UNL     1       6.741   5.851  17.119  0.00  0.00    +0.000 A 
ATOM     16  C   UNL     1       4.266   3.487  18.317  0.00  0.00    +0.000 C 
ATOM     17  O   UNL     1       3.542   2.525  18.143  0.00  0.00    +0.000 OA
BRANCH  15  18
ATOM     18  C   UNL     1       7.322   7.162  17.581  0.00  0.00    +0.000 C 
ATOM     19  F   UNL     1       8.181   7.736  16.694  0.00  0.00    +0.000 F 
ATOM     20  F   UNL     1       6.362   8.096  17.816  0.00  0.00    +0.000 F 
ATOM     21  F   UNL     1       8.020   7.041  18.744  0.00  0.00    +0.000 F 
ENDBRANCH  15  18
ENDBRANCH   5   7
BRANCH   1  22
ATOM     22  C   UNL     1       1.173   7.978  21.079  0.00  0.00    +0.000 C 
BRANCH  22  23
ATOM     23  C   UNL     1       1.288   9.499  21.295  0.00  0.00    +0.000 C 
BRANCH  23  29
ATOM     24  C   UNL     1       1.551  12.545  20.567  0.00  0.00    +0.000 C 
ATOM     25  N   UNL     1       0.495  11.654  20.170  0.00  0.00    +0.000 N 
ATOM     26  C   UNL     1      -0.564  11.984  19.381  0.00  0.00    +0.000 A 
ATOM     27  N   UNL     1      -1.328  10.933  19.211  0.00  0.00    +0.000 NA
ATOM     28  N   UNL     1      -0.776   9.899  19.925  0.00  0.00    +0.000 NA
ATOM     29  C   UNL     1       0.340  10.329  20.488  0.00  0.00    +0.000 A 
ENDBRANCH  23  29
BRANCH  23  30
ATOM     30  O   UNL     1       1.067   9.804  22.673  0.00  0.00    +0.000 OA
ATOM     31  H   UNL     1       0.167   9.474  22.874  0.00  0.00    +0.000 HD
ENDBRANCH  23  30
ENDBRANCH  22  23
ENDBRANCH   1  22
TORSDOF 6
ENDMDL
MODEL 4
REMARK VINA RESULT:      -8.4      0.598      1.118
REMARK  Name = 
REMARK  7 active torsions:
REMARK  status: ('A' for Active; 'I' for Inactive)
REMARK    1  A    between atoms: C_1  and  N_2
REMARK    2  A    between atoms: C_6  and  C_7
REMARK    3  A    between atoms: C_7  and  O_8
REMARK    4  A    between atoms: C_7  and  C_9
REMARK    5  A    between atoms: C_9  and  C_10
REMARK    6  A    between atoms: C_14  and  N_15
REMARK    7  A    between atoms: C_23  and  C_24
REMARK                            x       y       z     vdW  Elec       q    Type
REMARK                         _______ _______ _______ _____ _____    ______ ____
ROOT
ATOM      1  C   UNL     1       1.968   7.395  19.863  0.00  0.00    +0.000 A 
ATOM      2  C   UNL     1       2.447   8.205  18.825  0.00  0.00    +0.000 A 
ATOM      3  C   UNL     1       3.031   7.647  17.694  0.00  0.00    +0.000 A 
ATOM      4  C   UNL     1       3.305   6.290  17.662  0.00  0.00    +0.000 A 
ATOM      5  C   UNL     1       3.110   5.526  18.823  0.00  0.00    +0.000 A 
ATOM      6  C   UNL     1       2.288   6.032  19.840  0.00  0.00    +0.000 A 
ENDROOT
BRANCH   5   7
ATOM      7  N   UNL     1       4.100   4.518  19.187  0.00  0.00    +0.000 N 
ATOM      8  C   UNL     1       5.447   5.139  19.294  0.00  0.00    +0.000 C 
ATOM      9  C   UNL     1       5.971   4.975  17.900  0.00  0.00    +0.000 A 
ATOM     10  C   UNL     1       5.342   3.847  17.354  0.00  0.00    +0.000 A 
ATOM     11  C   UNL     1       5.474   3.490  16.023  0.00  0.00    +0.000 A 
ATOM     12  C   UNL     1       6.252   4.319  15.225  0.00  0.00    +0.000 A 
ATOM     13  F   UNL     1       6.342   4.072  13.912  0.00  0.00    +0.000 F 
ATOM     14  C   UNL     1       6.874   5.465  15.744  0.00  0.00    +0.000 A 
ATOM     15  C   UNL     1       6.744   5.820  17.103  0.00  0.00    +0.000 A 
ATOM     16  C   UNL     1       4.253   3.452  18.264  0.00  0.00    +0.000 C 
ATOM     17  O   UNL     1       3.527   2.495  18.075  0.00  0.00    +0.000 OA
BRANCH  15  18
ATOM     18  C   UNL     1       7.326   7.124  17.582  0.00  0.00    +0.000 C 
ATOM     19  F   UNL     1       8.031   7.028  18.743  0.00  0.00    +0.000 F 
ATOM     20  F   UNL     1       8.183   7.669  16.678  0.00  0.00    +0.000 F 
ATOM     21  F   UNL     1       6.371   8.069  17.809  0.00  0.00    +0.000 F 
ENDBRANCH  15  18
ENDBRANCH   5   7
BRANCH   1  22
ATOM     22  C   UNL     1       1.234   7.991  21.046  0.00  0.00    +0.000 C 
BRANCH  22  23
ATOM     23  C   UNL     1       1.709   9.379  21.519  0.00  0.00    +0.000 C 
BRANCH  23  29
ATOM     24  C   UNL     1      -0.860  10.120  23.171  0.00  0.00    +0.000 C 
ATOM     25  N   UNL     1      -0.351  10.810  22.017  0.00  0.00    +0.000 N 
ATOM     26  C   UNL     1      -0.892  11.928  21.461  0.00  0.00    +0.000 A 
ATOM     27  N   UNL     1      -0.172  12.298  20.430  0.00  0.00    +0.000 NA
ATOM     28  N   UNL     1       0.847  11.389  20.289  0.00  0.00    +0.000 NA
ATOM     29  C   UNL     1       0.752  10.500  21.263  0.00  0.00    +0.000 A 
ENDBRANCH  23  29
BRANCH  23  30
ATOM     30  O   UNL     1       1.968   9.342  22.924  0.00  0.00    +0.000 OA
ATOM     31  H   UNL     1       2.633   8.634  23.050  0.00  0.00    +0.000 HD
ENDBRANCH  23  30
ENDBRANCH  22  23
ENDBRANCH   1  22
TORSDOF 6
ENDMDL
MODEL 5
REMARK VINA RESULT:      -8.3      4.200      7.870
REMARK  Name = 
REMARK  7 active torsions:
REMARK  status: ('A' for Active; 'I' for Inactive)
REMARK    1  A    between atoms: C_1  and  N_2
REMARK    2  A    between atoms: C_6  and  C_7
REMARK    3  A    between atoms: C_7  and  O_8
REMARK    4  A    between atoms: C_7  and  C_9
REMARK    5  A    between atoms: C_9  and  C_10
REMARK    6  A    between atoms: C_14  and  N_15
REMARK    7  A    between atoms: C_23  and  C_24
REMARK                            x       y       z     vdW  Elec       q    Type
REMARK                         _______ _______ _______ _____ _____    ______ ____
ROOT
ATOM      1  C   UNL     1       2.064   4.094  18.525  0.00  0.00    +0.000 A 
ATOM      2  C   UNL     1       1.848   3.639  19.832  0.00  0.00    +0.000 A 
ATOM      3  C   UNL     1       1.381   4.497  20.820  0.00  0.00    +0.000 A 
ATOM      4  C   UNL     1       1.292   5.855  20.563  0.00  0.00    +0.000 A 
ATOM      5  C   UNL     1       1.800   6.357  19.355  0.00  0.00    +0.000 A 
ATOM      6  C   UNL     1       2.013   5.473  18.288  0.00  0.00    +0.000 A 
ENDROOT
BRANCH   5   7
ATOM      7  N   UNL     1       2.554   7.607  19.363  0.00  0.00    +0.000 N 
ATOM      8  C   UNL     1       2.230   8.392  20.584  0.00  0.00    +0.000 C 
ATOM      9  C   UNL     1       1.079   9.229  20.114  0.00  0.00    +0.000 A 
ATOM     10  C   UNL     1       1.233   9.397  18.731  0.00  0.00    +0.000 A 
ATOM     11  C   UNL     1       0.265   9.992  17.940  0.00  0.00    +0.000 A 
ATOM     12  C   UNL     1      -0.899  10.404  18.576  0.00  0.00    +0.000 A 
ATOM     13  F   UNL     1      -1.906  10.903  17.847  0.00  0.00    +0.000 F 
ATOM     14  C   UNL     1      -1.085  10.226  19.956  0.00  0.00    +0.000 A 
ATOM     15  C   UNL     1      -0.091   9.628  20.759  0.00  0.00    +0.000 A 
ATOM     16  C   UNL     1       2.294   8.482  18.278  0.00  0.00    +0.000 C 
ATOM     17  O   UNL     1       2.674   8.403  17.126  0.00  0.00    +0.000 OA
BRANCH  15  18
ATOM     18  C   UNL     1      -0.388   9.347  22.210  0.00  0.00    +0.000 C 
ATOM     19  F   UNL     1      -1.240  10.237  22.787  0.00  0.00    +0.000 F 
ATOM     20  F   UNL     1      -0.955   8.125  22.391  0.00  0.00    +0.000 F 
ATOM     21  F   UNL     1       0.735   9.358  22.981  0.00  0.00    +0.000 F 
ENDBRANCH  15  18
ENDBRANCH   5   7
BRANCH   1  22
ATOM     22  C   UNL     1       2.469   3.140  17.421  0.00  0.00    +0.000 C 
BRANCH  22  23
ATOM     23  C   UNL     1       3.939   2.680  17.416  0.00  0.00    +0.000 C 
BRANCH  23  29
ATOM     24  C   UNL     1       5.239   5.128  15.935  0.00  0.00    +0.000 C 
ATOM     25  N   UNL     1       5.450   4.740  17.303  0.00  0.00    +0.000 N 
ATOM     26  C   UNL     1       6.239   5.394  18.199  0.00  0.00    +0.000 A 
ATOM     27  N   UNL     1       6.196   4.776  19.354  0.00  0.00    +0.000 NA
ATOM     28  N   UNL     1       5.386   3.678  19.207  0.00  0.00    +0.000 NA
ATOM     29  C   UNL     1       4.917   3.667  17.970  0.00  0.00    +0.000 A 
ENDBRANCH  23  29
BRANCH  23  30
ATOM     30  O   UNL     1       4.066   1.474  18.171  0.00  0.00    +0.000 OA
ATOM     31  H   UNL     1       5.017   1.400  18.392  0.00  0.00    +0.000 HD
ENDBRANCH  23  30
ENDBRANCH  22  23
ENDBRANCH   1  22
TORSDOF 6
ENDMDL
MODEL 6
REMARK VINA RESULT:      -8.3      3.531      8.320
REMARK  Name = 
REMARK  7 active torsions:
REMARK  status: ('A' for Active; 'I' for Inactive)
REMARK    1  A    between atoms: C_1  and  N_2
REMARK    2  A    between atoms: C_6  and  C_7
REMARK    3  A    between atoms: C_7  and  O_8
REMARK    4  A    between atoms: C_7  and  C_9
REMARK    5  A    between atoms: C_9  and  C_10
REMARK    6  A    between atoms: C_14  and  N_15
REMARK    7  A    between atoms: C_23  and  C_24
REMARK                            x       y       z     vdW  Elec       q    Type
REMARK                         _______ _______ _______ _____ _____    ______ ____
ROOT
ATOM      1  C   UNL     1       2.636   5.932  19.009  0.00  0.00    +0.000 A 
ATOM      2  C   UNL     1       2.406   6.576  17.786  0.00  0.00    +0.000 A 
ATOM      3  C   UNL     1       2.138   7.938  17.733  0.00  0.00    +0.000 A 
ATOM      4  C   UNL     1       1.922   8.641  18.907  0.00  0.00    +0.000 A 
ATOM      5  C   UNL     1       1.846   7.938  20.120  0.00  0.00    +0.000 A 
ATOM      6  C   UNL     1       2.373   6.641  20.188  0.00  0.00    +0.000 A 
ENDROOT
BRANCH   5   7
ATOM      7  N   UNL     1       0.827   8.310  21.096  0.00  0.00    +0.000 N 
ATOM      8  C   UNL     1      -0.460   8.597  20.409  0.00  0.00    +0.000 C 
ATOM      9  C   UNL     1      -0.347  10.068  20.147  0.00  0.00    +0.000 A 
ATOM     10  C   UNL     1       0.490  10.598  21.140  0.00  0.00    +0.000 A 
ATOM     11  C   UNL     1       0.938  11.908  21.116  0.00  0.00    +0.000 A 
ATOM     12  C   UNL     1       0.540  12.688  20.038  0.00  0.00    +0.000 A 
ATOM     13  F   UNL     1       1.016  13.933  19.915  0.00  0.00    +0.000 F 
ATOM     14  C   UNL     1      -0.279  12.173  19.021  0.00  0.00    +0.000 A 
ATOM     15  C   UNL     1      -0.741  10.840  19.055  0.00  0.00    +0.000 A 
ATOM     16  C   UNL     1       1.110   9.472  21.858  0.00  0.00    +0.000 C 
ATOM     17  O   UNL     1       1.879   9.606  22.791  0.00  0.00    +0.000 OA
BRANCH  15  18
ATOM     18  C   UNL     1      -1.513  10.299  17.879  0.00  0.00    +0.000 C 
ATOM     19  F   UNL     1      -2.643   9.620  18.219  0.00  0.00    +0.000 F 
ATOM     20  F   UNL     1      -1.917  11.282  17.032  0.00  0.00    +0.000 F 
ATOM     21  F   UNL     1      -0.776   9.434  17.127  0.00  0.00    +0.000 F 
ENDBRANCH  15  18
ENDBRANCH   5   7
BRANCH   1  22
ATOM     22  C   UNL     1       3.034   4.472  19.063  0.00  0.00    +0.000 C 
BRANCH  22  23
ATOM     23  C   UNL     1       4.201   4.046  18.152  0.00  0.00    +0.000 C 
BRANCH  23  29
ATOM     24  C   UNL     1       6.679   4.575  16.293  0.00  0.00    +0.000 C 
ATOM     25  N   UNL     1       6.600   4.811  17.708  0.00  0.00    +0.000 N 
ATOM     26  C   UNL     1       7.592   5.336  18.480  0.00  0.00    +0.000 A 
ATOM     27  N   UNL     1       7.181   5.425  19.721  0.00  0.00    +0.000 NA
ATOM     28  N   UNL     1       5.904   4.924  19.772  0.00  0.00    +0.000 NA
ATOM     29  C   UNL     1       5.544   4.572  18.549  0.00  0.00    +0.000 A 
ENDBRANCH  23  29
BRANCH  23  30
ATOM     30  O   UNL     1       4.286   2.620  18.119  0.00  0.00    +0.000 OA
ATOM     31  H   UNL     1       3.933   2.316  18.981  0.00  0.00    +0.000 HD
ENDBRANCH  23  30
ENDBRANCH  22  23
ENDBRANCH   1  22
TORSDOF 6
ENDMDL
MODEL 7
REMARK VINA RESULT:      -8.2      0.919      1.149
REMARK  Name = 
REMARK  7 active torsions:
REMARK  status: ('A' for Active; 'I' for Inactive)
REMARK    1  A    between atoms: C_1  and  N_2
REMARK    2  A    between atoms: C_6  and  C_7
REMARK    3  A    between atoms: C_7  and  O_8
REMARK    4  A    between atoms: C_7  and  C_9
REMARK    5  A    between atoms: C_9  and  C_10
REMARK    6  A    between atoms: C_14  and  N_15
REMARK    7  A    between atoms: C_23  and  C_24
REMARK                            x       y       z     vdW  Elec       q    Type
REMARK                         _______ _______ _______ _____ _____    ______ ____
ROOT
ATOM      1  C   UNL     1       2.124   7.699  19.570  0.00  0.00    +0.000 A 
ATOM      2  C   UNL     1       2.545   8.293  18.373  0.00  0.00    +0.000 A 
ATOM      3  C   UNL     1       3.000   7.520  17.312  0.00  0.00    +0.000 A 
ATOM      4  C   UNL     1       3.209   6.163  17.493  0.00  0.00    +0.000 A 
ATOM      5  C   UNL     1       3.083   5.617  18.779  0.00  0.00    +0.000 A 
ATOM      6  C   UNL     1       2.378   6.335  19.756  0.00  0.00    +0.000 A 
ENDROOT
BRANCH   5   7
ATOM      7  N   UNL     1       4.055   4.627  19.231  0.00  0.00    +0.000 N 
ATOM      8  C   UNL     1       5.401   5.248  19.351  0.00  0.00    +0.000 C 
ATOM      9  C   UNL     1       5.972   5.008  17.987  0.00  0.00    +0.000 A 
ATOM     10  C   UNL     1       5.356   3.854  17.482  0.00  0.00    +0.000 A 
ATOM     11  C   UNL     1       5.532   3.424  16.178  0.00  0.00    +0.000 A 
ATOM     12  C   UNL     1       6.341   4.206  15.363  0.00  0.00    +0.000 A 
ATOM     13  F   UNL     1       6.475   3.888  14.069  0.00  0.00    +0.000 F 
ATOM     14  C   UNL     1       6.951   5.377  15.840  0.00  0.00    +0.000 A 
ATOM     15  C   UNL     1       6.775   5.806  17.173  0.00  0.00    +0.000 A 
ATOM     16  C   UNL     1       4.234   3.513  18.373  0.00  0.00    +0.000 C 
ATOM     17  O   UNL     1       3.510   2.549  18.212  0.00  0.00    +0.000 OA
BRANCH  15  18
ATOM     18  C   UNL     1       7.348   7.132  17.600  0.00  0.00    +0.000 C 
ATOM     19  F   UNL     1       8.197   7.691  16.696  0.00  0.00    +0.000 F 
ATOM     20  F   UNL     1       6.382   8.063  17.820  0.00  0.00    +0.000 F 
ATOM     21  F   UNL     1       8.054   7.043  18.762  0.00  0.00    +0.000 F 
ENDBRANCH  15  18
ENDBRANCH   5   7
BRANCH   1  22
ATOM     22  C   UNL     1       1.525   8.527  20.687  0.00  0.00    +0.000 C 
BRANCH  22  23
ATOM     23  C   UNL     1       0.619   9.699  20.263  0.00  0.00    +0.000 C 
BRANCH  23  29
ATOM     24  C   UNL     1      -1.668  11.843  20.052  0.00  0.00    +0.000 C 
ATOM     25  N   UNL     1      -1.084  11.325  21.259  0.00  0.00    +0.000 N 
ATOM     26  C   UNL     1      -1.451  11.664  22.525  0.00  0.00    +0.000 A 
ATOM     27  N   UNL     1      -0.722  10.997  23.387  0.00  0.00    +0.000 NA
ATOM     28  N   UNL     1       0.161  10.226  22.673  0.00  0.00    +0.000 NA
ATOM     29  C   UNL     1      -0.073  10.407  21.384  0.00  0.00    +0.000 A 
ENDBRANCH  23  29
BRANCH  23  30
ATOM     30  O   UNL     1       1.392  10.667  19.550  0.00  0.00    +0.000 OA
ATOM     31  H   UNL     1       2.229  10.214  19.316  0.00  0.00    +0.000 HD
ENDBRANCH  23  30
ENDBRANCH  22  23
ENDBRANCH   1  22
TORSDOF 6
ENDMDL
MODEL 8
REMARK VINA RESULT:      -8.1      3.698      8.649
REMARK  Name = 
REMARK  7 active torsions:
REMARK  status: ('A' for Active; 'I' for Inactive)
REMARK    1  A    between atoms: C_1  and  N_2
REMARK    2  A    between atoms: C_6  and  C_7
REMARK    3  A    between atoms: C_7  and  O_8
REMARK    4  A    between atoms: C_7  and  C_9
REMARK    5  A    between atoms: C_9  and  C_10
REMARK    6  A    between atoms: C_14  and  N_15
REMARK    7  A    between atoms: C_23  and  C_24
REMARK                            x       y       z     vdW  Elec       q    Type
REMARK                         _______ _______ _______ _____ _____    ______ ____
ROOT
ATOM      1  C   UNL     1       2.496   6.873  19.401  0.00  0.00    +0.000 A 
ATOM      2  C   UNL     1       2.374   7.274  18.064  0.00  0.00    +0.000 A 
ATOM      3  C   UNL     1       1.932   8.550  17.737  0.00  0.00    +0.000 A 
ATOM      4  C   UNL     1       1.439   9.381  18.729  0.00  0.00    +0.000 A 
ATOM      5  C   UNL     1       1.272   8.871  20.026  0.00  0.00    +0.000 A 
ATOM      6  C   UNL     1       1.956   7.703  20.392  0.00  0.00    +0.000 A 
ENDROOT
BRANCH   5   7
ATOM      7  N   UNL     1       0.071   9.220  20.779  0.00  0.00    +0.000 N 
ATOM      8  C   UNL     1      -1.124   9.150  19.897  0.00  0.00    +0.000 C 
ATOM      9  C   UNL     1      -1.196  10.550  19.368  0.00  0.00    +0.000 A 
ATOM     10  C   UNL     1      -0.612  11.384  20.332  0.00  0.00    +0.000 A 
ATOM     11  C   UNL     1      -0.369  12.728  20.108  0.00  0.00    +0.000 A 
ATOM     12  C   UNL     1      -0.711  13.227  18.857  0.00  0.00    +0.000 A 
ATOM     13  F   UNL     1      -0.417  14.497  18.553  0.00  0.00    +0.000 F 
ATOM     14  C   UNL     1      -1.277  12.407  17.868  0.00  0.00    +0.000 A 
ATOM     15  C   UNL     1      -1.531  11.040  18.106  0.00  0.00    +0.000 A 
ATOM     16  C   UNL     1       0.054  10.527  21.328  0.00  0.00    +0.000 C 
ATOM     17  O   UNL     1       0.642  10.954  22.303  0.00  0.00    +0.000 OA
BRANCH  15  18
ATOM     18  C   UNL     1      -2.023  10.175  16.974  0.00  0.00    +0.000 C 
ATOM     19  F   UNL     1      -2.305  10.859  15.831  0.00  0.00    +0.000 F 
ATOM     20  F   UNL     1      -1.116   9.227  16.619  0.00  0.00    +0.000 F 
ATOM     21  F   UNL     1      -3.165   9.503  17.291  0.00  0.00    +0.000 F 
ENDBRANCH  15  18
ENDBRANCH   5   7
BRANCH   1  22
ATOM     22  C   UNL     1       3.079   5.524  19.765  0.00  0.00    +0.000 C 
BRANCH  22  23
ATOM     23  C   UNL     1       3.766   4.745  18.627  0.00  0.00    +0.000 C 
BRANCH  23  29
ATOM     24  C   UNL     1       5.696   4.201  16.207  0.00  0.00    +0.000 C 
ATOM     25  N   UNL     1       6.074   4.595  17.536  0.00  0.00    +0.000 N 
ATOM     26  C   UNL     1       7.347   4.825  17.962  0.00  0.00    +0.000 A 
ATOM     27  N   UNL     1       7.330   5.176  19.224  0.00  0.00    +0.000 NA
ATOM     28  N   UNL     1       6.024   5.149  19.645  0.00  0.00    +0.000 NA
ATOM     29  C   UNL     1       5.260   4.818  18.617  0.00  0.00    +0.000 A 
ENDBRANCH  23  29
BRANCH  23  30
ATOM     30  O   UNL     1       3.400   3.366  18.703  0.00  0.00    +0.000 OA
ATOM     31  H   UNL     1       2.831   3.288  19.496  0.00  0.00    +0.000 HD
ENDBRANCH  23  30
ENDBRANCH  22  23
ENDBRANCH   1  22
TORSDOF 6
ENDMDL
MODEL 9
REMARK VINA RESULT:      -8.1      4.827      6.862
REMARK  Name = 
REMARK  7 active torsions:
REMARK  status: ('A' for Active; 'I' for Inactive)
REMARK    1  A    between atoms: C_1  and  N_2
REMARK    2  A    between atoms: C_6  and  C_7
REMARK    3  A    between atoms: C_7  and  O_8
REMARK    4  A    between atoms: C_7  and  C_9
REMARK    5  A    between atoms: C_9  and  C_10
REMARK    6  A    between atoms: C_14  and  N_15
REMARK    7  A    between atoms: C_23  and  C_24
REMARK                            x       y       z     vdW  Elec       q    Type
REMARK                         _______ _______ _______ _____ _____    ______ ____
ROOT
ATOM      1  C   UNL     1       7.840   7.862  17.865  0.00  0.00    +0.000 A 
ATOM      2  C   UNL     1       7.806   7.048  19.005  0.00  0.00    +0.000 A 
ATOM      3  C   UNL     1       7.716   5.666  18.895  0.00  0.00    +0.000 A 
ATOM      4  C   UNL     1       7.481   5.090  17.657  0.00  0.00    +0.000 A 
ATOM      5  C   UNL     1       7.207   5.919  16.559  0.00  0.00    +0.000 A 
ATOM      6  C   UNL     1       7.560   7.274  16.625  0.00  0.00    +0.000 A 
ENDROOT
BRANCH   5   7
ATOM      7  N   UNL     1       6.157   5.535  15.621  0.00  0.00    +0.000 N 
ATOM      8  C   UNL     1       4.942   6.362  15.847  0.00  0.00    +0.000 C 
ATOM      9  C   UNL     1       4.187   5.534  16.842  0.00  0.00    +0.000 A 
ATOM     10  C   UNL     1       4.562   4.199  16.633  0.00  0.00    +0.000 A 
ATOM     11  C   UNL     1       4.175   3.175  17.480  0.00  0.00    +0.000 A 
ATOM     12  C   UNL     1       3.403   3.527  18.580  0.00  0.00    +0.000 A 
ATOM     13  F   UNL     1       3.075   2.592  19.480  0.00  0.00    +0.000 F 
ATOM     14  C   UNL     1       3.033   4.860  18.821  0.00  0.00    +0.000 A 
ATOM     15  C   UNL     1       3.424   5.899  17.950  0.00  0.00    +0.000 A 
ATOM     16  C   UNL     1       5.716   4.191  15.718  0.00  0.00    +0.000 C 
ATOM     17  O   UNL     1       6.264   3.177  15.329  0.00  0.00    +0.000 OA
BRANCH  15  18
ATOM     18  C   UNL     1       3.108   7.326  18.319  0.00  0.00    +0.000 C 
ATOM     19  F   UNL     1       2.777   7.503  19.627  0.00  0.00    +0.000 F 
ATOM     20  F   UNL     1       4.157   8.160  18.091  0.00  0.00    +0.000 F 
ATOM     21  F   UNL     1       2.065   7.829  17.603  0.00  0.00    +0.000 F 
ENDBRANCH  15  18
ENDBRANCH   5   7
BRANCH   1  22
ATOM     22  C   UNL     1       8.047   9.358  17.976  0.00  0.00    +0.000 C 
BRANCH  22  23
ATOM     23  C   UNL     1       9.298   9.821  18.746  0.00  0.00    +0.000 C 
BRANCH  23  29
ATOM     24  C   UNL     1       7.928  12.360  17.501  0.00  0.00    +0.000 C 
ATOM     25  N   UNL     1       9.338  12.145  17.680  0.00  0.00    +0.000 N 
ATOM     26  C   UNL     1      10.321  13.030  17.358  0.00  0.00    +0.000 A 
ATOM     27  N   UNL     1      11.489  12.518  17.662  0.00  0.00    +0.000 NA
ATOM     28  N   UNL     1      11.271  11.260  18.168  0.00  0.00    +0.000 NA
ATOM     29  C   UNL     1       9.967  11.042  18.199  0.00  0.00    +0.000 A 
ENDBRANCH  23  29
BRANCH  23  30
ATOM     30  O   UNL     1       8.950  10.090  20.106  0.00  0.00    +0.000 OA
ATOM     31  H   UNL     1       8.550   9.263  20.444  0.00  0.00    +0.000 HD
ENDBRANCH  23  30
ENDBRANCH  22  23
ENDBRANCH   1  22
TORSDOF 6
ENDMDL
