MODEL 1
REMARK VINA RESULT:      -8.3      0.000      0.000
REMARK  Name = 
REMARK  7 active torsions:
REMARK  status: ('A' for Active; 'I' for Inactive)
REMARK    1  A    between atoms: C_4  and  C_5
REMARK    2  A    between atoms: C_5  and  C_6
REMARK    3  A    between atoms: C_6  and  O_7
REMARK    4  A    between atoms: O_7  and  C_8
REMARK    5  A    between atoms: C_8  and  C_10
REMARK    6  A    between atoms: C_14  and  N_15
REMARK    7  A    between atoms: C_20  and  C_21
REMARK                            x       y       z     vdW  Elec       q    Type
REMARK                         _______ _______ _______ _____ _____    ______ ____
ROOT
ATOM      1  C   UNL     1       2.718   6.703  18.578  0.00  0.00    +0.000 A 
ATOM      2  C   UNL     1       2.364   5.996  19.724  0.00  0.00    +0.000 A 
ATOM      3  C   UNL     1       1.613   6.625  20.713  0.00  0.00    +0.000 A 
ATOM      4  C   UNL     1       1.243   7.968  20.571  0.00  0.00    +0.000 A 
ATOM      5  C   UNL     1       1.595   8.696  19.427  0.00  0.00    +0.000 A 
ATOM      6  C   UNL     1       2.297   8.023  18.413  0.00  0.00    +0.000 A 
ENDROOT
BRANCH   5   7
ATOM      7  N   UNL     1       1.366  10.081  19.375  0.00  0.00    +0.000 N 
ATOM      8  C   UNL     1       0.275  10.768  18.837  0.00  0.00    +0.000 A 
ATOM      9  N   UNL     1       0.285  12.104  18.903  0.00  0.00    +0.000 NA
ATOM     10  C   UNL     1      -0.776  12.748  18.371  0.00  0.00    +0.000 A 
ATOM     11  C   UNL     1      -1.836  12.117  17.764  0.00  0.00    +0.000 A 
ATOM     12  C   UNL     1      -1.768  10.743  17.719  0.00  0.00    +0.000 A 
ATOM     13  N   UNL     1      -0.711  10.085  18.248  0.00  0.00    +0.000 NA
ATOM     14  H   UNL     1       2.122  10.708  19.600  0.00  0.00    +0.000 HD
BRANCH  12  15
ATOM     15  C   UNL     1      -2.868   9.909  17.093  0.00  0.00    +0.000 C 
ATOM     16  F   UNL     1      -3.438   9.026  17.962  0.00  0.00    +0.000 F 
ATOM     17  F   UNL     1      -3.899  10.664  16.610  0.00  0.00    +0.000 F 
ATOM     18  F   UNL     1      -2.431   9.159  16.040  0.00  0.00    +0.000 F 
ENDBRANCH  12  15
ENDBRANCH   5   7
BRANCH   1  19
ATOM     19  C   UNL     1       3.691   6.081  17.646  0.00  0.00    +0.000 C 
ATOM     20  O   UNL     1       4.262   6.693  16.762  0.00  0.00    +0.000 OA
BRANCH  19  21
ATOM     21  O   UNL     1       3.646   4.732  17.789  0.00  0.00    +0.000 OA
BRANCH  21  22
ATOM     22  C   UNL     1       4.912   4.128  18.075  0.00  0.00    +0.000 C 
BRANCH  22  23
ATOM     23  C   UNL     1       5.784   4.981  18.987  0.00  0.00    +0.000 C 
BRANCH  23  27
ATOM     24  O   UNL     1       7.682   8.358  17.254  0.00  0.00    +0.000 OA
ATOM     25  C   UNL     1       7.579   7.161  17.446  0.00  0.00    +0.000 C 
ATOM     26  C   UNL     1       7.898   6.426  18.723  0.00  0.00    +0.000 C 
ATOM     27  C   UNL     1       7.244   5.053  18.505  0.00  0.00    +0.000 C 
ATOM     28  C   UNL     1       7.314   4.887  16.987  0.00  0.00    +0.000 C 
ATOM     29  N   UNL     1       7.201   6.229  16.504  0.00  0.00    +0.000 N 
ATOM     30  H   UNL     1       7.034   6.503  15.544  0.00  0.00    +0.000 HD
ENDBRANCH  23  27
ENDBRANCH  22  23
ENDBRANCH  21  22
ENDBRANCH  19  21
ENDBRANCH   1  19
TORSDOF 7
ENDMDL
MODEL 2
REMARK VINA RESULT:      -8.0      2.103      3.456
REMARK  Name = 
REMARK  7 active torsions:
REMARK  status: ('A' for Active; 'I' for Inactive)
REMARK    1  A    between atoms: C_4  and  C_5
REMARK    2  A    between atoms: C_5  and  C_6
REMARK    3  A    between atoms: C_6  and  O_7
REMARK    4  A    between atoms: O_7  and  C_8
REMARK    5  A    between atoms: C_8  and  C_10
REMARK    6  A    between atoms: C_14  and  N_15
REMARK    7  A    between atoms: C_20  and  C_21
REMARK                            x       y       z     vdW  Elec       q    Type
REMARK                         _______ _______ _______ _____ _____    ______ ____
ROOT
ATOM      1  C   UNL     1       2.833   6.846  18.693  0.00  0.00    +0.000 A 
ATOM      2  C   UNL     1       2.423   6.113  19.804  0.00  0.00    +0.000 A 
ATOM      3  C   UNL     1       1.590   6.707  20.748  0.00  0.00    +0.000 A 
ATOM      4  C   UNL     1       1.193   8.041  20.599  0.00  0.00    +0.000 A 
ATOM      5  C   UNL     1       1.600   8.795  19.490  0.00  0.00    +0.000 A 
ATOM      6  C   UNL     1       2.387   8.157  18.518  0.00  0.00    +0.000 A 
ENDROOT
BRANCH   5   7
ATOM      7  N   UNL     1       1.337  10.174  19.441  0.00  0.00    +0.000 N 
ATOM      8  C   UNL     1       0.235  10.835  18.894  0.00  0.00    +0.000 A 
ATOM      9  N   UNL     1       0.209  12.171  18.966  0.00  0.00    +0.000 NA
ATOM     10  C   UNL     1      -0.862  12.790  18.425  0.00  0.00    +0.000 A 
ATOM     11  C   UNL     1      -1.899  12.134  17.804  0.00  0.00    +0.000 A 
ATOM     12  C   UNL     1      -1.795  10.762  17.754  0.00  0.00    +0.000 A 
ATOM     13  N   UNL     1      -0.728  10.130  18.292  0.00  0.00    +0.000 NA
ATOM     14  H   UNL     1       2.074  10.819  19.677  0.00  0.00    +0.000 HD
BRANCH  12  15
ATOM     15  C   UNL     1      -2.867   9.903  17.113  0.00  0.00    +0.000 C 
ATOM     16  F   UNL     1      -3.390   8.971  17.959  0.00  0.00    +0.000 F 
ATOM     17  F   UNL     1      -3.934  10.629  16.665  0.00  0.00    +0.000 F 
ATOM     18  F   UNL     1      -2.411   9.206  16.033  0.00  0.00    +0.000 F 
ENDBRANCH  12  15
ENDBRANCH   5   7
BRANCH   1  19
ATOM     19  C   UNL     1       3.883   6.265  17.821  0.00  0.00    +0.000 C 
ATOM     20  O   UNL     1       4.252   6.775  16.779  0.00  0.00    +0.000 OA
BRANCH  19  21
ATOM     21  O   UNL     1       4.167   5.006  18.243  0.00  0.00    +0.000 OA
BRANCH  21  22
ATOM     22  C   UNL     1       3.981   3.996  17.246  0.00  0.00    +0.000 C 
BRANCH  22  23
ATOM     23  C   UNL     1       2.539   3.515  17.150  0.00  0.00    +0.000 C 
BRANCH  23  27
ATOM     24  O   UNL     1       1.113   3.027  21.117  0.00  0.00    +0.000 OA
ATOM     25  C   UNL     1       1.718   2.640  20.135  0.00  0.00    +0.000 C 
ATOM     26  C   UNL     1       1.114   2.185  18.831  0.00  0.00    +0.000 C 
ATOM     27  C   UNL     1       2.317   2.176  17.876  0.00  0.00    +0.000 C 
ATOM     28  C   UNL     1       3.486   1.877  18.814  0.00  0.00    +0.000 C 
ATOM     29  N   UNL     1       3.085   2.488  20.044  0.00  0.00    +0.000 N 
ATOM     30  H   UNL     1       3.676   2.648  20.849  0.00  0.00    +0.000 HD
ENDBRANCH  23  27
ENDBRANCH  22  23
ENDBRANCH  21  22
ENDBRANCH  19  21
ENDBRANCH   1  19
TORSDOF 7
ENDMDL
MODEL 3
REMARK VINA RESULT:      -7.9      1.625      2.244
REMARK  Name = 
REMARK  7 active torsions:
REMARK  status: ('A' for Active; 'I' for Inactive)
REMARK    1  A    between atoms: C_4  and  C_5
REMARK    2  A    between atoms: C_5  and  C_6
REMARK    3  A    between atoms: C_6  and  O_7
REMARK    4  A    between atoms: O_7  and  C_8
REMARK    5  A    between atoms: C_8  and  C_10
REMARK    6  A    between atoms: C_14  and  N_15
REMARK    7  A    between atoms: C_20  and  C_21
REMARK                            x       y       z     vdW  Elec       q    Type
REMARK                         _______ _______ _______ _____ _____    ______ ____
ROOT
ATOM      1  C   UNL     1       2.343   7.018  19.485  0.00  0.00    +0.000 A 
ATOM      2  C   UNL     1       2.737   7.230  18.167  0.00  0.00    +0.000 A 
ATOM      3  C   UNL     1       2.458   8.449  17.554  0.00  0.00    +0.000 A 
ATOM      4  C   UNL     1       1.757   9.442  18.249  0.00  0.00    +0.000 A 
ATOM      5  C   UNL     1       1.347   9.244  19.574  0.00  0.00    +0.000 A 
ATOM      6  C   UNL     1       1.697   8.033  20.192  0.00  0.00    +0.000 A 
ENDROOT
BRANCH   5   7
ATOM      7  N   UNL     1       0.502  10.176  20.197  0.00  0.00    +0.000 N 
ATOM      8  C   UNL     1      -0.686  10.736  19.720  0.00  0.00    +0.000 A 
ATOM      9  N   UNL     1      -1.319  11.616  20.504  0.00  0.00    +0.000 NA
ATOM     10  C   UNL     1      -2.462  12.149  20.021  0.00  0.00    +0.000 A 
ATOM     11  C   UNL     1      -2.990  11.853  18.786  0.00  0.00    +0.000 A 
ATOM     12  C   UNL     1      -2.274  10.952  18.031  0.00  0.00    +0.000 A 
ATOM     13  N   UNL     1      -1.128  10.410  18.502  0.00  0.00    +0.000 NA
ATOM     14  H   UNL     1       0.827  10.650  21.025  0.00  0.00    +0.000 HD
BRANCH  12  15
ATOM     15  C   UNL     1      -2.738  10.518  16.654  0.00  0.00    +0.000 C 
ATOM     16  F   UNL     1      -2.195   9.335  16.249  0.00  0.00    +0.000 F 
ATOM     17  F   UNL     1      -4.090  10.346  16.577  0.00  0.00    +0.000 F 
ATOM     18  F   UNL     1      -2.422  11.420  15.680  0.00  0.00    +0.000 F 
ENDBRANCH  12  15
ENDBRANCH   5   7
BRANCH   1  19
ATOM     19  C   UNL     1       2.463   5.646  20.038  0.00  0.00    +0.000 C 
ATOM     20  O   UNL     1       1.655   5.157  20.806  0.00  0.00    +0.000 OA
BRANCH  19  21
ATOM     21  O   UNL     1       3.693   5.153  19.745  0.00  0.00    +0.000 OA
BRANCH  21  22
ATOM     22  C   UNL     1       3.675   3.968  18.941  0.00  0.00    +0.000 C 
BRANCH  22  23
ATOM     23  C   UNL     1       4.767   3.955  17.880  0.00  0.00    +0.000 C 
BRANCH  23  27
ATOM     24  O   UNL     1       7.379   5.262  14.801  0.00  0.00    +0.000 OA
ATOM     25  C   UNL     1       7.005   5.240  15.959  0.00  0.00    +0.000 C 
ATOM     26  C   UNL     1       5.766   5.894  16.514  0.00  0.00    +0.000 C 
ATOM     27  C   UNL     1       5.617   5.238  17.895  0.00  0.00    +0.000 C 
ATOM     28  C   UNL     1       7.063   4.917  18.270  0.00  0.00    +0.000 C 
ATOM     29  N   UNL     1       7.680   4.652  17.007  0.00  0.00    +0.000 N 
ATOM     30  H   UNL     1       8.591   4.237  16.866  0.00  0.00    +0.000 HD
ENDBRANCH  23  27
ENDBRANCH  22  23
ENDBRANCH  21  22
ENDBRANCH  19  21
ENDBRANCH   1  19
TORSDOF 7
ENDMDL
MODEL 4
REMARK VINA RESULT:      -7.9      4.404      8.685
REMARK  Name = 
REMARK  7 active torsions:
REMARK  status: ('A' for Active; 'I' for Inactive)
REMARK    1  A    between atoms: C_4  and  C_5
REMARK    2  A    between atoms: C_5  and  C_6
REMARK    3  A    between atoms: C_6  and  O_7
REMARK    4  A    between atoms: O_7  and  C_8
REMARK    5  A    between atoms: C_8  and  C_10
REMARK    6  A    between atoms: C_14  and  N_15
REMARK    7  A    between atoms: C_20  and  C_21
REMARK                            x       y       z     vdW  Elec       q    Type
REMARK                         _______ _______ _______ _____ _____    ______ ____
ROOT
ATOM      1  C   UNL     1       0.952   9.788  19.803  0.00  0.00    +0.000 A 
ATOM      2  C   UNL     1       1.301  10.282  18.549  0.00  0.00    +0.000 A 
ATOM      3  C   UNL     1       2.043   9.485  17.680  0.00  0.00    +0.000 A 
ATOM      4  C   UNL     1       2.461   8.209  18.077  0.00  0.00    +0.000 A 
ATOM      5  C   UNL     1       2.123   7.698  19.337  0.00  0.00    +0.000 A 
ATOM      6  C   UNL     1       1.321   8.493  20.171  0.00  0.00    +0.000 A 
ENDROOT
BRANCH   5   7
ATOM      7  N   UNL     1       2.690   6.494  19.782  0.00  0.00    +0.000 N 
ATOM      8  C   UNL     1       3.617   5.671  19.138  0.00  0.00    +0.000 A 
ATOM      9  N   UNL     1       4.010   4.559  19.770  0.00  0.00    +0.000 NA
ATOM     10  C   UNL     1       4.902   3.776  19.126  0.00  0.00    +0.000 A 
ATOM     11  C   UNL     1       5.405   4.047  17.876  0.00  0.00    +0.000 A 
ATOM     12  C   UNL     1       4.942   5.199  17.282  0.00  0.00    +0.000 A 
ATOM     13  N   UNL     1       4.049   5.993  17.916  0.00  0.00    +0.000 NA
ATOM     14  H   UNL     1       2.297   6.042  20.594  0.00  0.00    +0.000 HD
BRANCH  12  15
ATOM     15  C   UNL     1       5.416   5.636  15.909  0.00  0.00    +0.000 C 
ATOM     16  F   UNL     1       4.886   6.827  15.509  0.00  0.00    +0.000 F 
ATOM     17  F   UNL     1       6.770   5.796  15.839  0.00  0.00    +0.000 F 
ATOM     18  F   UNL     1       5.095   4.743  14.929  0.00  0.00    +0.000 F 
ENDBRANCH  12  15
ENDBRANCH   5   7
BRANCH   1  19
ATOM     19  C   UNL     1       0.352  10.727  20.782  0.00  0.00    +0.000 C 
ATOM     20  O   UNL     1       0.930  11.122  21.778  0.00  0.00    +0.000 OA
BRANCH  19  21
ATOM     21  O   UNL     1      -0.972  10.865  20.514  0.00  0.00    +0.000 OA
BRANCH  21  22
ATOM     22  C   UNL     1      -1.333  12.144  19.980  0.00  0.00    +0.000 C 
BRANCH  22  23
ATOM     23  C   UNL     1      -1.734  12.082  18.512  0.00  0.00    +0.000 C 
BRANCH  23  27
ATOM     24  O   UNL     1      -2.584  10.476  14.677  0.00  0.00    +0.000 OA
ATOM     25  C   UNL     1      -2.858  10.676  15.845  0.00  0.00    +0.000 C 
ATOM     26  C   UNL     1      -2.214  10.024  17.042  0.00  0.00    +0.000 C 
ATOM     27  C   UNL     1      -2.680  10.906  18.210  0.00  0.00    +0.000 C 
ATOM     28  C   UNL     1      -4.033  11.422  17.720  0.00  0.00    +0.000 C 
ATOM     29  N   UNL     1      -3.859  11.506  16.303  0.00  0.00    +0.000 N 
ATOM     30  H   UNL     1      -4.481  11.970  15.653  0.00  0.00    +0.000 HD
ENDBRANCH  23  27
ENDBRANCH  22  23
ENDBRANCH  21  22
ENDBRANCH  19  21
ENDBRANCH   1  19
TORSDOF 7
ENDMDL
MODEL 5
REMARK VINA RESULT:      -7.7      3.520      4.944
REMARK  Name = 
REMARK  7 active torsions:
REMARK  status: ('A' for Active; 'I' for Inactive)
REMARK    1  A    between atoms: C_4  and  C_5
REMARK    2  A    between atoms: C_5  and  C_6
REMARK    3  A    between atoms: C_6  and  O_7
REMARK    4  A    between atoms: O_7  and  C_8
REMARK    5  A    between atoms: C_8  and  C_10
REMARK    6  A    between atoms: C_14  and  N_15
REMARK    7  A    between atoms: C_20  and  C_21
REMARK                            x       y       z     vdW  Elec       q    Type
REMARK                         _______ _______ _______ _____ _____    ______ ____
ROOT
ATOM      1  C   UNL     1       3.224   6.600  18.787  0.00  0.00    +0.000 A 
ATOM      2  C   UNL     1       3.113   7.456  17.695  0.00  0.00    +0.000 A 
ATOM      3  C   UNL     1       2.303   8.585  17.787  0.00  0.00    +0.000 A 
ATOM      4  C   UNL     1       1.580   8.840  18.959  0.00  0.00    +0.000 A 
ATOM      5  C   UNL     1       1.675   7.986  20.066  0.00  0.00    +0.000 A 
ATOM      6  C   UNL     1       2.547   6.890  19.973  0.00  0.00    +0.000 A 
ENDROOT
BRANCH   5   7
ATOM      7  N   UNL     1       0.819   8.160  21.165  0.00  0.00    +0.000 N 
ATOM      8  C   UNL     1       0.254   9.340  21.656  0.00  0.00    +0.000 A 
ATOM      9  N   UNL     1      -0.537   9.252  22.732  0.00  0.00    +0.000 NA
ATOM     10  C   UNL     1      -1.067  10.405  23.194  0.00  0.00    +0.000 A 
ATOM     11  C   UNL     1      -0.829  11.640  22.638  0.00  0.00    +0.000 A 
ATOM     12  C   UNL     1       0.007  11.653  21.544  0.00  0.00    +0.000 A 
ATOM     13  N   UNL     1       0.544  10.505  21.071  0.00  0.00    +0.000 NA
ATOM     14  H   UNL     1       0.688   7.394  21.806  0.00  0.00    +0.000 HD
BRANCH  12  15
ATOM     15  C   UNL     1       0.351  12.938  20.818  0.00  0.00    +0.000 C 
ATOM     16  F   UNL     1      -0.705  13.794  20.705  0.00  0.00    +0.000 F 
ATOM     17  F   UNL     1       1.337  13.653  21.437  0.00  0.00    +0.000 F 
ATOM     18  F   UNL     1       0.790  12.726  19.543  0.00  0.00    +0.000 F 
ENDBRANCH  12  15
ENDBRANCH   5   7
BRANCH   1  19
ATOM     19  C   UNL     1       3.917   5.303  18.591  0.00  0.00    +0.000 C 
ATOM     20  O   UNL     1       4.708   4.835  19.389  0.00  0.00    +0.000 OA
BRANCH  19  21
ATOM     21  O   UNL     1       3.710   4.875  17.319  0.00  0.00    +0.000 OA
BRANCH  21  22
ATOM     22  C   UNL     1       2.834   3.748  17.213  0.00  0.00    +0.000 C 
BRANCH  22  23
ATOM     23  C   UNL     1       1.519   3.946  17.957  0.00  0.00    +0.000 C 
BRANCH  23  27
ATOM     24  O   UNL     1       2.207   3.556  22.126  0.00  0.00    +0.000 OA
ATOM     25  C   UNL     1       2.013   3.091  21.019  0.00  0.00    +0.000 C 
ATOM     26  C   UNL     1       0.715   3.107  20.254  0.00  0.00    +0.000 C 
ATOM     27  C   UNL     1       1.148   2.733  18.828  0.00  0.00    +0.000 C 
ATOM     28  C   UNL     1       2.375   1.855  19.071  0.00  0.00    +0.000 C 
ATOM     29  N   UNL     1       2.941   2.404  20.265  0.00  0.00    +0.000 N 
ATOM     30  H   UNL     1       3.857   2.195  20.640  0.00  0.00    +0.000 HD
ENDBRANCH  23  27
ENDBRANCH  22  23
ENDBRANCH  21  22
ENDBRANCH  19  21
ENDBRANCH   1  19
TORSDOF 7
ENDMDL
MODEL 6
REMARK VINA RESULT:      -7.7      4.872      8.926
REMARK  Name = 
REMARK  7 active torsions:
REMARK  status: ('A' for Active; 'I' for Inactive)
REMARK    1  A    between atoms: C_4  and  C_5
REMARK    2  A    between atoms: C_5  and  C_6
REMARK    3  A    between atoms: C_6  and  O_7
REMARK    4  A    between atoms: O_7  and  C_8
REMARK    5  A    between atoms: C_8  and  C_10
REMARK    6  A    between atoms: C_14  and  N_15
REMARK    7  A    between atoms: C_20  and  C_21
REMARK                            x       y       z     vdW  Elec       q    Type
REMARK                         _______ _______ _______ _____ _____    ______ ____
ROOT
ATOM      1  C   UNL     1       1.075   8.996  20.463  0.00  0.00    +0.000 A 
ATOM      2  C   UNL     1       0.495   9.901  19.578  0.00  0.00    +0.000 A 
ATOM      3  C   UNL     1       0.769   9.800  18.216  0.00  0.00    +0.000 A 
ATOM      4  C   UNL     1       1.646   8.816  17.745  0.00  0.00    +0.000 A 
ATOM      5  C   UNL     1       2.243   7.901  18.621  0.00  0.00    +0.000 A 
ATOM      6  C   UNL     1       1.902   7.980  19.981  0.00  0.00    +0.000 A 
ENDROOT
BRANCH   5   7
ATOM      7  N   UNL     1       3.246   7.034  18.158  0.00  0.00    +0.000 N 
ATOM      8  C   UNL     1       3.289   5.639  18.209  0.00  0.00    +0.000 A 
ATOM      9  N   UNL     1       4.365   5.028  17.701  0.00  0.00    +0.000 NA
ATOM     10  C   UNL     1       4.389   3.680  17.766  0.00  0.00    +0.000 A 
ATOM     11  C   UNL     1       3.393   2.917  18.330  0.00  0.00    +0.000 A 
ATOM     12  C   UNL     1       2.326   3.617  18.847  0.00  0.00    +0.000 A 
ATOM     13  N   UNL     1       2.289   4.967  18.788  0.00  0.00    +0.000 NA
ATOM     14  H   UNL     1       4.136   7.421  17.888  0.00  0.00    +0.000 HD
BRANCH  12  15
ATOM     15  C   UNL     1       1.147   2.912  19.489  0.00  0.00    +0.000 C 
ATOM     16  F   UNL     1       0.346   2.271  18.590  0.00  0.00    +0.000 F 
ATOM     17  F   UNL     1       1.523   1.957  20.390  0.00  0.00    +0.000 F 
ATOM     18  F   UNL     1       0.326   3.764  20.170  0.00  0.00    +0.000 F 
ENDBRANCH  12  15
ENDBRANCH   5   7
BRANCH   1  19
ATOM     19  C   UNL     1       0.938   9.255  21.917  0.00  0.00    +0.000 C 
ATOM     20  O   UNL     1       1.885   9.351  22.676  0.00  0.00    +0.000 OA
BRANCH  19  21
ATOM     21  O   UNL     1      -0.366   9.127  22.272  0.00  0.00    +0.000 OA
BRANCH  21  22
ATOM     22  C   UNL     1      -0.833  10.139  23.172  0.00  0.00    +0.000 C 
BRANCH  22  23
ATOM     23  C   UNL     1      -1.113  11.466  22.479  0.00  0.00    +0.000 C 
BRANCH  23  27
ATOM     24  O   UNL     1      -3.766  14.338  20.830  0.00  0.00    +0.000 OA
ATOM     25  C   UNL     1      -3.115  13.875  21.748  0.00  0.00    +0.000 C 
ATOM     26  C   UNL     1      -3.417  12.612  22.514  0.00  0.00    +0.000 C 
ATOM     27  C   UNL     1      -2.105  12.341  23.265  0.00  0.00    +0.000 C 
ATOM     28  C   UNL     1      -1.536  13.746  23.463  0.00  0.00    +0.000 C 
ATOM     29  N   UNL     1      -1.995  14.452  22.306  0.00  0.00    +0.000 N 
ATOM     30  H   UNL     1      -1.677  15.362  22.000  0.00  0.00    +0.000 HD
ENDBRANCH  23  27
ENDBRANCH  22  23
ENDBRANCH  21  22
ENDBRANCH  19  21
ENDBRANCH   1  19
TORSDOF 7
ENDMDL
MODEL 7
REMARK VINA RESULT:      -7.7      0.790      1.301
REMARK  Name = 
REMARK  7 active torsions:
REMARK  status: ('A' for Active; 'I' for Inactive)
REMARK    1  A    between atoms: C_4  and  C_5
REMARK    2  A    between atoms: C_5  and  C_6
REMARK    3  A    between atoms: C_6  and  O_7
REMARK    4  A    between atoms: O_7  and  C_8
REMARK    5  A    between atoms: C_8  and  C_10
REMARK    6  A    between atoms: C_14  and  N_15
REMARK    7  A    between atoms: C_20  and  C_21
REMARK                            x       y       z     vdW  Elec       q    Type
REMARK                         _______ _______ _______ _____ _____    ______ ____
ROOT
ATOM      1  C   UNL     1       2.611   6.830  18.698  0.00  0.00    +0.000 A 
ATOM      2  C   UNL     1       2.331   6.063  19.826  0.00  0.00    +0.000 A 
ATOM      3  C   UNL     1       1.613   6.626  20.878  0.00  0.00    +0.000 A 
ATOM      4  C   UNL     1       1.203   7.963  20.815  0.00  0.00    +0.000 A 
ATOM      5  C   UNL     1       1.481   8.752  19.691  0.00  0.00    +0.000 A 
ATOM      6  C   UNL     1       2.149   8.145  18.615  0.00  0.00    +0.000 A 
ENDROOT
BRANCH   5   7
ATOM      7  N   UNL     1       1.215  10.130  19.714  0.00  0.00    +0.000 N 
ATOM      8  C   UNL     1       0.136  10.823  19.161  0.00  0.00    +0.000 A 
ATOM      9  N   UNL     1       0.103  12.152  19.313  0.00  0.00    +0.000 NA
ATOM     10  C   UNL     1      -0.946  12.802  18.764  0.00  0.00    +0.000 A 
ATOM     11  C   UNL     1      -1.953  12.185  18.060  0.00  0.00    +0.000 A 
ATOM     12  C   UNL     1      -1.842  10.819  17.932  0.00  0.00    +0.000 A 
ATOM     13  N   UNL     1      -0.797  10.155  18.476  0.00  0.00    +0.000 NA
ATOM     14  H   UNL     1       1.940  10.760  20.021  0.00  0.00    +0.000 HD
BRANCH  12  15
ATOM     15  C   UNL     1      -2.883  10.000  17.193  0.00  0.00    +0.000 C 
ATOM     16  F   UNL     1      -3.945  10.739  16.763  0.00  0.00    +0.000 F 
ATOM     17  F   UNL     1      -2.386   9.389  16.077  0.00  0.00    +0.000 F 
ATOM     18  F   UNL     1      -3.414   9.003  17.958  0.00  0.00    +0.000 F 
ENDBRANCH  12  15
ENDBRANCH   5   7
BRANCH   1  19
ATOM     19  C   UNL     1       3.553   6.278  17.693  0.00  0.00    +0.000 C 
ATOM     20  O   UNL     1       4.317   6.963  17.039  0.00  0.00    +0.000 OA
BRANCH  19  21
ATOM     21  O   UNL     1       3.252   4.973  17.471  0.00  0.00    +0.000 OA
BRANCH  21  22
ATOM     22  C   UNL     1       4.392   4.108  17.417  0.00  0.00    +0.000 C 
BRANCH  22  23
ATOM     23  C   UNL     1       5.066   4.098  16.052  0.00  0.00    +0.000 C 
BRANCH  23  27
ATOM     24  O   UNL     1       7.537   6.733  18.279  0.00  0.00    +0.000 OA
ATOM     25  C   UNL     1       7.349   5.934  17.381  0.00  0.00    +0.000 C 
ATOM     26  C   UNL     1       7.144   4.448  17.530  0.00  0.00    +0.000 C 
ATOM     27  C   UNL     1       6.601   4.033  16.155  0.00  0.00    +0.000 C 
ATOM     28  C   UNL     1       7.242   5.057  15.219  0.00  0.00    +0.000 C 
ATOM     29  N   UNL     1       7.344   6.229  16.034  0.00  0.00    +0.000 N 
ATOM     30  H   UNL     1       7.561   7.162  15.710  0.00  0.00    +0.000 HD
ENDBRANCH  23  27
ENDBRANCH  22  23
ENDBRANCH  21  22
ENDBRANCH  19  21
ENDBRANCH   1  19
TORSDOF 7
ENDMDL
MODEL 8
REMARK VINA RESULT:      -7.7      5.145      9.263
REMARK  Name = 
REMARK  7 active torsions:
REMARK  status: ('A' for Active; 'I' for Inactive)
REMARK    1  A    between atoms: C_4  and  C_5
REMARK    2  A    between atoms: C_5  and  C_6
REMARK    3  A    between atoms: C_6  and  O_7
REMARK    4  A    between atoms: O_7  and  C_8
REMARK    5  A    between atoms: C_8  and  C_10
REMARK    6  A    between atoms: C_14  and  N_15
REMARK    7  A    between atoms: C_20  and  C_21
REMARK                            x       y       z     vdW  Elec       q    Type
REMARK                         _______ _______ _______ _____ _____    ______ ____
ROOT
ATOM      1  C   UNL     1       0.963   9.150  20.409  0.00  0.00    +0.000 A 
ATOM      2  C   UNL     1       0.391   9.989  19.457  0.00  0.00    +0.000 A 
ATOM      3  C   UNL     1       0.701   9.811  18.111  0.00  0.00    +0.000 A 
ATOM      4  C   UNL     1       1.605   8.816  17.722  0.00  0.00    +0.000 A 
ATOM      5  C   UNL     1       2.195   7.966  18.666  0.00  0.00    +0.000 A 
ATOM      6  C   UNL     1       1.818   8.121  20.010  0.00  0.00    +0.000 A 
ENDROOT
BRANCH   5   7
ATOM      7  N   UNL     1       3.223   7.090  18.282  0.00  0.00    +0.000 N 
ATOM      8  C   UNL     1       3.278   5.700  18.398  0.00  0.00    +0.000 A 
ATOM      9  N   UNL     1       4.379   5.080  17.958  0.00  0.00    +0.000 NA
ATOM     10  C   UNL     1       4.413   3.735  18.086  0.00  0.00    +0.000 A 
ATOM     11  C   UNL     1       3.404   2.988  18.647  0.00  0.00    +0.000 A 
ATOM     12  C   UNL     1       2.311   3.698  19.091  0.00  0.00    +0.000 A 
ATOM     13  N   UNL     1       2.263   5.044  18.969  0.00  0.00    +0.000 NA
ATOM     14  H   UNL     1       4.119   7.475  18.027  0.00  0.00    +0.000 HD
BRANCH  12  15
ATOM     15  C   UNL     1       1.115   3.009  19.721  0.00  0.00    +0.000 C 
ATOM     16  F   UNL     1       0.190   3.880  20.216  0.00  0.00    +0.000 F 
ATOM     17  F   UNL     1       0.436   2.214  18.843  0.00  0.00    +0.000 F 
ATOM     18  F   UNL     1       1.458   2.203  20.766  0.00  0.00    +0.000 F 
ENDBRANCH  12  15
ENDBRANCH   5   7
BRANCH   1  19
ATOM     19  C   UNL     1       0.785   9.494  21.841  0.00  0.00    +0.000 C 
ATOM     20  O   UNL     1       1.664   9.379  22.676  0.00  0.00    +0.000 OA
BRANCH  19  21
ATOM     21  O   UNL     1      -0.532   9.714  22.087  0.00  0.00    +0.000 OA
BRANCH  21  22
ATOM     22  C   UNL     1      -0.790  10.797  22.986  0.00  0.00    +0.000 C 
BRANCH  22  23
ATOM     23  C   UNL     1      -1.575  11.931  22.340  0.00  0.00    +0.000 C 
BRANCH  23  27
ATOM     24  O   UNL     1      -5.756  12.527  22.760  0.00  0.00    +0.000 OA
ATOM     25  C   UNL     1      -4.598  12.871  22.910  0.00  0.00    +0.000 C 
ATOM     26  C   UNL     1      -3.606  12.286  23.881  0.00  0.00    +0.000 C 
ATOM     27  C   UNL     1      -2.262  12.836  23.378  0.00  0.00    +0.000 C 
ATOM     28  C   UNL     1      -2.663  14.167  22.744  0.00  0.00    +0.000 C 
ATOM     29  N   UNL     1      -3.981  13.913  22.250  0.00  0.00    +0.000 N 
ATOM     30  H   UNL     1      -4.505  14.505  21.618  0.00  0.00    +0.000 HD
ENDBRANCH  23  27
ENDBRANCH  22  23
ENDBRANCH  21  22
ENDBRANCH  19  21
ENDBRANCH   1  19
TORSDOF 7
ENDMDL
MODEL 9
REMARK VINA RESULT:      -7.6      4.344      8.423
REMARK  Name = 
REMARK  7 active torsions:
REMARK  status: ('A' for Active; 'I' for Inactive)
REMARK    1  A    between atoms: C_4  and  C_5
REMARK    2  A    between atoms: C_5  and  C_6
REMARK    3  A    between atoms: C_6  and  O_7
REMARK    4  A    between atoms: O_7  and  C_8
REMARK    5  A    between atoms: C_8  and  C_10
REMARK    6  A    between atoms: C_14  and  N_15
REMARK    7  A    between atoms: C_20  and  C_21
REMARK                            x       y       z     vdW  Elec       q    Type
REMARK                         _______ _______ _______ _____ _____    ______ ____
ROOT
ATOM      1  C   UNL     1       1.025   9.010  20.445  0.00  0.00    +0.000 A 
ATOM      2  C   UNL     1       0.463   9.886  19.520  0.00  0.00    +0.000 A 
ATOM      3  C   UNL     1       0.775   9.751  18.169  0.00  0.00    +0.000 A 
ATOM      4  C   UNL     1       1.672   8.761  17.749  0.00  0.00    +0.000 A 
ATOM      5  C   UNL     1       2.251   7.874  18.667  0.00  0.00    +0.000 A 
ATOM      6  C   UNL     1       1.872   7.988  20.014  0.00  0.00    +0.000 A 
ENDROOT
BRANCH   5   7
ATOM      7  N   UNL     1       3.273   7.004  18.256  0.00  0.00    +0.000 N 
ATOM      8  C   UNL     1       3.317   5.609  18.328  0.00  0.00    +0.000 A 
ATOM      9  N   UNL     1       4.413   4.995  17.870  0.00  0.00    +0.000 NA
ATOM     10  C   UNL     1       4.437   3.647  17.955  0.00  0.00    +0.000 A 
ATOM     11  C   UNL     1       3.421   2.890  18.491  0.00  0.00    +0.000 A 
ATOM     12  C   UNL     1       2.333   3.594  18.957  0.00  0.00    +0.000 A 
ATOM     13  N   UNL     1       2.296   4.944  18.877  0.00  0.00    +0.000 NA
ATOM     14  H   UNL     1       4.173   7.389  18.014  0.00  0.00    +0.000 HD
BRANCH  12  15
ATOM     15  C   UNL     1       1.131   2.896  19.563  0.00  0.00    +0.000 C 
ATOM     16  F   UNL     1       0.355   2.259  18.640  0.00  0.00    +0.000 F 
ATOM     17  F   UNL     1       1.474   1.940  20.474  0.00  0.00    +0.000 F 
ATOM     18  F   UNL     1       0.295   3.753  20.218  0.00  0.00    +0.000 F 
ENDBRANCH  12  15
ENDBRANCH   5   7
BRANCH   1  19
ATOM     19  C   UNL     1       0.845   9.307  21.887  0.00  0.00    +0.000 C 
ATOM     20  O   UNL     1       1.763   9.350  22.685  0.00  0.00    +0.000 OA
BRANCH  19  21
ATOM     21  O   UNL     1      -0.478   9.281  22.187  0.00  0.00    +0.000 OA
BRANCH  21  22
ATOM     22  C   UNL     1      -0.912  10.352  23.032  0.00  0.00    +0.000 C 
BRANCH  22  23
ATOM     23  C   UNL     1      -0.606  11.727  22.451  0.00  0.00    +0.000 C 
BRANCH  23  27
ATOM     24  O   UNL     1      -0.879  13.296  18.517  0.00  0.00    +0.000 OA
ATOM     25  C   UNL     1      -1.237  13.232  19.678  0.00  0.00    +0.000 C 
ATOM     26  C   UNL     1      -2.001  12.102  20.320  0.00  0.00    +0.000 C 
ATOM     27  C   UNL     1      -1.846  12.387  21.821  0.00  0.00    +0.000 C 
ATOM     28  C   UNL     1      -1.718  13.909  21.861  0.00  0.00    +0.000 C 
ATOM     29  N   UNL     1      -1.061  14.216  20.627  0.00  0.00    +0.000 N 
ATOM     30  H   UNL     1      -0.652  15.107  20.376  0.00  0.00    +0.000 HD
ENDBRANCH  23  27
ENDBRANCH  22  23
ENDBRANCH  21  22
ENDBRANCH  19  21
ENDBRANCH   1  19
TORSDOF 7
ENDMDL
