MODEL 1
REMARK VINA RESULT:      -9.2      0.000      0.000
REMARK  Name = 
REMARK  6 active torsions:
REMARK  status: ('A' for Active; 'I' for Inactive)
REMARK    1  A    between atoms: C_8  and  S_9
REMARK    2  A    between atoms: S_9  and  N_12
REMARK    3  A    between atoms: C_17  and  C_18
REMARK    4  A    between atoms: C_18  and  C_19
REMARK    5  A    between atoms: C_19  and  C_20
REMARK    6  A    between atoms: C_20  and  C_21
REMARK                            x       y       z     vdW  Elec       q    Type
REMARK                         _______ _______ _______ _____ _____    ______ ____
ROOT
ATOM      1  S   UNL     1       3.536   2.744  17.581  0.00  0.00    +0.000 S 
ATOM      2  O   UNL     1       2.526   3.000  16.583  0.00  0.00    +0.000 OA
ATOM      3  O   UNL     1       4.363   1.556  17.571  0.00  0.00    +0.000 OA
ENDROOT
BRANCH   1  11
ATOM      4  O   UNL     1       8.509   8.878  17.710  0.00  0.00    +0.000 OA
ATOM      5  C   UNL     1       7.899   7.824  17.849  0.00  0.00    +0.000 A 
ATOM      6  N   UNL     1       8.058   7.045  18.961  0.00  0.00    +0.000 N 
ATOM      7  C   UNL     1       7.441   5.844  19.195  0.00  0.00    +0.000 A 
ATOM      8  O   UNL     1       7.656   5.168  20.194  0.00  0.00    +0.000 OA
ATOM      9  C   UNL     1       6.466   5.418  18.189  0.00  0.00    +0.000 A 
ATOM     10  C   UNL     1       5.680   4.289  18.374  0.00  0.00    +0.000 A 
ATOM     11  C   UNL     1       4.687   4.052  17.442  0.00  0.00    +0.000 A 
ATOM     12  C   UNL     1       4.570   4.874  16.327  0.00  0.00    +0.000 A 
ATOM     13  N   UNL     1       5.366   5.951  16.111  0.00  0.00    +0.000 NA
ATOM     14  C   UNL     1       6.280   6.215  17.064  0.00  0.00    +0.000 A 
ATOM     15  N   UNL     1       7.028   7.369  16.912  0.00  0.00    +0.000 N 
ATOM     16  H   UNL     1       8.695   7.383  19.666  0.00  0.00    +0.000 HD
ATOM     17  H   UNL     1       6.867   7.929  16.085  0.00  0.00    +0.000 HD
ENDBRANCH   1  11
BRANCH   1  18
ATOM     18  N   UNL     1       2.809   2.903  19.124  0.00  0.00    +0.000 NA
ATOM     19  C   UNL     1       3.702   2.670  20.293  0.00  0.00    +0.000 C 
ATOM     20  C   UNL     1       2.913   2.514  21.594  0.00  0.00    +0.000 C 
ATOM     21  C   UNL     1       1.908   3.638  21.805  0.00  0.00    +0.000 C 
ATOM     22  C   UNL     1       1.000   3.744  20.582  0.00  0.00    +0.000 C 
ATOM     23  C   UNL     1       1.801   4.002  19.287  0.00  0.00    +0.000 C 
BRANCH  23  24
ATOM     24  C   UNL     1       2.392   5.425  19.332  0.00  0.00    +0.000 C 
BRANCH  24  25
ATOM     25  C   UNL     1       2.082   6.348  18.158  0.00  0.00    +0.000 C 
BRANCH  25  26
ATOM     26  C   UNL     1       2.681   7.731  18.387  0.00  0.00    +0.000 C 
BRANCH  26  27
ATOM     27  C   UNL     1       1.659   8.690  18.934  0.00  0.00    +0.000 A 
ATOM     28  C   UNL     1       1.040   9.618  18.089  0.00  0.00    +0.000 A 
ATOM     29  C   UNL     1       0.069  10.485  18.589  0.00  0.00    +0.000 A 
ATOM     30  C   UNL     1      -0.279  10.441  19.938  0.00  0.00    +0.000 A 
ATOM     31  C   UNL     1       0.360   9.547  20.794  0.00  0.00    +0.000 A 
ATOM     32  C   UNL     1       1.332   8.679  20.297  0.00  0.00    +0.000 A 
ENDBRANCH  26  27
ENDBRANCH  25  26
ENDBRANCH  24  25
ENDBRANCH  23  24
ENDBRANCH   1  18
TORSDOF 6
ENDMDL
MODEL 2
REMARK VINA RESULT:      -8.9      0.774      1.088
REMARK  Name = 
REMARK  6 active torsions:
REMARK  status: ('A' for Active; 'I' for Inactive)
REMARK    1  A    between atoms: C_8  and  S_9
REMARK    2  A    between atoms: S_9  and  N_12
REMARK    3  A    between atoms: C_17  and  C_18
REMARK    4  A    between atoms: C_18  and  C_19
REMARK    5  A    between atoms: C_19  and  C_20
REMARK    6  A    between atoms: C_20  and  C_21
REMARK                            x       y       z     vdW  Elec       q    Type
REMARK                         _______ _______ _______ _____ _____    ______ ____
ROOT
ATOM      1  S   UNL     1       3.450   2.977  17.531  0.00  0.00    +0.000 S 
ATOM      2  O   UNL     1       2.433   3.288  16.556  0.00  0.00    +0.000 OA
ATOM      3  O   UNL     1       4.251   1.774  17.469  0.00  0.00    +0.000 OA
ENDROOT
BRANCH   1  11
ATOM      4  O   UNL     1       8.575   8.978  17.822  0.00  0.00    +0.000 OA
ATOM      5  C   UNL     1       7.946   7.931  17.922  0.00  0.00    +0.000 A 
ATOM      6  N   UNL     1       8.136   7.077  18.972  0.00  0.00    +0.000 N 
ATOM      7  C   UNL     1       7.500   5.878  19.157  0.00  0.00    +0.000 A 
ATOM      8  O   UNL     1       7.742   5.133  20.100  0.00  0.00    +0.000 OA
ATOM      9  C   UNL     1       6.470   5.540  18.172  0.00  0.00    +0.000 A 
ATOM     10  C   UNL     1       5.665   4.419  18.321  0.00  0.00    +0.000 A 
ATOM     11  C   UNL     1       4.625   4.265  17.422  0.00  0.00    +0.000 A 
ATOM     12  C   UNL     1       4.480   5.161  16.370  0.00  0.00    +0.000 A 
ATOM     13  N   UNL     1       5.292   6.231  16.186  0.00  0.00    +0.000 NA
ATOM     14  C   UNL     1       6.254   6.413  17.111  0.00  0.00    +0.000 A 
ATOM     15  N   UNL     1       7.023   7.557  16.999  0.00  0.00    +0.000 N 
ATOM     16  H   UNL     1       8.812   7.355  19.667  0.00  0.00    +0.000 HD
ATOM     17  H   UNL     1       6.839   8.173  16.218  0.00  0.00    +0.000 HD
ENDBRANCH   1  11
BRANCH   1  18
ATOM     18  N   UNL     1       2.745   3.096  19.088  0.00  0.00    +0.000 NA
ATOM     19  C   UNL     1       3.610   2.684  20.229  0.00  0.00    +0.000 C 
ATOM     20  C   UNL     1       2.810   2.516  21.521  0.00  0.00    +0.000 C 
ATOM     21  C   UNL     1       1.930   3.719  21.824  0.00  0.00    +0.000 C 
ATOM     22  C   UNL     1       1.036   4.011  20.621  0.00  0.00    +0.000 C 
ATOM     23  C   UNL     1       1.858   4.279  19.341  0.00  0.00    +0.000 C 
BRANCH  23  24
ATOM     24  C   UNL     1       2.596   5.625  19.485  0.00  0.00    +0.000 C 
BRANCH  24  25
ATOM     25  C   UNL     1       2.002   6.649  20.447  0.00  0.00    +0.000 C 
BRANCH  25  26
ATOM     26  C   UNL     1       1.780   7.983  19.744  0.00  0.00    +0.000 C 
BRANCH  26  27
ATOM     27  C   UNL     1       0.994   8.934  20.605  0.00  0.00    +0.000 A 
ATOM     28  C   UNL     1       0.811  10.262  20.204  0.00  0.00    +0.000 A 
ATOM     29  C   UNL     1       0.056  11.136  20.986  0.00  0.00    +0.000 A 
ATOM     30  C   UNL     1      -0.509  10.691  22.181  0.00  0.00    +0.000 A 
ATOM     31  C   UNL     1      -0.299   9.382  22.607  0.00  0.00    +0.000 A 
ATOM     32  C   UNL     1       0.456   8.507  21.827  0.00  0.00    +0.000 A 
ENDBRANCH  26  27
ENDBRANCH  25  26
ENDBRANCH  24  25
ENDBRANCH  23  24
ENDBRANCH   1  18
TORSDOF 6
ENDMDL
MODEL 3
REMARK VINA RESULT:      -8.7      3.698      6.667
REMARK  Name = 
REMARK  6 active torsions:
REMARK  status: ('A' for Active; 'I' for Inactive)
REMARK    1  A    between atoms: C_8  and  S_9
REMARK    2  A    between atoms: S_9  and  N_12
REMARK    3  A    between atoms: C_17  and  C_18
REMARK    4  A    between atoms: C_18  and  C_19
REMARK    5  A    between atoms: C_19  and  C_20
REMARK    6  A    between atoms: C_20  and  C_21
REMARK                            x       y       z     vdW  Elec       q    Type
REMARK                         _______ _______ _______ _____ _____    ______ ____
ROOT
ATOM      1  S   UNL     1       2.932   6.022  18.633  0.00  0.00    +0.000 S 
ATOM      2  O   UNL     1       3.328   5.679  19.978  0.00  0.00    +0.000 OA
ATOM      3  O   UNL     1       1.903   5.303  17.913  0.00  0.00    +0.000 OA
ENDROOT
BRANCH   1  11
ATOM      4  O   UNL     1      -0.590  13.069  19.185  0.00  0.00    +0.000 OA
ATOM      5  C   UNL     1      -0.068  11.971  19.347  0.00  0.00    +0.000 A 
ATOM      6  N   UNL     1      -0.334  11.207  20.448  0.00  0.00    +0.000 N 
ATOM      7  C   UNL     1       0.216   9.983  20.728  0.00  0.00    +0.000 A 
ATOM      8  O   UNL     1      -0.030   9.361  21.755  0.00  0.00    +0.000 OA
ATOM      9  C   UNL     1       1.100   9.429  19.701  0.00  0.00    +0.000 A 
ATOM     10  C   UNL     1       1.614   8.143  19.805  0.00  0.00    +0.000 A 
ATOM     11  C   UNL     1       2.316   7.655  18.718  0.00  0.00    +0.000 A 
ATOM     12  C   UNL     1       2.561   8.476  17.624  0.00  0.00    +0.000 A 
ATOM     13  N   UNL     1       2.106   9.751  17.535  0.00  0.00    +0.000 NA
ATOM     14  C   UNL     1       1.360  10.189  18.566  0.00  0.00    +0.000 A 
ATOM     15  N   UNL     1       0.800  11.449  18.443  0.00  0.00    +0.000 N 
ATOM     16  H   UNL     1      -0.987  11.585  21.117  0.00  0.00    +0.000 HD
ATOM     17  H   UNL     1       1.005  11.975  17.605  0.00  0.00    +0.000 HD
ENDBRANCH   1  11
BRANCH   1  18
ATOM     18  N   UNL     1       4.344   6.088  17.666  0.00  0.00    +0.000 NA
ATOM     19  C   UNL     1       5.612   6.403  18.383  0.00  0.00    +0.000 C 
ATOM     20  C   UNL     1       6.744   6.755  17.416  0.00  0.00    +0.000 C 
ATOM     21  C   UNL     1       6.907   5.724  16.308  0.00  0.00    +0.000 C 
ATOM     22  C   UNL     1       5.571   5.530  15.595  0.00  0.00    +0.000 C 
ATOM     23  C   UNL     1       4.458   5.076  16.564  0.00  0.00    +0.000 C 
BRANCH  23  24
ATOM     24  C   UNL     1       4.748   3.636  17.031  0.00  0.00    +0.000 C 
BRANCH  24  25
ATOM     25  C   UNL     1       3.607   2.628  16.941  0.00  0.00    +0.000 C 
BRANCH  25  26
ATOM     26  C   UNL     1       3.656   1.653  18.112  0.00  0.00    +0.000 C 
BRANCH  26  27
ATOM     27  C   UNL     1       2.813   2.132  19.262  0.00  0.00    +0.000 A 
ATOM     28  C   UNL     1       3.382   2.309  20.529  0.00  0.00    +0.000 A 
ATOM     29  C   UNL     1       2.608   2.783  21.587  0.00  0.00    +0.000 A 
ATOM     30  C   UNL     1       1.258   3.071  21.391  0.00  0.00    +0.000 A 
ATOM     31  C   UNL     1       0.675   2.861  20.144  0.00  0.00    +0.000 A 
ATOM     32  C   UNL     1       1.446   2.386  19.084  0.00  0.00    +0.000 A 
ENDBRANCH  26  27
ENDBRANCH  25  26
ENDBRANCH  24  25
ENDBRANCH  23  24
ENDBRANCH   1  18
TORSDOF 6
ENDMDL
MODEL 4
REMARK VINA RESULT:      -8.3      2.869      6.194
REMARK  Name = 
REMARK  6 active torsions:
REMARK  status: ('A' for Active; 'I' for Inactive)
REMARK    1  A    between atoms: C_8  and  S_9
REMARK    2  A    between atoms: S_9  and  N_12
REMARK    3  A    between atoms: C_17  and  C_18
REMARK    4  A    between atoms: C_18  and  C_19
REMARK    5  A    between atoms: C_19  and  C_20
REMARK    6  A    between atoms: C_20  and  C_21
REMARK                            x       y       z     vdW  Elec       q    Type
REMARK                         _______ _______ _______ _____ _____    ______ ____
ROOT
ATOM      1  S   UNL     1       7.026   6.038  16.919  0.00  0.00    +0.000 S 
ATOM      2  O   UNL     1       7.510   7.377  16.682  0.00  0.00    +0.000 OA
ATOM      3  O   UNL     1       7.790   5.047  17.647  0.00  0.00    +0.000 OA
ENDROOT
BRANCH   1  11
ATOM      4  O   UNL     1       0.604   7.657  21.220  0.00  0.00    +0.000 OA
ATOM      5  C   UNL     1       1.472   7.512  20.367  0.00  0.00    +0.000 A 
ATOM      6  N   UNL     1       1.529   8.308  19.258  0.00  0.00    +0.000 N 
ATOM      7  C   UNL     1       2.443   8.207  18.242  0.00  0.00    +0.000 A 
ATOM      8  O   UNL     1       2.419   8.926  17.250  0.00  0.00    +0.000 OA
ATOM      9  C   UNL     1       3.493   7.203  18.424  0.00  0.00    +0.000 A 
ATOM     10  C   UNL     1       4.552   7.092  17.532  0.00  0.00    +0.000 A 
ATOM     11  C   UNL     1       5.569   6.217  17.866  0.00  0.00    +0.000 A 
ATOM     12  C   UNL     1       5.460   5.428  19.005  0.00  0.00    +0.000 A 
ATOM     13  N   UNL     1       4.405   5.492  19.856  0.00  0.00    +0.000 NA
ATOM     14  C   UNL     1       3.457   6.401  19.560  0.00  0.00    +0.000 A 
ATOM     15  N   UNL     1       2.429   6.555  20.473  0.00  0.00    +0.000 N 
ATOM     16  H   UNL     1       0.827   9.028  19.180  0.00  0.00    +0.000 HD
ATOM     17  H   UNL     1       2.434   5.959  21.291  0.00  0.00    +0.000 HD
ENDBRANCH   1  11
BRANCH   1  18
ATOM     18  N   UNL     1       6.546   5.374  15.415  0.00  0.00    +0.000 NA
ATOM     19  C   UNL     1       7.588   4.602  14.681  0.00  0.00    +0.000 C 
ATOM     20  C   UNL     1       7.183   4.329  13.231  0.00  0.00    +0.000 C 
ATOM     21  C   UNL     1       5.786   3.734  13.118  0.00  0.00    +0.000 C 
ATOM     22  C   UNL     1       4.790   4.637  13.841  0.00  0.00    +0.000 C 
ATOM     23  C   UNL     1       5.153   4.825  15.330  0.00  0.00    +0.000 C 
BRANCH  23  24
ATOM     24  C   UNL     1       4.933   3.495  16.078  0.00  0.00    +0.000 C 
BRANCH  24  25
ATOM     25  C   UNL     1       3.597   3.305  16.790  0.00  0.00    +0.000 C 
BRANCH  25  26
ATOM     26  C   UNL     1       3.707   2.229  17.864  0.00  0.00    +0.000 C 
BRANCH  26  27
ATOM     27  C   UNL     1       2.870   2.567  19.068  0.00  0.00    +0.000 A 
ATOM     28  C   UNL     1       1.582   3.091  18.907  0.00  0.00    +0.000 A 
ATOM     29  C   UNL     1       0.794   3.374  20.022  0.00  0.00    +0.000 A 
ATOM     30  C   UNL     1       1.293   3.149  21.305  0.00  0.00    +0.000 A 
ATOM     31  C   UNL     1       2.588   2.664  21.474  0.00  0.00    +0.000 A 
ATOM     32  C   UNL     1       3.378   2.382  20.361  0.00  0.00    +0.000 A 
ENDBRANCH  26  27
ENDBRANCH  25  26
ENDBRANCH  24  25
ENDBRANCH  23  24
ENDBRANCH   1  18
TORSDOF 6
ENDMDL
MODEL 5
REMARK VINA RESULT:      -8.1      4.250      7.600
REMARK  Name = 
REMARK  6 active torsions:
REMARK  status: ('A' for Active; 'I' for Inactive)
REMARK    1  A    between atoms: C_8  and  S_9
REMARK    2  A    between atoms: S_9  and  N_12
REMARK    3  A    between atoms: C_17  and  C_18
REMARK    4  A    between atoms: C_18  and  C_19
REMARK    5  A    between atoms: C_19  and  C_20
REMARK    6  A    between atoms: C_20  and  C_21
REMARK                            x       y       z     vdW  Elec       q    Type
REMARK                         _______ _______ _______ _____ _____    ______ ____
ROOT
ATOM      1  S   UNL     1       3.255   5.724  18.801  0.00  0.00    +0.000 S 
ATOM      2  O   UNL     1       3.034   5.158  20.110  0.00  0.00    +0.000 OA
ATOM      3  O   UNL     1       2.745   5.117  17.590  0.00  0.00    +0.000 OA
ENDROOT
BRANCH   1  11
ATOM      4  O   UNL     1      -0.846  12.462  19.185  0.00  0.00    +0.000 OA
ATOM      5  C   UNL     1      -0.210  11.430  19.374  0.00  0.00    +0.000 A 
ATOM      6  N   UNL     1      -0.296  10.741  20.550  0.00  0.00    +0.000 N 
ATOM      7  C   UNL     1       0.391   9.597  20.863  0.00  0.00    +0.000 A 
ATOM      8  O   UNL     1       0.304   9.044  21.953  0.00  0.00    +0.000 OA
ATOM      9  C   UNL     1       1.221   9.037  19.795  0.00  0.00    +0.000 A 
ATOM     10  C   UNL     1       1.861   7.814  19.941  0.00  0.00    +0.000 A 
ATOM     11  C   UNL     1       2.499   7.298  18.827  0.00  0.00    +0.000 A 
ATOM     12  C   UNL     1       2.559   8.044  17.655  0.00  0.00    +0.000 A 
ATOM     13  N   UNL     1       1.980   9.262  17.518  0.00  0.00    +0.000 NA
ATOM     14  C   UNL     1       1.298   9.720  18.585  0.00  0.00    +0.000 A 
ATOM     15  N   UNL     1       0.613  10.911  18.427  0.00  0.00    +0.000 N 
ATOM     16  H   UNL     1      -0.915  11.116  21.253  0.00  0.00    +0.000 HD
ATOM     17  H   UNL     1       0.687  11.381  17.535  0.00  0.00    +0.000 HD
ENDBRANCH   1  11
BRANCH   1  18
ATOM     18  N   UNL     1       4.936   5.997  18.620  0.00  0.00    +0.000 NA
ATOM     19  C   UNL     1       5.830   5.135  19.444  0.00  0.00    +0.000 C 
ATOM     20  C   UNL     1       7.268   5.656  19.464  0.00  0.00    +0.000 C 
ATOM     21  C   UNL     1       7.806   5.938  18.068  0.00  0.00    +0.000 C 
ATOM     22  C   UNL     1       6.855   6.883  17.338  0.00  0.00    +0.000 C 
ATOM     23  C   UNL     1       5.427   6.302  17.235  0.00  0.00    +0.000 C 
BRANCH  23  24
ATOM     24  C   UNL     1       5.437   5.100  16.270  0.00  0.00    +0.000 C 
BRANCH  24  25
ATOM     25  C   UNL     1       5.521   5.403  14.777  0.00  0.00    +0.000 C 
BRANCH  25  26
ATOM     26  C   UNL     1       6.653   4.612  14.130  0.00  0.00    +0.000 C 
BRANCH  26  27
ATOM     27  C   UNL     1       6.150   3.758  12.999  0.00  0.00    +0.000 A 
ATOM     28  C   UNL     1       7.019   2.886  12.333  0.00  0.00    +0.000 A 
ATOM     29  C   UNL     1       6.546   2.070  11.306  0.00  0.00    +0.000 A 
ATOM     30  C   UNL     1       5.206   2.132  10.926  0.00  0.00    +0.000 A 
ATOM     31  C   UNL     1       4.343   3.025  11.558  0.00  0.00    +0.000 A 
ATOM     32  C   UNL     1       4.814   3.842  12.585  0.00  0.00    +0.000 A 
ENDBRANCH  26  27
ENDBRANCH  25  26
ENDBRANCH  24  25
ENDBRANCH  23  24
ENDBRANCH   1  18
TORSDOF 6
ENDMDL
MODEL 6
REMARK VINA RESULT:      -8.1      3.054      6.340
REMARK  Name = 
REMARK  6 active torsions:
REMARK  status: ('A' for Active; 'I' for Inactive)
REMARK    1  A    between atoms: C_8  and  S_9
REMARK    2  A    between atoms: S_9  and  N_12
REMARK    3  A    between atoms: C_17  and  C_18
REMARK    4  A    between atoms: C_18  and  C_19
REMARK    5  A    between atoms: C_19  and  C_20
REMARK    6  A    between atoms: C_20  and  C_21
REMARK                            x       y       z     vdW  Elec       q    Type
REMARK                         _______ _______ _______ _____ _____    ______ ____
ROOT
ATOM      1  S   UNL     1       4.398   3.435  18.801  0.00  0.00    +0.000 S 
ATOM      2  O   UNL     1       5.262   3.214  19.936  0.00  0.00    +0.000 OA
ATOM      3  O   UNL     1       3.449   2.446  18.335  0.00  0.00    +0.000 OA
ENDROOT
BRANCH   1  11
ATOM      4  O   UNL     1       0.533  10.100  20.532  0.00  0.00    +0.000 OA
ATOM      5  C   UNL     1       1.109   9.143  20.027  0.00  0.00    +0.000 A 
ATOM      6  N   UNL     1       1.697   9.227  18.797  0.00  0.00    +0.000 N 
ATOM      7  C   UNL     1       2.341   8.209  18.143  0.00  0.00    +0.000 A 
ATOM      8  O   UNL     1       2.815   8.333  17.020  0.00  0.00    +0.000 OA
ATOM      9  C   UNL     1       2.469   6.953  18.884  0.00  0.00    +0.000 A 
ATOM     10  C   UNL     1       3.213   5.891  18.386  0.00  0.00    +0.000 A 
ATOM     11  C   UNL     1       3.399   4.805  19.221  0.00  0.00    +0.000 A 
ATOM     12  C   UNL     1       2.774   4.769  20.463  0.00  0.00    +0.000 A 
ATOM     13  N   UNL     1       2.005   5.779  20.937  0.00  0.00    +0.000 NA
ATOM     14  C   UNL     1       1.893   6.863  20.146  0.00  0.00    +0.000 A 
ATOM     15  N   UNL     1       1.200   7.945  20.660  0.00  0.00    +0.000 N 
ATOM     16  H   UNL     1       1.643  10.118  18.327  0.00  0.00    +0.000 HD
ATOM     17  H   UNL     1       0.795   7.850  21.582  0.00  0.00    +0.000 HD
ENDBRANCH   1  11
BRANCH   1  18
ATOM     18  N   UNL     1       5.373   3.933  17.483  0.00  0.00    +0.000 NA
ATOM     19  C   UNL     1       4.646   4.495  16.310  0.00  0.00    +0.000 C 
ATOM     20  C   UNL     1       5.548   4.608  15.080  0.00  0.00    +0.000 C 
ATOM     21  C   UNL     1       6.861   5.316  15.382  0.00  0.00    +0.000 C 
ATOM     22  C   UNL     1       7.555   4.620  16.550  0.00  0.00    +0.000 C 
ATOM     23  C   UNL     1       6.675   4.600  17.818  0.00  0.00    +0.000 C 
BRANCH  23  24
ATOM     24  C   UNL     1       6.548   6.034  18.370  0.00  0.00    +0.000 C 
BRANCH  24  25
ATOM     25  C   UNL     1       7.791   6.916  18.319  0.00  0.00    +0.000 C 
BRANCH  25  26
ATOM     26  C   UNL     1       7.509   8.199  17.546  0.00  0.00    +0.000 C 
BRANCH  26  27
ATOM     27  C   UNL     1       8.281   9.361  18.110  0.00  0.00    +0.000 A 
ATOM     28  C   UNL     1       8.933   9.243  19.342  0.00  0.00    +0.000 A 
ATOM     29  C   UNL     1       9.674  10.310  19.850  0.00  0.00    +0.000 A 
ATOM     30  C   UNL     1       9.757  11.505  19.137  0.00  0.00    +0.000 A 
ATOM     31  C   UNL     1       9.079  11.644  17.928  0.00  0.00    +0.000 A 
ATOM     32  C   UNL     1       8.336  10.580  17.419  0.00  0.00    +0.000 A 
ENDBRANCH  26  27
ENDBRANCH  25  26
ENDBRANCH  24  25
ENDBRANCH  23  24
ENDBRANCH   1  18
TORSDOF 6
ENDMDL
MODEL 7
REMARK VINA RESULT:      -8.0      4.074      7.532
REMARK  Name = 
REMARK  6 active torsions:
REMARK  status: ('A' for Active; 'I' for Inactive)
REMARK    1  A    between atoms: C_8  and  S_9
REMARK    2  A    between atoms: S_9  and  N_12
REMARK    3  A    between atoms: C_17  and  C_18
REMARK    4  A    between atoms: C_18  and  C_19
REMARK    5  A    between atoms: C_19  and  C_20
REMARK    6  A    between atoms: C_20  and  C_21
REMARK                            x       y       z     vdW  Elec       q    Type
REMARK                         _______ _______ _______ _____ _____    ______ ____
ROOT
ATOM      1  S   UNL     1       3.307   5.248  18.815  0.00  0.00    +0.000 S 
ATOM      2  O   UNL     1       3.273   4.328  19.926  0.00  0.00    +0.000 OA
ATOM      3  O   UNL     1       2.726   4.940  17.525  0.00  0.00    +0.000 OA
ENDROOT
BRANCH   1  11
ATOM      4  O   UNL     1       0.004  12.076  21.013  0.00  0.00    +0.000 OA
ATOM      5  C   UNL     1       0.491  11.107  20.442  0.00  0.00    +0.000 A 
ATOM      6  N   UNL     1       1.038  11.211  19.194  0.00  0.00    +0.000 N 
ATOM      7  C   UNL     1       1.581  10.184  18.468  0.00  0.00    +0.000 A 
ATOM      8  O   UNL     1       2.021  10.330  17.333  0.00  0.00    +0.000 OA
ATOM      9  C   UNL     1       1.644   8.886  19.142  0.00  0.00    +0.000 A 
ATOM     10  C   UNL     1       2.290   7.800  18.565  0.00  0.00    +0.000 A 
ATOM     11  C   UNL     1       2.426   6.663  19.340  0.00  0.00    +0.000 A 
ATOM     12  C   UNL     1       1.847   6.609  20.602  0.00  0.00    +0.000 A 
ATOM     13  N   UNL     1       1.171   7.647  21.155  0.00  0.00    +0.000 NA
ATOM     14  C   UNL     1       1.110   8.774  20.421  0.00  0.00    +0.000 A 
ATOM     15  N   UNL     1       0.517   9.876  21.013  0.00  0.00    +0.000 N 
ATOM     16  H   UNL     1       1.031  12.126  18.770  0.00  0.00    +0.000 HD
ATOM     17  H   UNL     1       0.140   9.763  21.945  0.00  0.00    +0.000 HD
ENDBRANCH   1  11
BRANCH   1  18
ATOM     18  N   UNL     1       4.931   5.745  18.590  0.00  0.00    +0.000 NA
ATOM     19  C   UNL     1       5.957   4.990  19.362  0.00  0.00    +0.000 C 
ATOM     20  C   UNL     1       7.314   5.696  19.352  0.00  0.00    +0.000 C 
ATOM     21  C   UNL     1       7.762   6.078  17.949  0.00  0.00    +0.000 C 
ATOM     22  C   UNL     1       6.671   6.905  17.274  0.00  0.00    +0.000 C 
ATOM     23  C   UNL     1       5.330   6.144  17.199  0.00  0.00    +0.000 C 
BRANCH  23  24
ATOM     24  C   UNL     1       5.464   4.976  16.202  0.00  0.00    +0.000 C 
BRANCH  24  25
ATOM     25  C   UNL     1       5.650   5.331  14.730  0.00  0.00    +0.000 C 
BRANCH  25  26
ATOM     26  C   UNL     1       6.655   4.393  14.072  0.00  0.00    +0.000 C 
BRANCH  26  27
ATOM     27  C   UNL     1       6.034   3.637  12.928  0.00  0.00    +0.000 A 
ATOM     28  C   UNL     1       6.765   2.651  12.256  0.00  0.00    +0.000 A 
ATOM     29  C   UNL     1       6.179   1.929  11.216  0.00  0.00    +0.000 A 
ATOM     30  C   UNL     1       4.866   2.197  10.832  0.00  0.00    +0.000 A 
ATOM     31  C   UNL     1       4.145   3.204  11.471  0.00  0.00    +0.000 A 
ATOM     32  C   UNL     1       4.728   3.928  12.510  0.00  0.00    +0.000 A 
ENDBRANCH  26  27
ENDBRANCH  25  26
ENDBRANCH  24  25
ENDBRANCH  23  24
ENDBRANCH   1  18
TORSDOF 6
ENDMDL
MODEL 8
REMARK VINA RESULT:      -7.9      0.603      1.157
REMARK  Name = 
REMARK  6 active torsions:
REMARK  status: ('A' for Active; 'I' for Inactive)
REMARK    1  A    between atoms: C_8  and  S_9
REMARK    2  A    between atoms: S_9  and  N_12
REMARK    3  A    between atoms: C_17  and  C_18
REMARK    4  A    between atoms: C_18  and  C_19
REMARK    5  A    between atoms: C_19  and  C_20
REMARK    6  A    between atoms: C_20  and  C_21
REMARK                            x       y       z     vdW  Elec       q    Type
REMARK                         _______ _______ _______ _____ _____    ______ ____
ROOT
ATOM      1  S   UNL     1       3.549   2.627  17.485  0.00  0.00    +0.000 S 
ATOM      2  O   UNL     1       2.578   2.840  16.438  0.00  0.00    +0.000 OA
ATOM      3  O   UNL     1       4.407   1.462  17.530  0.00  0.00    +0.000 OA
ENDROOT
BRANCH   1  11
ATOM      4  O   UNL     1       8.389   8.860  17.768  0.00  0.00    +0.000 OA
ATOM      5  C   UNL     1       7.804   7.788  17.877  0.00  0.00    +0.000 A 
ATOM      6  N   UNL     1       7.997   6.973  18.957  0.00  0.00    +0.000 N 
ATOM      7  C   UNL     1       7.409   5.751  19.155  0.00  0.00    +0.000 A 
ATOM      8  O   UNL     1       7.653   5.045  20.127  0.00  0.00    +0.000 OA
ATOM      9  C   UNL     1       6.429   5.341  18.149  0.00  0.00    +0.000 A 
ATOM     10  C   UNL     1       5.670   4.189  18.303  0.00  0.00    +0.000 A 
ATOM     11  C   UNL     1       4.669   3.963  17.377  0.00  0.00    +0.000 A 
ATOM     12  C   UNL     1       4.518   4.823  16.295  0.00  0.00    +0.000 A 
ATOM     13  N   UNL     1       5.288   5.924  16.107  0.00  0.00    +0.000 NA
ATOM     14  C   UNL     1       6.209   6.174  17.056  0.00  0.00    +0.000 A 
ATOM     15  N   UNL     1       6.930   7.349  16.936  0.00  0.00    +0.000 N 
ATOM     16  H   UNL     1       8.637   7.301  19.665  0.00  0.00    +0.000 HD
ATOM     17  H   UNL     1       6.745   7.934  16.132  0.00  0.00    +0.000 HD
ENDBRANCH   1  11
BRANCH   1  18
ATOM     18  N   UNL     1       2.748   2.787  18.990  0.00  0.00    +0.000 NA
ATOM     19  C   UNL     1       3.626   2.982  20.178  0.00  0.00    +0.000 C 
ATOM     20  C   UNL     1       2.864   2.792  21.491  0.00  0.00    +0.000 C 
ATOM     21  C   UNL     1       1.577   3.603  21.540  0.00  0.00    +0.000 C 
ATOM     22  C   UNL     1       0.723   3.277  20.318  0.00  0.00    +0.000 C 
ATOM     23  C   UNL     1       1.467   3.567  18.997  0.00  0.00    +0.000 C 
BRANCH  23  24
ATOM     24  C   UNL     1       1.634   5.091  18.833  0.00  0.00    +0.000 C 
BRANCH  24  25
ATOM     25  C   UNL     1       2.669   5.780  19.715  0.00  0.00    +0.000 C 
BRANCH  25  26
ATOM     26  C   UNL     1       2.009   6.833  20.598  0.00  0.00    +0.000 C 
BRANCH  26  27
ATOM     27  C   UNL     1       1.727   8.096  19.830  0.00  0.00    +0.000 A 
ATOM     28  C   UNL     1       0.952   9.111  20.403  0.00  0.00    +0.000 A 
ATOM     29  C   UNL     1       0.716  10.295  19.703  0.00  0.00    +0.000 A 
ATOM     30  C   UNL     1       1.242  10.466  18.423  0.00  0.00    +0.000 A 
ATOM     31  C   UNL     1       1.982   9.445  17.831  0.00  0.00    +0.000 A 
ATOM     32  C   UNL     1       2.218   8.260  18.528  0.00  0.00    +0.000 A 
ENDBRANCH  26  27
ENDBRANCH  25  26
ENDBRANCH  24  25
ENDBRANCH  23  24
ENDBRANCH   1  18
TORSDOF 6
ENDMDL
MODEL 9
REMARK VINA RESULT:      -7.7      1.559      1.992
REMARK  Name = 
REMARK  6 active torsions:
REMARK  status: ('A' for Active; 'I' for Inactive)
REMARK    1  A    between atoms: C_8  and  S_9
REMARK    2  A    between atoms: S_9  and  N_12
REMARK    3  A    between atoms: C_17  and  C_18
REMARK    4  A    between atoms: C_18  and  C_19
REMARK    5  A    between atoms: C_19  and  C_20
REMARK    6  A    between atoms: C_20  and  C_21
REMARK                            x       y       z     vdW  Elec       q    Type
REMARK                         _______ _______ _______ _____ _____    ______ ____
ROOT
ATOM      1  S   UNL     1       2.147   3.706  17.530  0.00  0.00    +0.000 S 
ATOM      2  O   UNL     1       0.904   4.399  17.287  0.00  0.00    +0.000 OA
ATOM      3  O   UNL     1       2.613   2.620  16.694  0.00  0.00    +0.000 OA
ENDROOT
BRANCH   1  11
ATOM      4  O   UNL     1       8.276   8.682  17.360  0.00  0.00    +0.000 OA
ATOM      5  C   UNL     1       7.469   7.767  17.242  0.00  0.00    +0.000 A 
ATOM      6  N   UNL     1       7.867   6.495  16.941  0.00  0.00    +0.000 N 
ATOM      7  C   UNL     1       7.041   5.416  16.766  0.00  0.00    +0.000 A 
ATOM      8  O   UNL     1       7.453   4.304  16.455  0.00  0.00    +0.000 OA
ATOM      9  C   UNL     1       5.617   5.653  17.010  0.00  0.00    +0.000 A 
ATOM     10  C   UNL     1       4.696   4.614  16.995  0.00  0.00    +0.000 A 
ATOM     11  C   UNL     1       3.402   4.912  17.382  0.00  0.00    +0.000 A 
ATOM     12  C   UNL     1       3.050   6.225  17.675  0.00  0.00    +0.000 A 
ATOM     13  N   UNL     1       3.931   7.255  17.643  0.00  0.00    +0.000 NA
ATOM     14  C   UNL     1       5.204   6.940  17.338  0.00  0.00    +0.000 A 
ATOM     15  N   UNL     1       6.135   7.961  17.406  0.00  0.00    +0.000 N 
ATOM     16  H   UNL     1       8.858   6.343  16.829  0.00  0.00    +0.000 HD
ATOM     17  H   UNL     1       5.804   8.885  17.650  0.00  0.00    +0.000 HD
ENDBRANCH   1  11
BRANCH   1  18
ATOM     18  N   UNL     1       2.158   3.194  19.164  0.00  0.00    +0.000 NA
ATOM     19  C   UNL     1       3.464   2.704  19.685  0.00  0.00    +0.000 C 
ATOM     20  C   UNL     1       3.311   1.978  21.023  0.00  0.00    +0.000 C 
ATOM     21  C   UNL     1       2.512   2.785  22.036  0.00  0.00    +0.000 C 
ATOM     22  C   UNL     1       1.167   3.175  21.428  0.00  0.00    +0.000 C 
ATOM     23  C   UNL     1       1.335   3.995  20.130  0.00  0.00    +0.000 C 
BRANCH  23  24
ATOM     24  C   UNL     1       1.908   5.383  20.477  0.00  0.00    +0.000 C 
BRANCH  24  25
ATOM     25  C   UNL     1       0.911   6.510  20.726  0.00  0.00    +0.000 C 
BRANCH  25  26
ATOM     26  C   UNL     1       1.597   7.868  20.627  0.00  0.00    +0.000 C 
BRANCH  26  27
ATOM     27  C   UNL     1       0.741   8.960  21.211  0.00  0.00    +0.000 A 
ATOM     28  C   UNL     1       0.262   9.992  20.396  0.00  0.00    +0.000 A 
ATOM     29  C   UNL     1      -0.557  10.986  20.930  0.00  0.00    +0.000 A 
ATOM     30  C   UNL     1      -0.890  10.964  22.284  0.00  0.00    +0.000 A 
ATOM     31  C   UNL     1      -0.386   9.962  23.109  0.00  0.00    +0.000 A 
ATOM     32  C   UNL     1       0.434   8.967  22.578  0.00  0.00    +0.000 A 
ENDBRANCH  26  27
ENDBRANCH  25  26
ENDBRANCH  24  25
ENDBRANCH  23  24
ENDBRANCH   1  18
TORSDOF 6
ENDMDL
