MODEL 1
REMARK VINA RESULT:      -9.1      0.000      0.000
REMARK  Name = 
REMARK  3 active torsions:
REMARK  status: ('A' for Active; 'I' for Inactive)
REMARK    1  A    between atoms: C_2  and  C_15
REMARK    2  A    between atoms: N_3  and  C_4
REMARK    3  A    between atoms: C_15  and  C_16
REMARK                            x       y       z     vdW  Elec       q    Type
REMARK                         _______ _______ _______ _____ _____    ______ ____
ROOT
ATOM      1  O   UNL     1       1.654   4.942  17.681  0.00  0.00    +0.000 OA
ATOM      2  C   UNL     1       2.700   5.029  18.327  0.00  0.00    +0.000 C 
ATOM      3  N   UNL     1       3.126   6.179  18.972  0.00  0.00    +0.000 N 
ATOM      4  H   UNL     1       4.084   6.204  19.294  0.00  0.00    +0.000 HD
ENDROOT
BRANCH   3   5
ATOM      5  C   UNL     1       2.388   7.387  19.039  0.00  0.00    +0.000 A 
ATOM      6  C   UNL     1       2.247   8.261  17.964  0.00  0.00    +0.000 A 
ATOM      7  C   UNL     1       1.569   9.468  18.116  0.00  0.00    +0.000 A 
ATOM      8  C   UNL     1       1.025   9.776  19.357  0.00  0.00    +0.000 A 
ATOM      9  N   UNL     1       0.358  11.019  19.509  0.00  0.00    +0.000 N 
ATOM     10  C   UNL     1      -0.173  11.537  20.662  0.00  0.00    +0.000 A 
ATOM     11  N   UNL     1      -0.758  12.690  20.417  0.00  0.00    +0.000 NA
ATOM     12  C   UNL     1      -0.552  12.853  19.079  0.00  0.00    +0.000 A 
ATOM     13  N   UNL     1       0.141  11.881  18.481  0.00  0.00    +0.000 NA
ATOM     14  N   UNL     1       1.104   8.932  20.422  0.00  0.00    +0.000 NA
ATOM     15  C   UNL     1       1.767   7.760  20.230  0.00  0.00    +0.000 A 
ENDBRANCH   3   5
BRANCH   2  16
ATOM     16  C   UNL     1       3.680   3.833  18.363  0.00  0.00    +0.000 C 
ATOM     17  C   UNL     1       2.910   2.572  17.876  0.00  0.00    +0.000 C 
ATOM     18  C   UNL     1       3.592   1.373  18.520  0.00  0.00    +0.000 C 
ATOM     19  C   UNL     1       4.352   1.919  19.722  0.00  0.00    +0.000 C 
ATOM     20  C   UNL     1       3.985   3.399  19.813  0.00  0.00    +0.000 C 
BRANCH  16  21
ATOM     21  C   UNL     1       4.888   4.118  17.455  0.00  0.00    +0.000 A 
ATOM     22  C   UNL     1       6.079   4.613  18.027  0.00  0.00    +0.000 A 
ATOM     23  C   UNL     1       7.196   4.921  17.247  0.00  0.00    +0.000 A 
ATOM     24  C   UNL     1       7.155   4.732  15.870  0.00  0.00    +0.000 A 
ATOM     25  C   UNL     1       6.000   4.226  15.286  0.00  0.00    +0.000 A 
ATOM     26 CL   UNL     1       5.943   3.987  13.582  0.00  0.00    +0.000 Cl
ATOM     27  C   UNL     1       4.878   3.915  16.065  0.00  0.00    +0.000 A 
ENDBRANCH  16  21
ENDBRANCH   2  16
TORSDOF 3
ENDMDL
MODEL 2
REMARK VINA RESULT:      -8.8      0.766      1.212
REMARK  Name = 
REMARK  3 active torsions:
REMARK  status: ('A' for Active; 'I' for Inactive)
REMARK    1  A    between atoms: C_2  and  C_15
REMARK    2  A    between atoms: N_3  and  C_4
REMARK    3  A    between atoms: C_15  and  C_16
REMARK                            x       y       z     vdW  Elec       q    Type
REMARK                         _______ _______ _______ _____ _____    ______ ____
ROOT
ATOM      1  O   UNL     1       1.758   5.103  17.675  0.00  0.00    +0.000 OA
ATOM      2  C   UNL     1       2.722   5.076  18.442  0.00  0.00    +0.000 C 
ATOM      3  N   UNL     1       3.082   6.120  19.280  0.00  0.00    +0.000 N 
ATOM      4  H   UNL     1       3.996   6.077  19.710  0.00  0.00    +0.000 HD
ENDROOT
BRANCH   3   5
ATOM      5  C   UNL     1       2.353   7.326  19.425  0.00  0.00    +0.000 A 
ATOM      6  C   UNL     1       1.667   7.673  20.586  0.00  0.00    +0.000 A 
ATOM      7  C   UNL     1       0.910   8.841  20.640  0.00  0.00    +0.000 A 
ATOM      8  C   UNL     1       0.863   9.658  19.517  0.00  0.00    +0.000 A 
ATOM      9  N   UNL     1       0.069  10.832  19.573  0.00  0.00    +0.000 N 
ATOM     10  C   UNL     1      -0.167  11.721  18.555  0.00  0.00    +0.000 A 
ATOM     11  N   UNL     1      -0.912  12.717  18.983  0.00  0.00    +0.000 NA
ATOM     12  C   UNL     1      -1.124  12.395  20.290  0.00  0.00    +0.000 A 
ATOM     13  N   UNL     1      -0.573  11.248  20.696  0.00  0.00    +0.000 NA
ATOM     14  N   UNL     1       1.552   9.378  18.377  0.00  0.00    +0.000 NA
ATOM     15  C   UNL     1       2.286   8.233  18.368  0.00  0.00    +0.000 A 
ENDBRANCH   3   5
BRANCH   2  16
ATOM     16  C   UNL     1       3.680   3.862  18.427  0.00  0.00    +0.000 C 
ATOM     17  C   UNL     1       2.873   2.627  17.934  0.00  0.00    +0.000 C 
ATOM     18  C   UNL     1       3.548   1.401  18.536  0.00  0.00    +0.000 C 
ATOM     19  C   UNL     1       4.350   1.907  19.728  0.00  0.00    +0.000 C 
ATOM     20  C   UNL     1       4.014   3.392  19.859  0.00  0.00    +0.000 C 
BRANCH  16  21
ATOM     21  C   UNL     1       4.869   4.143  17.493  0.00  0.00    +0.000 A 
ATOM     22  C   UNL     1       6.072   4.638  18.040  0.00  0.00    +0.000 A 
ATOM     23  C   UNL     1       7.173   4.943  17.236  0.00  0.00    +0.000 A 
ATOM     24  C   UNL     1       7.103   4.751  15.860  0.00  0.00    +0.000 A 
ATOM     25  C   UNL     1       5.935   4.245  15.302  0.00  0.00    +0.000 A 
ATOM     26 CL   UNL     1       5.842   4.003  13.599  0.00  0.00    +0.000 Cl
ATOM     27  C   UNL     1       4.829   3.938  16.104  0.00  0.00    +0.000 A 
ENDBRANCH  16  21
ENDBRANCH   2  16
TORSDOF 3
ENDMDL
MODEL 3
REMARK VINA RESULT:      -8.5      1.302      1.594
REMARK  Name = 
REMARK  3 active torsions:
REMARK  status: ('A' for Active; 'I' for Inactive)
REMARK    1  A    between atoms: C_2  and  C_15
REMARK    2  A    between atoms: N_3  and  C_4
REMARK    3  A    between atoms: C_15  and  C_16
REMARK                            x       y       z     vdW  Elec       q    Type
REMARK                         _______ _______ _______ _____ _____    ______ ____
ROOT
ATOM      1  O   UNL     1       1.474   5.212  17.720  0.00  0.00    +0.000 OA
ATOM      2  C   UNL     1       2.519   5.310  18.365  0.00  0.00    +0.000 C 
ATOM      3  N   UNL     1       2.930   6.464  19.014  0.00  0.00    +0.000 N 
ATOM      4  H   UNL     1       3.888   6.501  19.336  0.00  0.00    +0.000 HD
ENDROOT
BRANCH   3   5
ATOM      5  C   UNL     1       2.175   7.660  19.089  0.00  0.00    +0.000 A 
ATOM      6  C   UNL     1       1.992   8.521  18.009  0.00  0.00    +0.000 A 
ATOM      7  C   UNL     1       1.299   9.718  18.167  0.00  0.00    +0.000 A 
ATOM      8  C   UNL     1       0.782  10.031  19.419  0.00  0.00    +0.000 A 
ATOM      9  N   UNL     1       0.099  11.264  19.576  0.00  0.00    +0.000 N 
ATOM     10  C   UNL     1      -0.411  11.786  20.737  0.00  0.00    +0.000 A 
ATOM     11  N   UNL     1      -1.019  12.927  20.496  0.00  0.00    +0.000 NA
ATOM     12  C   UNL     1      -0.851  13.080  19.152  0.00  0.00    +0.000 A 
ATOM     13  N   UNL     1      -0.157  12.113  18.546  0.00  0.00    +0.000 NA
ATOM     14  N   UNL     1       0.901   9.199  20.490  0.00  0.00    +0.000 NA
ATOM     15  C   UNL     1       1.579   8.036  20.292  0.00  0.00    +0.000 A 
ENDBRANCH   3   5
BRANCH   2  16
ATOM     16  C   UNL     1       3.517   4.129  18.394  0.00  0.00    +0.000 C 
ATOM     17  C   UNL     1       2.886   2.954  17.592  0.00  0.00    +0.000 C 
ATOM     18  C   UNL     1       3.483   1.674  18.159  0.00  0.00    +0.000 C 
ATOM     19  C   UNL     1       4.004   2.032  19.545  0.00  0.00    +0.000 C 
ATOM     20  C   UNL     1       3.579   3.478  19.791  0.00  0.00    +0.000 C 
BRANCH  16  21
ATOM     21  C   UNL     1       4.855   4.557  17.767  0.00  0.00    +0.000 A 
ATOM     22  C   UNL     1       5.169   4.135  16.458  0.00  0.00    +0.000 A 
ATOM     23  C   UNL     1       6.384   4.464  15.851  0.00  0.00    +0.000 A 
ATOM     24  C   UNL     1       7.315   5.236  16.537  0.00  0.00    +0.000 A 
ATOM     25  C   UNL     1       7.019   5.681  17.821  0.00  0.00    +0.000 A 
ATOM     26 CL   UNL     1       8.168   6.639  18.674  0.00  0.00    +0.000 Cl
ATOM     27  C   UNL     1       5.803   5.354  18.432  0.00  0.00    +0.000 A 
ENDBRANCH  16  21
ENDBRANCH   2  16
TORSDOF 3
ENDMDL
MODEL 4
REMARK VINA RESULT:      -8.4      2.050      2.701
REMARK  Name = 
REMARK  3 active torsions:
REMARK  status: ('A' for Active; 'I' for Inactive)
REMARK    1  A    between atoms: C_2  and  C_15
REMARK    2  A    between atoms: N_3  and  C_4
REMARK    3  A    between atoms: C_15  and  C_16
REMARK                            x       y       z     vdW  Elec       q    Type
REMARK                         _______ _______ _______ _____ _____    ______ ____
ROOT
ATOM      1  O   UNL     1       1.879   5.291  20.903  0.00  0.00    +0.000 OA
ATOM      2  C   UNL     1       2.407   5.631  19.842  0.00  0.00    +0.000 C 
ATOM      3  N   UNL     1       2.338   6.909  19.311  0.00  0.00    +0.000 N 
ATOM      4  H   UNL     1       2.625   7.029  18.348  0.00  0.00    +0.000 HD
ENDROOT
BRANCH   3   5
ATOM      5  C   UNL     1       1.717   8.014  19.943  0.00  0.00    +0.000 A 
ATOM      6  C   UNL     1       1.496   8.087  21.316  0.00  0.00    +0.000 A 
ATOM      7  C   UNL     1       0.815   9.171  21.867  0.00  0.00    +0.000 A 
ATOM      8  C   UNL     1       0.373  10.181  21.022  0.00  0.00    +0.000 A 
ATOM      9  N   UNL     1      -0.342  11.267  21.590  0.00  0.00    +0.000 N 
ATOM     10  C   UNL     1      -0.923  12.314  20.922  0.00  0.00    +0.000 A 
ATOM     11  N   UNL     1      -1.459  13.159  21.777  0.00  0.00    +0.000 NA
ATOM     12  C   UNL     1      -1.189  12.581  22.981  0.00  0.00    +0.000 A 
ATOM     13  N   UNL     1      -0.535  11.418  22.927  0.00  0.00    +0.000 NA
ATOM     14  N   UNL     1       0.604  10.169  19.681  0.00  0.00    +0.000 NA
ATOM     15  C   UNL     1       1.279   9.098  19.184  0.00  0.00    +0.000 A 
ENDBRANCH   3   5
BRANCH   2  16
ATOM     16  C   UNL     1       3.116   4.573  18.965  0.00  0.00    +0.000 C 
ATOM     17  C   UNL     1       2.116   4.127  17.859  0.00  0.00    +0.000 C 
ATOM     18  C   UNL     1       2.512   2.710  17.465  0.00  0.00    +0.000 C 
ATOM     19  C   UNL     1       3.331   2.164  18.628  0.00  0.00    +0.000 C 
ATOM     20  C   UNL     1       3.277   3.235  19.716  0.00  0.00    +0.000 C 
BRANCH  16  21
ATOM     21  C   UNL     1       4.385   5.176  18.339  0.00  0.00    +0.000 A 
ATOM     22  C   UNL     1       4.356   5.595  16.992  0.00  0.00    +0.000 A 
ATOM     23  C   UNL     1       5.487   6.118  16.360  0.00  0.00    +0.000 A 
ATOM     24  C   UNL     1       6.679   6.244  17.066  0.00  0.00    +0.000 A 
ATOM     25  C   UNL     1       6.726   5.856  18.400  0.00  0.00    +0.000 A 
ATOM     26 CL   UNL     1       8.199   6.013  19.279  0.00  0.00    +0.000 Cl
ATOM     27  C   UNL     1       5.594   5.333  19.036  0.00  0.00    +0.000 A 
ENDBRANCH  16  21
ENDBRANCH   2  16
TORSDOF 3
ENDMDL
MODEL 5
REMARK VINA RESULT:      -8.3      1.999      3.454
REMARK  Name = 
REMARK  3 active torsions:
REMARK  status: ('A' for Active; 'I' for Inactive)
REMARK    1  A    between atoms: C_2  and  C_15
REMARK    2  A    between atoms: N_3  and  C_4
REMARK    3  A    between atoms: C_15  and  C_16
REMARK                            x       y       z     vdW  Elec       q    Type
REMARK                         _______ _______ _______ _____ _____    ______ ____
ROOT
ATOM      1  O   UNL     1       5.007   7.640  17.404  0.00  0.00    +0.000 OA
ATOM      2  C   UNL     1       4.382   6.580  17.470  0.00  0.00    +0.000 C 
ATOM      3  N   UNL     1       3.124   6.450  18.038  0.00  0.00    +0.000 N 
ATOM      4  H   UNL     1       2.793   5.512  18.225  0.00  0.00    +0.000 HD
ENDROOT
BRANCH   3   5
ATOM      5  C   UNL     1       2.355   7.523  18.550  0.00  0.00    +0.000 A 
ATOM      6  C   UNL     1       1.905   8.586  17.771  0.00  0.00    +0.000 A 
ATOM      7  C   UNL     1       1.214   9.647  18.351  0.00  0.00    +0.000 A 
ATOM      8  C   UNL     1       0.972   9.618  19.719  0.00  0.00    +0.000 A 
ATOM      9  N   UNL     1       0.289  10.715  20.305  0.00  0.00    +0.000 N 
ATOM     10  C   UNL     1       0.025  10.910  21.636  0.00  0.00    +0.000 A 
ATOM     11  N   UNL     1      -0.669  12.015  21.807  0.00  0.00    +0.000 NA
ATOM     12  C   UNL     1      -0.805  12.484  20.534  0.00  0.00    +0.000 A 
ATOM     13  N   UNL     1      -0.222  11.749  19.584  0.00  0.00    +0.000 NA
ATOM     14  N   UNL     1       1.357   8.579  20.510  0.00  0.00    +0.000 NA
ATOM     15  C   UNL     1       2.021   7.559  19.904  0.00  0.00    +0.000 A 
ENDBRANCH   3   5
BRANCH   2  16
ATOM     16  C   UNL     1       5.046   5.267  16.996  0.00  0.00    +0.000 C 
ATOM     17  C   UNL     1       6.549   5.324  17.394  0.00  0.00    +0.000 C 
ATOM     18  C   UNL     1       7.294   4.441  16.402  0.00  0.00    +0.000 C 
ATOM     19  C   UNL     1       6.383   4.315  15.188  0.00  0.00    +0.000 C 
ATOM     20  C   UNL     1       5.193   5.233  15.460  0.00  0.00    +0.000 C 
BRANCH  16  21
ATOM     21  C   UNL     1       4.355   4.061  17.654  0.00  0.00    +0.000 A 
ATOM     22  C   UNL     1       3.248   3.467  17.012  0.00  0.00    +0.000 A 
ATOM     23  C   UNL     1       2.560   2.391  17.580  0.00  0.00    +0.000 A 
ATOM     24  C   UNL     1       2.969   1.874  18.804  0.00  0.00    +0.000 A 
ATOM     25  C   UNL     1       4.070   2.430  19.445  0.00  0.00    +0.000 A 
ATOM     26 CL   UNL     1       4.583   1.792  20.961  0.00  0.00    +0.000 Cl
ATOM     27  C   UNL     1       4.762   3.507  18.880  0.00  0.00    +0.000 A 
ENDBRANCH  16  21
ENDBRANCH   2  16
TORSDOF 3
ENDMDL
MODEL 6
REMARK VINA RESULT:      -8.3      1.373      1.918
REMARK  Name = 
REMARK  3 active torsions:
REMARK  status: ('A' for Active; 'I' for Inactive)
REMARK    1  A    between atoms: C_2  and  C_15
REMARK    2  A    between atoms: N_3  and  C_4
REMARK    3  A    between atoms: C_15  and  C_16
REMARK                            x       y       z     vdW  Elec       q    Type
REMARK                         _______ _______ _______ _____ _____    ______ ____
ROOT
ATOM      1  O   UNL     1       1.481   5.339  17.775  0.00  0.00    +0.000 OA
ATOM      2  C   UNL     1       2.499   5.338  18.469  0.00  0.00    +0.000 C 
ATOM      3  N   UNL     1       2.874   6.377  19.306  0.00  0.00    +0.000 N 
ATOM      4  H   UNL     1       3.819   6.366  19.667  0.00  0.00    +0.000 HD
ENDROOT
BRANCH   3   5
ATOM      5  C   UNL     1       2.107   7.546  19.535  0.00  0.00    +0.000 A 
ATOM      6  C   UNL     1       1.446   7.807  20.733  0.00  0.00    +0.000 A 
ATOM      7  C   UNL     1       0.649   8.941  20.869  0.00  0.00    +0.000 A 
ATOM      8  C   UNL     1       0.536   9.812  19.792  0.00  0.00    +0.000 A 
ATOM      9  N   UNL     1      -0.298  10.951  19.932  0.00  0.00    +0.000 N 
ATOM     10  C   UNL     1      -0.599  11.879  18.970  0.00  0.00    +0.000 A 
ATOM     11  N   UNL     1      -1.366  12.824  19.470  0.00  0.00    +0.000 NA
ATOM     12  C   UNL     1      -1.524  12.428  20.765  0.00  0.00    +0.000 A 
ATOM     13  N   UNL     1      -0.918  11.284  21.095  0.00  0.00    +0.000 NA
ATOM     14  N   UNL     1       1.198   9.616  18.619  0.00  0.00    +0.000 NA
ATOM     15  C   UNL     1       1.973   8.502  18.529  0.00  0.00    +0.000 A 
ENDBRANCH   3   5
BRANCH   2  16
ATOM     16  C   UNL     1       3.505   4.169  18.354  0.00  0.00    +0.000 C 
ATOM     17  C   UNL     1       2.755   2.957  17.729  0.00  0.00    +0.000 C 
ATOM     18  C   UNL     1       3.470   1.706  18.220  0.00  0.00    +0.000 C 
ATOM     19  C   UNL     1       4.234   2.124  19.470  0.00  0.00    +0.000 C 
ATOM     20  C   UNL     1       3.838   3.574  19.738  0.00  0.00    +0.000 C 
BRANCH  16  21
ATOM     21  C   UNL     1       4.694   4.585  17.472  0.00  0.00    +0.000 A 
ATOM     22  C   UNL     1       4.925   3.902  16.259  0.00  0.00    +0.000 A 
ATOM     23  C   UNL     1       6.009   4.214  15.435  0.00  0.00    +0.000 A 
ATOM     24  C   UNL     1       6.889   5.227  15.799  0.00  0.00    +0.000 A 
ATOM     25  C   UNL     1       6.670   5.928  16.980  0.00  0.00    +0.000 A 
ATOM     26 CL   UNL     1       7.755   7.185  17.435  0.00  0.00    +0.000 Cl
ATOM     27  C   UNL     1       5.585   5.619  17.808  0.00  0.00    +0.000 A 
ENDBRANCH  16  21
ENDBRANCH   2  16
TORSDOF 3
ENDMDL
MODEL 7
REMARK VINA RESULT:      -8.3      1.259      1.752
REMARK  Name = 
REMARK  3 active torsions:
REMARK  status: ('A' for Active; 'I' for Inactive)
REMARK    1  A    between atoms: C_2  and  C_15
REMARK    2  A    between atoms: N_3  and  C_4
REMARK    3  A    between atoms: C_15  and  C_16
REMARK                            x       y       z     vdW  Elec       q    Type
REMARK                         _______ _______ _______ _____ _____    ______ ____
ROOT
ATOM      1  O   UNL     1       3.371   7.009  17.734  0.00  0.00    +0.000 OA
ATOM      2  C   UNL     1       2.957   6.177  18.542  0.00  0.00    +0.000 C 
ATOM      3  N   UNL     1       2.219   6.487  19.673  0.00  0.00    +0.000 N 
ATOM      4  H   UNL     1       2.109   5.762  20.370  0.00  0.00    +0.000 HD
ENDROOT
BRANCH   3   5
ATOM      5  C   UNL     1       1.776   7.788  20.017  0.00  0.00    +0.000 A 
ATOM      6  C   UNL     1       1.465   8.174  21.318  0.00  0.00    +0.000 A 
ATOM      7  C   UNL     1       0.966   9.448  21.579  0.00  0.00    +0.000 A 
ATOM      8  C   UNL     1       0.796  10.328  20.517  0.00  0.00    +0.000 A 
ATOM      9  N   UNL     1       0.263  11.615  20.789  0.00  0.00    +0.000 N 
ATOM     10  C   UNL     1      -0.049  12.591  19.879  0.00  0.00    +0.000 A 
ATOM     11  N   UNL     1      -0.477  13.671  20.496  0.00  0.00    +0.000 NA
ATOM     12  C   UNL     1      -0.420  13.310  21.809  0.00  0.00    +0.000 A 
ATOM     13  N   UNL     1      -0.002  12.063  22.045  0.00  0.00    +0.000 NA
ATOM     14  N   UNL     1       1.127  10.006  19.237  0.00  0.00    +0.000 NA
ATOM     15  C   UNL     1       1.619   8.756  19.026  0.00  0.00    +0.000 A 
ENDBRANCH   3   5
BRANCH   2  16
ATOM     16  C   UNL     1       3.350   4.690  18.380  0.00  0.00    +0.000 C 
ATOM     17  C   UNL     1       2.234   3.991  17.551  0.00  0.00    +0.000 C 
ATOM     18  C   UNL     1       2.252   2.522  17.953  0.00  0.00    +0.000 C 
ATOM     19  C   UNL     1       2.948   2.467  19.307  0.00  0.00    +0.000 C 
ATOM     20  C   UNL     1       3.199   3.919  19.708  0.00  0.00    +0.000 C 
BRANCH  16  21
ATOM     21  C   UNL     1       4.708   4.581  17.665  0.00  0.00    +0.000 A 
ATOM     22  C   UNL     1       5.893   4.797  18.399  0.00  0.00    +0.000 A 
ATOM     23  C   UNL     1       7.152   4.744  17.796  0.00  0.00    +0.000 A 
ATOM     24  C   UNL     1       7.259   4.464  16.438  0.00  0.00    +0.000 A 
ATOM     25  C   UNL     1       6.106   4.228  15.697  0.00  0.00    +0.000 A 
ATOM     26 CL   UNL     1       6.232   3.877  14.016  0.00  0.00    +0.000 Cl
ATOM     27  C   UNL     1       4.843   4.278  16.299  0.00  0.00    +0.000 A 
ENDBRANCH  16  21
ENDBRANCH   2  16
TORSDOF 3
ENDMDL
MODEL 8
REMARK VINA RESULT:      -8.1      1.473      2.005
REMARK  Name = 
REMARK  3 active torsions:
REMARK  status: ('A' for Active; 'I' for Inactive)
REMARK    1  A    between atoms: C_2  and  C_15
REMARK    2  A    between atoms: N_3  and  C_4
REMARK    3  A    between atoms: C_15  and  C_16
REMARK                            x       y       z     vdW  Elec       q    Type
REMARK                         _______ _______ _______ _____ _____    ______ ____
ROOT
ATOM      1  O   UNL     1       2.214   5.053  20.968  0.00  0.00    +0.000 OA
ATOM      2  C   UNL     1       2.624   5.300  19.832  0.00  0.00    +0.000 C 
ATOM      3  N   UNL     1       2.477   6.524  19.199  0.00  0.00    +0.000 N 
ATOM      4  H   UNL     1       2.662   6.558  18.205  0.00  0.00    +0.000 HD
ENDROOT
BRANCH   3   5
ATOM      5  C   UNL     1       1.906   7.676  19.792  0.00  0.00    +0.000 A 
ATOM      6  C   UNL     1       1.577   7.762  21.142  0.00  0.00    +0.000 A 
ATOM      7  C   UNL     1       0.951   8.899  21.648  0.00  0.00    +0.000 A 
ATOM      8  C   UNL     1       0.673   9.949  20.782  0.00  0.00    +0.000 A 
ATOM      9  N   UNL     1       0.013  11.092  21.302  0.00  0.00    +0.000 N 
ATOM     10  C   UNL     1      -0.416  12.190  20.602  0.00  0.00    +0.000 A 
ATOM     11  N   UNL     1      -0.945  13.076  21.419  0.00  0.00    +0.000 NA
ATOM     12  C   UNL     1      -0.829  12.469  22.635  0.00  0.00    +0.000 A 
ATOM     13  N   UNL     1      -0.278  11.252  22.620  0.00  0.00    +0.000 NA
ATOM     14  N   UNL     1       1.015   9.924  19.465  0.00  0.00    +0.000 NA
ATOM     15  C   UNL     1       1.632   8.799  19.012  0.00  0.00    +0.000 A 
ENDBRANCH   3   5
BRANCH   2  16
ATOM     16  C   UNL     1       3.256   4.173  18.984  0.00  0.00    +0.000 C 
ATOM     17  C   UNL     1       2.224   3.762  17.894  0.00  0.00    +0.000 C 
ATOM     18  C   UNL     1       2.524   2.312  17.540  0.00  0.00    +0.000 C 
ATOM     19  C   UNL     1       3.310   1.746  18.716  0.00  0.00    +0.000 C 
ATOM     20  C   UNL     1       3.332   2.849  19.773  0.00  0.00    +0.000 C 
BRANCH  16  21
ATOM     21  C   UNL     1       4.560   4.671  18.337  0.00  0.00    +0.000 A 
ATOM     22  C   UNL     1       5.607   5.130  19.164  0.00  0.00    +0.000 A 
ATOM     23  C   UNL     1       6.800   5.626  18.631  0.00  0.00    +0.000 A 
ATOM     24  C   UNL     1       6.980   5.667  17.253  0.00  0.00    +0.000 A 
ATOM     25  C   UNL     1       5.971   5.201  16.419  0.00  0.00    +0.000 A 
ATOM     26 CL   UNL     1       6.190   5.247  14.711  0.00  0.00    +0.000 Cl
ATOM     27  C   UNL     1       4.774   4.703  16.949  0.00  0.00    +0.000 A 
ENDBRANCH  16  21
ENDBRANCH   2  16
TORSDOF 3
ENDMDL
MODEL 9
REMARK VINA RESULT:      -8.1      1.121      1.512
REMARK  Name = 
REMARK  3 active torsions:
REMARK  status: ('A' for Active; 'I' for Inactive)
REMARK    1  A    between atoms: C_2  and  C_15
REMARK    2  A    between atoms: N_3  and  C_4
REMARK    3  A    between atoms: C_15  and  C_16
REMARK                            x       y       z     vdW  Elec       q    Type
REMARK                         _______ _______ _______ _____ _____    ______ ____
ROOT
ATOM      1  O   UNL     1       2.988   5.496  20.432  0.00  0.00    +0.000 OA
ATOM      2  C   UNL     1       3.055   5.399  19.205  0.00  0.00    +0.000 C 
ATOM      3  N   UNL     1       2.661   6.390  18.321  0.00  0.00    +0.000 N 
ATOM      4  H   UNL     1       2.564   6.133  17.347  0.00  0.00    +0.000 HD
ENDROOT
BRANCH   3   5
ATOM      5  C   UNL     1       2.198   7.674  18.701  0.00  0.00    +0.000 A 
ATOM      6  C   UNL     1       1.666   7.957  19.956  0.00  0.00    +0.000 A 
ATOM      7  C   UNL     1       1.162   9.223  20.243  0.00  0.00    +0.000 A 
ATOM      8  C   UNL     1       1.213  10.201  19.257  0.00  0.00    +0.000 A 
ATOM      9  N   UNL     1       0.674  11.480  19.550  0.00  0.00    +0.000 N 
ATOM     10  C   UNL     1       0.559  12.546  18.695  0.00  0.00    +0.000 A 
ATOM     11  N   UNL     1       0.056  13.585  19.325  0.00  0.00    +0.000 NA
ATOM     12  C   UNL     1      -0.138  13.107  20.586  0.00  0.00    +0.000 A 
ATOM     13  N   UNL     1       0.197  11.828  20.774  0.00  0.00    +0.000 NA
ATOM     14  N   UNL     1       1.762   9.979  18.031  0.00  0.00    +0.000 NA
ATOM     15  C   UNL     1       2.251   8.732  17.794  0.00  0.00    +0.000 A 
ENDBRANCH   3   5
BRANCH   2  16
ATOM     16  C   UNL     1       3.505   4.065  18.566  0.00  0.00    +0.000 C 
ATOM     17  C   UNL     1       2.355   3.569  17.643  0.00  0.00    +0.000 C 
ATOM     18  C   UNL     1       2.482   2.053  17.571  0.00  0.00    +0.000 C 
ATOM     19  C   UNL     1       3.298   1.642  18.789  0.00  0.00    +0.000 C 
ATOM     20  C   UNL     1       3.512   2.919  19.600  0.00  0.00    +0.000 C 
BRANCH  16  21
ATOM     21  C   UNL     1       4.797   4.279  17.758  0.00  0.00    +0.000 A 
ATOM     22  C   UNL     1       5.975   4.661  18.433  0.00  0.00    +0.000 A 
ATOM     23  C   UNL     1       7.169   4.902  17.747  0.00  0.00    +0.000 A 
ATOM     24  C   UNL     1       7.216   4.759  16.365  0.00  0.00    +0.000 A 
ATOM     25  C   UNL     1       6.072   4.364  15.681  0.00  0.00    +0.000 A 
ATOM     26 CL   UNL     1       6.126   4.182  13.969  0.00  0.00    +0.000 Cl
ATOM     27  C   UNL     1       4.875   4.120  16.364  0.00  0.00    +0.000 A 
ENDBRANCH  16  21
ENDBRANCH   2  16
TORSDOF 3
ENDMDL
