MODEL 1
REMARK VINA RESULT:      -9.2      0.000      0.000
REMARK  Name = 
REMARK  4 active torsions:
REMARK  status: ('A' for Active; 'I' for Inactive)
REMARK    1  A    between atoms: C_2  and  C_3
REMARK    2  A    between atoms: C_3  and  C_4
REMARK    3  A    between atoms: N_15  and  C_16
REMARK    4  A    between atoms: C_20  and  N_21
REMARK                            x       y       z     vdW  Elec       q    Type
REMARK                         _______ _______ _______ _____ _____    ______ ____
ROOT
ATOM      1  O   UNL     1       8.511   7.398  18.973  0.00  0.00    +0.000 OA
ATOM      2  C   UNL     1       8.049   7.954  17.978  0.00  0.00    +0.000 C 
ATOM      3  N   UNL     1       8.078   9.314  17.703  0.00  0.00    +0.000 N 
ATOM      4  H   UNL     1       7.596   9.626  16.864  0.00  0.00    +0.000 HD
ENDROOT
BRANCH   3   5
ATOM      5  C   UNL     1       8.760  10.302  18.455  0.00  0.00    +0.000 A 
ATOM      6  C   UNL     1       9.232  10.058  19.746  0.00  0.00    +0.000 A 
ATOM      7  C   UNL     1       9.913  11.045  20.450  0.00  0.00    +0.000 A 
ATOM      8  C   UNL     1      10.158  12.279  19.857  0.00  0.00    +0.000 A 
ATOM      9  C   UNL     1       9.739  12.549  18.547  0.00  0.00    +0.000 A 
ATOM     10  C   UNL     1       9.013  11.556  17.862  0.00  0.00    +0.000 A 
BRANCH   9  11
ATOM     11  N   UNL     1      10.057  13.799  17.958  0.00  0.00    +0.000 N 
ATOM     12  C   UNL     1       9.232  14.962  18.028  0.00  0.00    +0.000 C 
ATOM     13  C   UNL     1      10.124  16.033  17.446  0.00  0.00    +0.000 C 
ATOM     14  O   UNL     1      11.074  15.332  16.645  0.00  0.00    +0.000 OA
ATOM     15  C   UNL     1      11.099  14.026  17.064  0.00  0.00    +0.000 C 
ATOM     16  O   UNL     1      11.920  13.234  16.631  0.00  0.00    +0.000 OA
ENDBRANCH   9  11
ENDBRANCH   3   5
BRANCH   2  17
ATOM     17  C   UNL     1       7.363   7.117  16.908  0.00  0.00    +0.000 C 
BRANCH  17  18
ATOM     18  C   UNL     1       6.440   6.142  17.576  0.00  0.00    +0.000 A 
ATOM     19  C   UNL     1       5.233   6.469  18.073  0.00  0.00    +0.000 A 
ATOM     20  C   UNL     1       4.386   5.461  18.706  0.00  0.00    +0.000 A 
ATOM     21  C   UNL     1       3.145   5.789  19.257  0.00  0.00    +0.000 A 
ATOM     22  C   UNL     1       2.360   4.799  19.853  0.00  0.00    +0.000 A 
ATOM     23  C   UNL     1       2.812   3.478  19.898  0.00  0.00    +0.000 A 
ATOM     24  C   UNL     1       4.052   3.143  19.352  0.00  0.00    +0.000 A 
ATOM     25  C   UNL     1       4.835   4.136  18.762  0.00  0.00    +0.000 A 
ATOM     26  N   UNL     1       6.091   3.812  18.228  0.00  0.00    +0.000 N 
ATOM     27  C   UNL     1       6.931   4.733  17.665  0.00  0.00    +0.000 A 
ATOM     28  O   UNL     1       8.046   4.428  17.244  0.00  0.00    +0.000 OA
ATOM     29  H   UNL     1       6.432   2.862  18.275  0.00  0.00    +0.000 HD
ENDBRANCH  17  18
ENDBRANCH   2  17
TORSDOF 4
ENDMDL
MODEL 2
REMARK VINA RESULT:      -9.2      6.276      9.426
REMARK  Name = 
REMARK  4 active torsions:
REMARK  status: ('A' for Active; 'I' for Inactive)
REMARK    1  A    between atoms: C_2  and  C_3
REMARK    2  A    between atoms: C_3  and  C_4
REMARK    3  A    between atoms: N_15  and  C_16
REMARK    4  A    between atoms: C_20  and  N_21
REMARK                            x       y       z     vdW  Elec       q    Type
REMARK                         _______ _______ _______ _____ _____    ______ ____
ROOT
ATOM      1  O   UNL     1       2.238   8.709  17.188  0.00  0.00    +0.000 OA
ATOM      2  C   UNL     1       2.035   8.465  18.376  0.00  0.00    +0.000 C 
ATOM      3  N   UNL     1       2.105   7.220  18.987  0.00  0.00    +0.000 N 
ATOM      4  H   UNL     1       1.848   7.174  19.970  0.00  0.00    +0.000 HD
ENDROOT
BRANCH   3   5
ATOM      5  C   UNL     1       2.550   6.019  18.384  0.00  0.00    +0.000 A 
ATOM      6  C   UNL     1       1.737   4.887  18.296  0.00  0.00    +0.000 A 
ATOM      7  C   UNL     1       2.199   3.729  17.681  0.00  0.00    +0.000 A 
ATOM      8  C   UNL     1       3.470   3.699  17.119  0.00  0.00    +0.000 A 
ATOM      9  C   UNL     1       4.301   4.827  17.146  0.00  0.00    +0.000 A 
ATOM     10  C   UNL     1       3.838   5.980  17.810  0.00  0.00    +0.000 A 
BRANCH   9  11
ATOM     11  N   UNL     1       5.568   4.775  16.513  0.00  0.00    +0.000 N 
ATOM     12  C   UNL     1       5.768   4.685  15.103  0.00  0.00    +0.000 C 
ATOM     13  C   UNL     1       7.259   4.885  14.968  0.00  0.00    +0.000 C 
ATOM     14  O   UNL     1       7.799   4.532  16.239  0.00  0.00    +0.000 OA
ATOM     15  C   UNL     1       6.786   4.600  17.163  0.00  0.00    +0.000 C 
ATOM     16  O   UNL     1       7.004   4.469  18.357  0.00  0.00    +0.000 OA
ENDBRANCH   9  11
ENDBRANCH   3   5
BRANCH   2  17
ATOM     17  C   UNL     1       1.665   9.601  19.318  0.00  0.00    +0.000 C 
BRANCH  17  18
ATOM     18  C   UNL     1       0.295  10.097  18.961  0.00  0.00    +0.000 A 
ATOM     19  C   UNL     1      -0.361   9.752  17.839  0.00  0.00    +0.000 A 
ATOM     20  C   UNL     1      -1.698  10.273  17.563  0.00  0.00    +0.000 A 
ATOM     21  C   UNL     1      -2.380   9.951  16.387  0.00  0.00    +0.000 A 
ATOM     22  C   UNL     1      -3.658  10.466  16.158  0.00  0.00    +0.000 A 
ATOM     23  C   UNL     1      -4.259  11.300  17.102  0.00  0.00    +0.000 A 
ATOM     24  C   UNL     1      -3.582  11.628  18.278  0.00  0.00    +0.000 A 
ATOM     25  C   UNL     1      -2.304  11.116  18.502  0.00  0.00    +0.000 A 
ATOM     26  N   UNL     1      -1.608  11.455  19.671  0.00  0.00    +0.000 N 
ATOM     27  C   UNL     1      -0.340  11.024  19.947  0.00  0.00    +0.000 A 
ATOM     28  O   UNL     1       0.262  11.373  20.961  0.00  0.00    +0.000 OA
ATOM     29  H   UNL     1      -2.030  12.074  20.350  0.00  0.00    +0.000 HD
ENDBRANCH  17  18
ENDBRANCH   2  17
TORSDOF 4
ENDMDL
MODEL 3
REMARK VINA RESULT:      -9.0      5.881      8.234
REMARK  Name = 
REMARK  4 active torsions:
REMARK  status: ('A' for Active; 'I' for Inactive)
REMARK    1  A    between atoms: C_2  and  C_3
REMARK    2  A    between atoms: C_3  and  C_4
REMARK    3  A    between atoms: N_15  and  C_16
REMARK    4  A    between atoms: C_20  and  N_21
REMARK                            x       y       z     vdW  Elec       q    Type
REMARK                         _______ _______ _______ _____ _____    ______ ____
ROOT
ATOM      1  O   UNL     1       2.185   5.008  17.720  0.00  0.00    +0.000 OA
ATOM      2  C   UNL     1       3.255   5.478  18.101  0.00  0.00    +0.000 C 
ATOM      3  N   UNL     1       3.497   6.798  18.456  0.00  0.00    +0.000 N 
ATOM      4  H   UNL     1       4.455   7.045  18.692  0.00  0.00    +0.000 HD
ENDROOT
BRANCH   3   5
ATOM      5  C   UNL     1       2.525   7.823  18.568  0.00  0.00    +0.000 A 
ATOM      6  C   UNL     1       1.997   8.470  17.450  0.00  0.00    +0.000 A 
ATOM      7  C   UNL     1       1.031   9.460  17.594  0.00  0.00    +0.000 A 
ATOM      8  C   UNL     1       0.560   9.792  18.860  0.00  0.00    +0.000 A 
ATOM      9  C   UNL     1       1.032   9.137  20.005  0.00  0.00    +0.000 A 
ATOM     10  C   UNL     1       2.042   8.167  19.847  0.00  0.00    +0.000 A 
BRANCH   9  11
ATOM     11  N   UNL     1       0.487   9.465  21.271  0.00  0.00    +0.000 N 
ATOM     12  C   UNL     1      -0.400   8.629  22.014  0.00  0.00    +0.000 C 
ATOM     13  C   UNL     1      -0.485   9.341  23.344  0.00  0.00    +0.000 C 
ATOM     14  O   UNL     1      -0.127  10.693  23.067  0.00  0.00    +0.000 OA
ATOM     15  C   UNL     1       0.564  10.713  21.881  0.00  0.00    +0.000 C 
ATOM     16  O   UNL     1       1.099  11.732  21.474  0.00  0.00    +0.000 OA
ENDBRANCH   9  11
ENDBRANCH   3   5
BRANCH   2  17
ATOM     17  C   UNL     1       4.471   4.570  18.215  0.00  0.00    +0.000 C 
BRANCH  17  18
ATOM     18  C   UNL     1       5.275   4.681  16.954  0.00  0.00    +0.000 A 
ATOM     19  C   UNL     1       4.981   4.031  15.814  0.00  0.00    +0.000 A 
ATOM     20  C   UNL     1       5.811   4.193  14.623  0.00  0.00    +0.000 A 
ATOM     21  C   UNL     1       5.539   3.501  13.441  0.00  0.00    +0.000 A 
ATOM     22  C   UNL     1       6.353   3.683  12.321  0.00  0.00    +0.000 A 
ATOM     23  C   UNL     1       7.440   4.559  12.377  0.00  0.00    +0.000 A 
ATOM     24  C   UNL     1       7.719   5.252  13.556  0.00  0.00    +0.000 A 
ATOM     25  C   UNL     1       6.907   5.064  14.675  0.00  0.00    +0.000 A 
ATOM     26  N   UNL     1       7.191   5.742  15.869  0.00  0.00    +0.000 N 
ATOM     27  C   UNL     1       6.465   5.585  17.017  0.00  0.00    +0.000 A 
ATOM     28  O   UNL     1       6.764   6.159  18.062  0.00  0.00    +0.000 OA
ATOM     29  H   UNL     1       7.987   6.362  15.922  0.00  0.00    +0.000 HD
ENDBRANCH  17  18
ENDBRANCH   2  17
TORSDOF 4
ENDMDL
MODEL 4
REMARK VINA RESULT:      -9.0      0.823      1.178
REMARK  Name = 
REMARK  4 active torsions:
REMARK  status: ('A' for Active; 'I' for Inactive)
REMARK    1  A    between atoms: C_2  and  C_3
REMARK    2  A    between atoms: C_3  and  C_4
REMARK    3  A    between atoms: N_15  and  C_16
REMARK    4  A    between atoms: C_20  and  N_21
REMARK                            x       y       z     vdW  Elec       q    Type
REMARK                         _______ _______ _______ _____ _____    ______ ____
ROOT
ATOM      1  O   UNL     1       8.583   7.444  18.947  0.00  0.00    +0.000 OA
ATOM      2  C   UNL     1       8.061   8.003  17.984  0.00  0.00    +0.000 C 
ATOM      3  N   UNL     1       8.046   9.367  17.731  0.00  0.00    +0.000 N 
ATOM      4  H   UNL     1       7.517   9.680  16.921  0.00  0.00    +0.000 HD
ENDROOT
BRANCH   3   5
ATOM      5  C   UNL     1       8.739  10.360  18.466  0.00  0.00    +0.000 A 
ATOM      6  C   UNL     1       9.271  10.110  19.732  0.00  0.00    +0.000 A 
ATOM      7  C   UNL     1       9.963  11.102  20.418  0.00  0.00    +0.000 A 
ATOM      8  C   UNL     1      10.156  12.348  19.833  0.00  0.00    +0.000 A 
ATOM      9  C   UNL     1       9.676  12.626  18.546  0.00  0.00    +0.000 A 
ATOM     10  C   UNL     1       8.940  11.627  17.879  0.00  0.00    +0.000 A 
BRANCH   9  11
ATOM     11  N   UNL     1       9.941  13.889  17.960  0.00  0.00    +0.000 N 
ATOM     12  C   UNL     1      11.204  14.288  17.429  0.00  0.00    +0.000 C 
ATOM     13  C   UNL     1      10.877  15.598  16.751  0.00  0.00    +0.000 C 
ATOM     14  O   UNL     1       9.691  16.062  17.390  0.00  0.00    +0.000 OA
ATOM     15  C   UNL     1       9.089  14.989  17.999  0.00  0.00    +0.000 C 
ATOM     16  O   UNL     1       7.987  15.084  18.513  0.00  0.00    +0.000 OA
ENDBRANCH   9  11
ENDBRANCH   3   5
BRANCH   2  17
ATOM     17  C   UNL     1       7.345   7.166  16.934  0.00  0.00    +0.000 C 
BRANCH  17  18
ATOM     18  C   UNL     1       6.440   6.192  17.628  0.00  0.00    +0.000 A 
ATOM     19  C   UNL     1       5.253   6.523  18.169  0.00  0.00    +0.000 A 
ATOM     20  C   UNL     1       4.423   5.516  18.825  0.00  0.00    +0.000 A 
ATOM     21  C   UNL     1       3.204   5.848  19.421  0.00  0.00    +0.000 A 
ATOM     22  C   UNL     1       2.435   4.857  20.038  0.00  0.00    +0.000 A 
ATOM     23  C   UNL     1       2.880   3.534  20.059  0.00  0.00    +0.000 A 
ATOM     24  C   UNL     1       4.099   3.196  19.468  0.00  0.00    +0.000 A 
ATOM     25  C   UNL     1       4.867   4.188  18.857  0.00  0.00    +0.000 A 
ATOM     26  N   UNL     1       6.101   3.861  18.278  0.00  0.00    +0.000 N 
ATOM     27  C   UNL     1       6.926   4.780  17.692  0.00  0.00    +0.000 A 
ATOM     28  O   UNL     1       8.024   4.471  17.231  0.00  0.00    +0.000 OA
ATOM     29  H   UNL     1       6.438   2.909  18.307  0.00  0.00    +0.000 HD
ENDBRANCH  17  18
ENDBRANCH   2  17
TORSDOF 4
ENDMDL
MODEL 5
REMARK VINA RESULT:      -8.7      6.282      8.148
REMARK  Name = 
REMARK  4 active torsions:
REMARK  status: ('A' for Active; 'I' for Inactive)
REMARK    1  A    between atoms: C_2  and  C_3
REMARK    2  A    between atoms: C_3  and  C_4
REMARK    3  A    between atoms: N_15  and  C_16
REMARK    4  A    between atoms: C_20  and  N_21
REMARK                            x       y       z     vdW  Elec       q    Type
REMARK                         _______ _______ _______ _____ _____    ______ ____
ROOT
ATOM      1  O   UNL     1       1.572   4.691  18.982  0.00  0.00    +0.000 OA
ATOM      2  C   UNL     1       2.741   5.070  18.999  0.00  0.00    +0.000 C 
ATOM      3  N   UNL     1       3.185   6.384  18.934  0.00  0.00    +0.000 N 
ATOM      4  H   UNL     1       4.190   6.530  18.896  0.00  0.00    +0.000 HD
ENDROOT
BRANCH   3   5
ATOM      5  C   UNL     1       2.370   7.542  18.967  0.00  0.00    +0.000 A 
ATOM      6  C   UNL     1       2.014   8.232  17.807  0.00  0.00    +0.000 A 
ATOM      7  C   UNL     1       1.197   9.355  17.872  0.00  0.00    +0.000 A 
ATOM      8  C   UNL     1       0.701   9.783  19.099  0.00  0.00    +0.000 A 
ATOM      9  C   UNL     1       0.999   9.094  20.282  0.00  0.00    +0.000 A 
ATOM     10  C   UNL     1       1.862   7.984  20.206  0.00  0.00    +0.000 A 
BRANCH   9  11
ATOM     11  N   UNL     1       0.429   9.529  21.505  0.00  0.00    +0.000 N 
ATOM     12  C   UNL     1      -0.808  10.231  21.619  0.00  0.00    +0.000 C 
ATOM     13  C   UNL     1      -1.041  10.247  23.112  0.00  0.00    +0.000 C 
ATOM     14  O   UNL     1       0.250  10.072  23.691  0.00  0.00    +0.000 OA
ATOM     15  C   UNL     1       1.072   9.523  22.739  0.00  0.00    +0.000 C 
ATOM     16  O   UNL     1       2.202   9.152  23.010  0.00  0.00    +0.000 OA
ENDBRANCH   9  11
ENDBRANCH   3   5
BRANCH   2  17
ATOM     17  C   UNL     1       3.857   4.040  19.098  0.00  0.00    +0.000 C 
BRANCH  17  18
ATOM     18  C   UNL     1       4.797   4.233  17.945  0.00  0.00    +0.000 A 
ATOM     19  C   UNL     1       4.480   3.971  16.665  0.00  0.00    +0.000 A 
ATOM     20  C   UNL     1       5.449   4.190  15.594  0.00  0.00    +0.000 A 
ATOM     21  C   UNL     1       5.148   3.892  14.262  0.00  0.00    +0.000 A 
ATOM     22  C   UNL     1       6.099   4.116  13.264  0.00  0.00    +0.000 A 
ATOM     23  C   UNL     1       7.351   4.640  13.591  0.00  0.00    +0.000 A 
ATOM     24  C   UNL     1       7.659   4.938  14.920  0.00  0.00    +0.000 A 
ATOM     25  C   UNL     1       6.709   4.708  15.915  0.00  0.00    +0.000 A 
ATOM     26  N   UNL     1       7.017   4.986  17.255  0.00  0.00    +0.000 N 
ATOM     27  C   UNL     1       6.154   4.756  18.290  0.00  0.00    +0.000 A 
ATOM     28  O   UNL     1       6.468   4.968  19.460  0.00  0.00    +0.000 OA
ATOM     29  H   UNL     1       7.928   5.347  17.500  0.00  0.00    +0.000 HD
ENDBRANCH  17  18
ENDBRANCH   2  17
TORSDOF 4
ENDMDL
MODEL 6
REMARK VINA RESULT:      -8.6      6.059      9.427
REMARK  Name = 
REMARK  4 active torsions:
REMARK  status: ('A' for Active; 'I' for Inactive)
REMARK    1  A    between atoms: C_2  and  C_3
REMARK    2  A    between atoms: C_3  and  C_4
REMARK    3  A    between atoms: N_15  and  C_16
REMARK    4  A    between atoms: C_20  and  N_21
REMARK                            x       y       z     vdW  Elec       q    Type
REMARK                         _______ _______ _______ _____ _____    ______ ____
ROOT
ATOM      1  O   UNL     1       2.317   9.145  17.377  0.00  0.00    +0.000 OA
ATOM      2  C   UNL     1       1.857   8.862  18.481  0.00  0.00    +0.000 C 
ATOM      3  N   UNL     1       1.753   7.592  19.032  0.00  0.00    +0.000 N 
ATOM      4  H   UNL     1       1.289   7.517  19.934  0.00  0.00    +0.000 HD
ENDROOT
BRANCH   3   5
ATOM      5  C   UNL     1       2.276   6.398  18.479  0.00  0.00    +0.000 A 
ATOM      6  C   UNL     1       1.471   5.291  18.207  0.00  0.00    +0.000 A 
ATOM      7  C   UNL     1       2.013   4.140  17.647  0.00  0.00    +0.000 A 
ATOM      8  C   UNL     1       3.365   4.094  17.324  0.00  0.00    +0.000 A 
ATOM      9  C   UNL     1       4.200   5.199  17.541  0.00  0.00    +0.000 A 
ATOM     10  C   UNL     1       3.646   6.342  18.149  0.00  0.00    +0.000 A 
BRANCH   9  11
ATOM     11  N   UNL     1       5.560   5.133  17.147  0.00  0.00    +0.000 N 
ATOM     12  C   UNL     1       6.615   4.613  17.955  0.00  0.00    +0.000 C 
ATOM     13  C   UNL     1       7.779   4.576  16.993  0.00  0.00    +0.000 C 
ATOM     14  O   UNL     1       7.456   5.527  15.981  0.00  0.00    +0.000 OA
ATOM     15  C   UNL     1       6.101   5.742  16.019  0.00  0.00    +0.000 C 
ATOM     16  O   UNL     1       5.540   6.418  15.172  0.00  0.00    +0.000 OA
ENDBRANCH   9  11
ENDBRANCH   3   5
BRANCH   2  17
ATOM     17  C   UNL     1       1.332   9.974  19.377  0.00  0.00    +0.000 C 
BRANCH  17  18
ATOM     18  C   UNL     1      -0.033  10.374  18.901  0.00  0.00    +0.000 A 
ATOM     19  C   UNL     1      -0.584   9.945  17.751  0.00  0.00    +0.000 A 
ATOM     20  C   UNL     1      -1.923  10.375  17.357  0.00  0.00    +0.000 A 
ATOM     21  C   UNL     1      -2.498   9.966  16.150  0.00  0.00    +0.000 A 
ATOM     22  C   UNL     1      -3.782  10.395  15.807  0.00  0.00    +0.000 A 
ATOM     23  C   UNL     1      -4.496  11.232  16.667  0.00  0.00    +0.000 A 
ATOM     24  C   UNL     1      -3.928  11.647  17.872  0.00  0.00    +0.000 A 
ATOM     25  C   UNL     1      -2.643  11.220  18.210  0.00  0.00    +0.000 A 
ATOM     26  N   UNL     1      -2.056  11.648  19.410  0.00  0.00    +0.000 N 
ATOM     27  C   UNL     1      -0.791  11.302  19.796  0.00  0.00    +0.000 A 
ATOM     28  O   UNL     1      -0.285  11.728  20.833  0.00  0.00    +0.000 OA
ATOM     29  H   UNL     1      -2.561  12.269  20.027  0.00  0.00    +0.000 HD
ENDBRANCH  17  18
ENDBRANCH   2  17
TORSDOF 4
ENDMDL
MODEL 7
REMARK VINA RESULT:      -8.5      6.112      9.471
REMARK  Name = 
REMARK  4 active torsions:
REMARK  status: ('A' for Active; 'I' for Inactive)
REMARK    1  A    between atoms: C_2  and  C_3
REMARK    2  A    between atoms: C_3  and  C_4
REMARK    3  A    between atoms: N_15  and  C_16
REMARK    4  A    between atoms: C_20  and  N_21
REMARK                            x       y       z     vdW  Elec       q    Type
REMARK                         _______ _______ _______ _____ _____    ______ ____
ROOT
ATOM      1  O   UNL     1       1.930   8.444  17.848  0.00  0.00    +0.000 OA
ATOM      2  C   UNL     1       1.820   8.511  19.071  0.00  0.00    +0.000 C 
ATOM      3  N   UNL     1       2.036   7.482  19.977  0.00  0.00    +0.000 N 
ATOM      4  H   UNL     1       1.842   7.680  20.955  0.00  0.00    +0.000 HD
ENDROOT
BRANCH   3   5
ATOM      5  C   UNL     1       2.550   6.197  19.673  0.00  0.00    +0.000 A 
ATOM      6  C   UNL     1       1.874   5.026  20.020  0.00  0.00    +0.000 A 
ATOM      7  C   UNL     1       2.397   3.781  19.690  0.00  0.00    +0.000 A 
ATOM      8  C   UNL     1       3.590   3.694  18.982  0.00  0.00    +0.000 A 
ATOM      9  C   UNL     1       4.278   4.845  18.576  0.00  0.00    +0.000 A 
ATOM     10  C   UNL     1       3.759   6.099  18.954  0.00  0.00    +0.000 A 
BRANCH   9  11
ATOM     11  N   UNL     1       5.462   4.716  17.807  0.00  0.00    +0.000 N 
ATOM     12  C   UNL     1       5.514   4.193  16.480  0.00  0.00    +0.000 C 
ATOM     13  C   UNL     1       6.938   4.485  16.068  0.00  0.00    +0.000 C 
ATOM     14  O   UNL     1       7.660   4.617  17.290  0.00  0.00    +0.000 OA
ATOM     15  C   UNL     1       6.757   4.880  18.289  0.00  0.00    +0.000 C 
ATOM     16  O   UNL     1       7.122   5.165  19.418  0.00  0.00    +0.000 OA
ENDBRANCH   9  11
ENDBRANCH   3   5
BRANCH   2  17
ATOM     17  C   UNL     1       1.407   9.828  19.711  0.00  0.00    +0.000 C 
BRANCH  17  18
ATOM     18  C   UNL     1       0.074  10.236  19.158  0.00  0.00    +0.000 A 
ATOM     19  C   UNL     1      -0.414   9.810  17.979  0.00  0.00    +0.000 A 
ATOM     20  C   UNL     1      -1.725  10.249  17.508  0.00  0.00    +0.000 A 
ATOM     21  C   UNL     1      -2.233   9.843  16.271  0.00  0.00    +0.000 A 
ATOM     22  C   UNL     1      -3.492  10.280  15.855  0.00  0.00    +0.000 A 
ATOM     23  C   UNL     1      -4.249  11.122  16.672  0.00  0.00    +0.000 A 
ATOM     24  C   UNL     1      -3.747  11.534  17.908  0.00  0.00    +0.000 A 
ATOM     25  C   UNL     1      -2.487  11.100  18.319  0.00  0.00    +0.000 A 
ATOM     26  N   UNL     1      -1.966  11.524  19.550  0.00  0.00    +0.000 N 
ATOM     27  C   UNL     1      -0.727  11.170  20.008  0.00  0.00    +0.000 A 
ATOM     28  O   UNL     1      -0.279  11.593  21.072  0.00  0.00    +0.000 OA
ATOM     29  H   UNL     1      -2.501  12.148  20.137  0.00  0.00    +0.000 HD
ENDBRANCH  17  18
ENDBRANCH   2  17
TORSDOF 4
ENDMDL
MODEL 8
REMARK VINA RESULT:      -8.4      7.532      9.760
REMARK  Name = 
REMARK  4 active torsions:
REMARK  status: ('A' for Active; 'I' for Inactive)
REMARK    1  A    between atoms: C_2  and  C_3
REMARK    2  A    between atoms: C_3  and  C_4
REMARK    3  A    between atoms: N_15  and  C_16
REMARK    4  A    between atoms: C_20  and  N_21
REMARK                            x       y       z     vdW  Elec       q    Type
REMARK                         _______ _______ _______ _____ _____    ______ ____
ROOT
ATOM      1  O   UNL     1      -0.551   8.387  21.545  0.00  0.00    +0.000 OA
ATOM      2  C   UNL     1       0.370   8.776  20.828  0.00  0.00    +0.000 C 
ATOM      3  N   UNL     1       0.284   9.718  19.813  0.00  0.00    +0.000 N 
ATOM      4  H   UNL     1       1.126   9.887  19.268  0.00  0.00    +0.000 HD
ENDROOT
BRANCH   3   5
ATOM      5  C   UNL     1      -0.852  10.503  19.497  0.00  0.00    +0.000 A 
ATOM      6  C   UNL     1      -1.674  10.214  18.406  0.00  0.00    +0.000 A 
ATOM      7  C   UNL     1      -2.792  10.994  18.134  0.00  0.00    +0.000 A 
ATOM      8  C   UNL     1      -3.118  12.056  18.970  0.00  0.00    +0.000 A 
ATOM      9  C   UNL     1      -2.344  12.354  20.099  0.00  0.00    +0.000 A 
ATOM     10  C   UNL     1      -1.190  11.583  20.338  0.00  0.00    +0.000 A 
BRANCH   9  11
ATOM     11  N   UNL     1      -2.741  13.410  20.958  0.00  0.00    +0.000 N 
ATOM     12  C   UNL     1      -2.142  14.705  20.981  0.00  0.00    +0.000 C 
ATOM     13  C   UNL     1      -3.069  15.479  21.890  0.00  0.00    +0.000 C 
ATOM     14  O   UNL     1      -3.725  14.492  22.681  0.00  0.00    +0.000 OA
ATOM     15  C   UNL     1      -3.618  13.288  22.031  0.00  0.00    +0.000 C 
ATOM     16  O   UNL     1      -4.205  12.295  22.430  0.00  0.00    +0.000 OA
ENDBRANCH   9  11
ENDBRANCH   3   5
BRANCH   2  17
ATOM     17  C   UNL     1       1.764   8.201  21.029  0.00  0.00    +0.000 C 
BRANCH  17  18
ATOM     18  C   UNL     1       1.894   6.951  20.211  0.00  0.00    +0.000 A 
ATOM     19  C   UNL     1       1.597   5.720  20.666  0.00  0.00    +0.000 A 
ATOM     20  C   UNL     1       1.744   4.549  19.806  0.00  0.00    +0.000 A 
ATOM     21  C   UNL     1       1.473   3.260  20.272  0.00  0.00    +0.000 A 
ATOM     22  C   UNL     1       1.622   2.163  19.420  0.00  0.00    +0.000 A 
ATOM     23  C   UNL     1       2.040   2.349  18.101  0.00  0.00    +0.000 A 
ATOM     24  C   UNL     1       2.316   3.634  17.629  0.00  0.00    +0.000 A 
ATOM     25  C   UNL     1       2.171   4.727  18.484  0.00  0.00    +0.000 A 
ATOM     26  N   UNL     1       2.464   6.019  18.024  0.00  0.00    +0.000 N 
ATOM     27  C   UNL     1       2.380   7.136  18.809  0.00  0.00    +0.000 A 
ATOM     28  O   UNL     1       2.685   8.252  18.391  0.00  0.00    +0.000 OA
ATOM     29  H   UNL     1       2.785   6.159  17.077  0.00  0.00    +0.000 HD
ENDBRANCH  17  18
ENDBRANCH   2  17
TORSDOF 4
ENDMDL
MODEL 9
REMARK VINA RESULT:      -8.4      6.234      8.356
REMARK  Name = 
REMARK  4 active torsions:
REMARK  status: ('A' for Active; 'I' for Inactive)
REMARK    1  A    between atoms: C_2  and  C_3
REMARK    2  A    between atoms: C_3  and  C_4
REMARK    3  A    between atoms: N_15  and  C_16
REMARK    4  A    between atoms: C_20  and  N_21
REMARK                            x       y       z     vdW  Elec       q    Type
REMARK                         _______ _______ _______ _____ _____    ______ ____
ROOT
ATOM      1  O   UNL     1       1.742   8.392  19.666  0.00  0.00    +0.000 OA
ATOM      2  C   UNL     1       1.877   8.752  18.498  0.00  0.00    +0.000 C 
ATOM      3  N   UNL     1       1.037   9.603  17.794  0.00  0.00    +0.000 N 
ATOM      4  H   UNL     1       1.253   9.756  16.812  0.00  0.00    +0.000 HD
ENDROOT
BRANCH   3   5
ATOM      5  C   UNL     1      -0.063  10.319  18.328  0.00  0.00    +0.000 A 
ATOM      6  C   UNL     1      -1.350  10.201  17.801  0.00  0.00    +0.000 A 
ATOM      7  C   UNL     1      -2.412  10.903  18.360  0.00  0.00    +0.000 A 
ATOM      8  C   UNL     1      -2.202  11.710  19.473  0.00  0.00    +0.000 A 
ATOM      9  C   UNL     1      -0.934  11.822  20.059  0.00  0.00    +0.000 A 
ATOM     10  C   UNL     1       0.140  11.139  19.456  0.00  0.00    +0.000 A 
BRANCH   9  11
ATOM     11  N   UNL     1      -0.772  12.610  21.226  0.00  0.00    +0.000 N 
ATOM     12  C   UNL     1      -0.304  13.958  21.237  0.00  0.00    +0.000 C 
ATOM     13  C   UNL     1      -0.533  14.375  22.671  0.00  0.00    +0.000 C 
ATOM     14  O   UNL     1      -0.574  13.157  23.410  0.00  0.00    +0.000 OA
ATOM     15  C   UNL     1      -0.844  12.137  22.533  0.00  0.00    +0.000 C 
ATOM     16  O   UNL     1      -1.061  11.001  22.924  0.00  0.00    +0.000 OA
ENDBRANCH   9  11
ENDBRANCH   3   5
BRANCH   2  17
ATOM     17  C   UNL     1       3.066   8.245  17.695  0.00  0.00    +0.000 C 
BRANCH  17  18
ATOM     18  C   UNL     1       3.155   6.756  17.852  0.00  0.00    +0.000 A 
ATOM     19  C   UNL     1       2.103   5.965  18.127  0.00  0.00    +0.000 A 
ATOM     20  C   UNL     1       2.268   4.519  18.261  0.00  0.00    +0.000 A 
ATOM     21  C   UNL     1       1.192   3.686  18.579  0.00  0.00    +0.000 A 
ATOM     22  C   UNL     1       1.386   2.308  18.696  0.00  0.00    +0.000 A 
ATOM     23  C   UNL     1       2.653   1.757  18.494  0.00  0.00    +0.000 A 
ATOM     24  C   UNL     1       3.733   2.584  18.178  0.00  0.00    +0.000 A 
ATOM     25  C   UNL     1       3.537   3.961  18.067  0.00  0.00    +0.000 A 
ATOM     26  N   UNL     1       4.620   4.801  17.769  0.00  0.00    +0.000 N 
ATOM     27  C   UNL     1       4.516   6.161  17.678  0.00  0.00    +0.000 A 
ATOM     28  O   UNL     1       5.492   6.877  17.458  0.00  0.00    +0.000 OA
ATOM     29  H   UNL     1       5.543   4.411  17.641  0.00  0.00    +0.000 HD
ENDBRANCH  17  18
ENDBRANCH   2  17
TORSDOF 4
ENDMDL
