MODEL 1
REMARK VINA RESULT:      -7.8      0.000      0.000
REMARK  Name = 
REMARK  5 active torsions:
REMARK  status: ('A' for Active; 'I' for Inactive)
REMARK    1  A    between atoms: C_1  and  C_2
REMARK    2  A    between atoms: C_4  and  C_5
REMARK    3  A    between atoms: C_17  and  N_18
REMARK    4  A    between atoms: C_19  and  C_21
REMARK    5  A    between atoms: C_25  and  C_26
REMARK                            x       y       z     vdW  Elec       q    Type
REMARK                         _______ _______ _______ _____ _____    ______ ____
ROOT
ATOM      1  C   UNL     1       0.321   8.769  21.783  0.00  0.00    +0.000 C 
ATOM      2  C   UNL     1       0.895   9.084  20.428  0.00  0.00    +0.000 A 
ATOM      3  C   UNL     1       1.725   8.104  19.830  0.00  0.00    +0.000 A 
ATOM      4  C   UNL     1       2.272   8.271  18.550  0.00  0.00    +0.000 A 
ATOM      5  C   UNL     1       2.040   9.476  17.894  0.00  0.00    +0.000 A 
ATOM      6  C   UNL     1       1.227  10.450  18.468  0.00  0.00    +0.000 A 
ATOM      7  C   UNL     1       0.619  10.273  19.721  0.00  0.00    +0.000 A 
ENDROOT
BRANCH   4   8
ATOM      8  C   UNL     1       3.029   7.186  17.914  0.00  0.00    +0.000 A 
ATOM      9  N   UNL     1       4.115   7.349  17.187  0.00  0.00    +0.000 NA
ATOM     10  C   UNL     1       4.640   6.117  16.830  0.00  0.00    +0.000 A 
ATOM     11  C   UNL     1       5.802   5.906  16.068  0.00  0.00    +0.000 A 
ATOM     12  C   UNL     1       6.220   4.600  15.826  0.00  0.00    +0.000 A 
ATOM     13  F   UNL     1       7.334   4.395  15.110  0.00  0.00    +0.000 F 
ATOM     14  C   UNL     1       5.518   3.504  16.311  0.00  0.00    +0.000 A 
ATOM     15  C   UNL     1       4.354   3.689  17.057  0.00  0.00    +0.000 A 
ATOM     16  C   UNL     1       3.937   5.008  17.303  0.00  0.00    +0.000 A 
ATOM     17  S   UNL     1       2.574   5.545  18.188  0.00  0.00    +0.000 S 
ENDBRANCH   4   8
BRANCH   7  18
ATOM     18  N   UNL     1      -0.235  11.274  20.262  0.00  0.00    +0.000 N 
ATOM     19  C   UNL     1       0.178  12.362  21.029  0.00  0.00    +0.000 C 
ATOM     20  O   UNL     1       1.344  12.672  21.254  0.00  0.00    +0.000 OA
ATOM     21  H   UNL     1      -1.233  11.206  20.094  0.00  0.00    +0.000 HD
BRANCH  19  22
ATOM     22  C   UNL     1      -0.894  13.173  21.616  0.00  0.00    +0.000 A 
ATOM     23  N   UNL     1      -1.143  14.441  21.245  0.00  0.00    +0.000 NA
ATOM     24  O   UNL     1      -2.232  14.845  22.003  0.00  0.00    +0.000 OA
ATOM     25  C   UNL     1      -2.632  13.830  22.807  0.00  0.00    +0.000 A 
ATOM     26  C   UNL     1      -1.815  12.743  22.626  0.00  0.00    +0.000 A 
ATOM     27  C   UNL     1      -1.883  11.419  23.293  0.00  0.00    +0.000 C 
ENDBRANCH  19  22
ENDBRANCH   7  18
TORSDOF 3
ENDMDL
MODEL 2
REMARK VINA RESULT:      -7.7      4.469      9.732
REMARK  Name = 
REMARK  5 active torsions:
REMARK  status: ('A' for Active; 'I' for Inactive)
REMARK    1  A    between atoms: C_1  and  C_2
REMARK    2  A    between atoms: C_4  and  C_5
REMARK    3  A    between atoms: C_17  and  N_18
REMARK    4  A    between atoms: C_19  and  C_21
REMARK    5  A    between atoms: C_25  and  C_26
REMARK                            x       y       z     vdW  Elec       q    Type
REMARK                         _______ _______ _______ _____ _____    ______ ____
ROOT
ATOM      1  C   UNL     1       2.877   5.468  20.157  0.00  0.00    +0.000 C 
ATOM      2  C   UNL     1       2.502   6.775  19.513  0.00  0.00    +0.000 A 
ATOM      3  C   UNL     1       1.763   7.696  20.296  0.00  0.00    +0.000 A 
ATOM      4  C   UNL     1       1.405   8.964  19.814  0.00  0.00    +0.000 A 
ATOM      5  C   UNL     1       1.733   9.278  18.500  0.00  0.00    +0.000 A 
ATOM      6  C   UNL     1       2.459   8.384  17.717  0.00  0.00    +0.000 A 
ATOM      7  C   UNL     1       2.882   7.137  18.203  0.00  0.00    +0.000 A 
ENDROOT
BRANCH   4   8
ATOM      8  C   UNL     1       0.742   9.936  20.692  0.00  0.00    +0.000 A 
ATOM      9  N   UNL     1       0.867  11.244  20.600  0.00  0.00    +0.000 NA
ATOM     10  C   UNL     1       0.026  11.869  21.506  0.00  0.00    +0.000 A 
ATOM     11  C   UNL     1      -0.116  13.257  21.677  0.00  0.00    +0.000 A 
ATOM     12  C   UNL     1      -1.037  13.729  22.609  0.00  0.00    +0.000 A 
ATOM     13  F   UNL     1      -1.183  15.052  22.766  0.00  0.00    +0.000 F 
ATOM     14  C   UNL     1      -1.811  12.869  23.376  0.00  0.00    +0.000 A 
ATOM     15  C   UNL     1      -1.677  11.488  23.233  0.00  0.00    +0.000 A 
ATOM     16  C   UNL     1      -0.751  11.013  22.290  0.00  0.00    +0.000 A 
ATOM     17  S   UNL     1      -0.378   9.393  21.885  0.00  0.00    +0.000 S 
ENDBRANCH   4   8
BRANCH   7  18
ATOM     18  N   UNL     1       3.653   6.263  17.389  0.00  0.00    +0.000 N 
ATOM     19  C   UNL     1       4.983   6.460  17.021  0.00  0.00    +0.000 C 
ATOM     20  O   UNL     1       5.709   7.359  17.437  0.00  0.00    +0.000 OA
ATOM     21  H   UNL     1       3.216   5.421  17.029  0.00  0.00    +0.000 HD
BRANCH  19  22
ATOM     22  C   UNL     1       5.523   5.511  16.043  0.00  0.00    +0.000 A 
ATOM     23  N   UNL     1       6.344   5.875  15.043  0.00  0.00    +0.000 NA
ATOM     24  O   UNL     1       6.648   4.704  14.364  0.00  0.00    +0.000 OA
ATOM     25  C   UNL     1       6.025   3.657  14.957  0.00  0.00    +0.000 A 
ATOM     26  C   UNL     1       5.279   4.099  16.019  0.00  0.00    +0.000 A 
ATOM     27  C   UNL     1       4.439   3.304  16.949  0.00  0.00    +0.000 C 
ENDBRANCH  19  22
ENDBRANCH   7  18
TORSDOF 3
ENDMDL
MODEL 3
REMARK VINA RESULT:      -7.6      0.983      1.259
REMARK  Name = 
REMARK  5 active torsions:
REMARK  status: ('A' for Active; 'I' for Inactive)
REMARK    1  A    between atoms: C_1  and  C_2
REMARK    2  A    between atoms: C_4  and  C_5
REMARK    3  A    between atoms: C_17  and  N_18
REMARK    4  A    between atoms: C_19  and  C_21
REMARK    5  A    between atoms: C_25  and  C_26
REMARK                            x       y       z     vdW  Elec       q    Type
REMARK                         _______ _______ _______ _____ _____    ______ ____
ROOT
ATOM      1  C   UNL     1       0.823   8.826  22.271  0.00  0.00    +0.000 C 
ATOM      2  C   UNL     1       0.997   9.013  20.788  0.00  0.00    +0.000 A 
ATOM      3  C   UNL     1       1.863   8.116  20.117  0.00  0.00    +0.000 A 
ATOM      4  C   UNL     1       2.060   8.167  18.730  0.00  0.00    +0.000 A 
ATOM      5  C   UNL     1       1.431   9.184  18.020  0.00  0.00    +0.000 A 
ATOM      6  C   UNL     1       0.576  10.074  18.664  0.00  0.00    +0.000 A 
ATOM      7  C   UNL     1       0.317   9.999  20.042  0.00  0.00    +0.000 A 
ENDROOT
BRANCH   4   8
ATOM      8  C   UNL     1       2.872   7.148  18.052  0.00  0.00    +0.000 A 
ATOM      9  N   UNL     1       3.956   7.394  17.346  0.00  0.00    +0.000 NA
ATOM     10  C   UNL     1       4.539   6.206  16.939  0.00  0.00    +0.000 A 
ATOM     11  C   UNL     1       5.717   6.084  16.180  0.00  0.00    +0.000 A 
ATOM     12  C   UNL     1       6.197   4.811  15.883  0.00  0.00    +0.000 A 
ATOM     13  F   UNL     1       7.326   4.691  15.171  0.00  0.00    +0.000 F 
ATOM     14  C   UNL     1       5.542   3.663  16.308  0.00  0.00    +0.000 A 
ATOM     15  C   UNL     1       4.364   3.760  17.050  0.00  0.00    +0.000 A 
ATOM     16  C   UNL     1       3.884   5.045  17.352  0.00  0.00    +0.000 A 
ATOM     17  S   UNL     1       2.490   5.478  18.245  0.00  0.00    +0.000 S 
ENDBRANCH   4   8
BRANCH   7  18
ATOM     18  N   UNL     1      -0.589  10.902  20.662  0.00  0.00    +0.000 N 
ATOM     19  C   UNL     1      -0.232  12.034  21.393  0.00  0.00    +0.000 C 
ATOM     20  O   UNL     1       0.909  12.472  21.513  0.00  0.00    +0.000 OA
ATOM     21  H   UNL     1      -1.585  10.723  20.584  0.00  0.00    +0.000 HD
BRANCH  19  22
ATOM     22  C   UNL     1      -1.329  12.725  22.078  0.00  0.00    +0.000 A 
ATOM     23  N   UNL     1      -1.976  12.207  23.136  0.00  0.00    +0.000 NA
ATOM     24  O   UNL     1      -2.913  13.161  23.505  0.00  0.00    +0.000 OA
ATOM     25  C   UNL     1      -2.819  14.236  22.684  0.00  0.00    +0.000 A 
ATOM     26  C   UNL     1      -1.846  14.019  21.743  0.00  0.00    +0.000 A 
ATOM     27  C   UNL     1      -1.403  14.922  20.651  0.00  0.00    +0.000 C 
ENDBRANCH  19  22
ENDBRANCH   7  18
TORSDOF 3
ENDMDL
MODEL 4
REMARK VINA RESULT:      -7.5      4.583      9.813
REMARK  Name = 
REMARK  5 active torsions:
REMARK  status: ('A' for Active; 'I' for Inactive)
REMARK    1  A    between atoms: C_1  and  C_2
REMARK    2  A    between atoms: C_4  and  C_5
REMARK    3  A    between atoms: C_17  and  N_18
REMARK    4  A    between atoms: C_19  and  C_21
REMARK    5  A    between atoms: C_25  and  C_26
REMARK                            x       y       z     vdW  Elec       q    Type
REMARK                         _______ _______ _______ _____ _____    ______ ____
ROOT
ATOM      1  C   UNL     1       2.412   5.977  20.287  0.00  0.00    +0.000 C 
ATOM      2  C   UNL     1       2.134   7.253  19.539  0.00  0.00    +0.000 A 
ATOM      3  C   UNL     1       1.411   8.262  20.222  0.00  0.00    +0.000 A 
ATOM      4  C   UNL     1       1.140   9.508  19.639  0.00  0.00    +0.000 A 
ATOM      5  C   UNL     1       1.539   9.712  18.323  0.00  0.00    +0.000 A 
ATOM      6  C   UNL     1       2.250   8.731  17.637  0.00  0.00    +0.000 A 
ATOM      7  C   UNL     1       2.586   7.502  18.226  0.00  0.00    +0.000 A 
ENDROOT
BRANCH   4   8
ATOM      8  C   UNL     1       0.492  10.572  20.418  0.00  0.00    +0.000 A 
ATOM      9  N   UNL     1      -0.542  10.401  21.214  0.00  0.00    +0.000 NA
ATOM     10  C   UNL     1      -0.833  11.580  21.878  0.00  0.00    +0.000 A 
ATOM     11  C   UNL     1      -1.863  11.765  22.817  0.00  0.00    +0.000 A 
ATOM     12  C   UNL     1      -2.003  13.009  23.427  0.00  0.00    +0.000 A 
ATOM     13  F   UNL     1      -2.976  13.185  24.332  0.00  0.00    +0.000 F 
ATOM     14  C   UNL     1      -1.158  14.070  23.129  0.00  0.00    +0.000 A 
ATOM     15  C   UNL     1      -0.139  13.915  22.190  0.00  0.00    +0.000 A 
ATOM     16  C   UNL     1       0.003  12.658  21.579  0.00  0.00    +0.000 A 
ATOM     17  S   UNL     1       1.154  12.164  20.413  0.00  0.00    +0.000 S 
ENDBRANCH   4   8
BRANCH   7  18
ATOM     18  N   UNL     1       3.344   6.536  17.510  0.00  0.00    +0.000 N 
ATOM     19  C   UNL     1       4.701   6.634  17.205  0.00  0.00    +0.000 C 
ATOM     20  O   UNL     1       5.457   7.514  17.606  0.00  0.00    +0.000 OA
ATOM     21  H   UNL     1       2.877   5.699  17.176  0.00  0.00    +0.000 HD
BRANCH  19  22
ATOM     22  C   UNL     1       5.234   5.596  16.316  0.00  0.00    +0.000 A 
ATOM     23  N   UNL     1       5.950   5.870  15.213  0.00  0.00    +0.000 NA
ATOM     24  O   UNL     1       6.284   4.639  14.669  0.00  0.00    +0.000 OA
ATOM     25  C   UNL     1       5.783   3.645  15.442  0.00  0.00    +0.000 A 
ATOM     26  C   UNL     1       5.089   4.181  16.496  0.00  0.00    +0.000 A 
ATOM     27  C   UNL     1       4.378   3.470  17.588  0.00  0.00    +0.000 C 
ENDBRANCH  19  22
ENDBRANCH   7  18
TORSDOF 3
ENDMDL
MODEL 5
REMARK VINA RESULT:      -7.5      1.860      2.339
REMARK  Name = 
REMARK  5 active torsions:
REMARK  status: ('A' for Active; 'I' for Inactive)
REMARK    1  A    between atoms: C_1  and  C_2
REMARK    2  A    between atoms: C_4  and  C_5
REMARK    3  A    between atoms: C_17  and  N_18
REMARK    4  A    between atoms: C_19  and  C_21
REMARK    5  A    between atoms: C_25  and  C_26
REMARK                            x       y       z     vdW  Elec       q    Type
REMARK                         _______ _______ _______ _____ _____    ______ ____
ROOT
ATOM      1  C   UNL     1      -0.419   9.696  23.016  0.00  0.00    +0.000 C 
ATOM      2  C   UNL     1       0.087   9.730  21.600  0.00  0.00    +0.000 A 
ATOM      3  C   UNL     1       0.932   8.671  21.187  0.00  0.00    +0.000 A 
ATOM      4  C   UNL     1       1.420   8.575  19.875  0.00  0.00    +0.000 A 
ATOM      5  C   UNL     1       1.111   9.601  18.989  0.00  0.00    +0.000 A 
ATOM      6  C   UNL     1       0.281  10.649  19.379  0.00  0.00    +0.000 A 
ATOM      7  C   UNL     1      -0.269  10.728  20.668  0.00  0.00    +0.000 A 
ENDROOT
BRANCH   4   8
ATOM      8  C   UNL     1       2.197   7.403  19.451  0.00  0.00    +0.000 A 
ATOM      9  N   UNL     1       2.252   6.259  20.101  0.00  0.00    +0.000 NA
ATOM     10  C   UNL     1       2.982   5.333  19.375  0.00  0.00    +0.000 A 
ATOM     11  C   UNL     1       3.235   4.003  19.754  0.00  0.00    +0.000 A 
ATOM     12  C   UNL     1       3.958   3.183  18.891  0.00  0.00    +0.000 A 
ATOM     13  F   UNL     1       4.191   1.912  19.244  0.00  0.00    +0.000 F 
ATOM     14  C   UNL     1       4.441   3.646  17.674  0.00  0.00    +0.000 A 
ATOM     15  C   UNL     1       4.215   4.965  17.284  0.00  0.00    +0.000 A 
ATOM     16  C   UNL     1       3.481   5.789  18.154  0.00  0.00    +0.000 A 
ATOM     17  S   UNL     1       3.037   7.428  17.946  0.00  0.00    +0.000 S 
ENDBRANCH   4   8
BRANCH   7  18
ATOM     18  N   UNL     1      -1.141  11.793  21.022  0.00  0.00    +0.000 N 
ATOM     19  C   UNL     1      -0.778  12.936  21.732  0.00  0.00    +0.000 C 
ATOM     20  O   UNL     1       0.367  13.237  22.057  0.00  0.00    +0.000 OA
ATOM     21  H   UNL     1      -2.117  11.734  20.751  0.00  0.00    +0.000 HD
BRANCH  19  22
ATOM     22  C   UNL     1      -1.879  13.822  22.125  0.00  0.00    +0.000 A 
ATOM     23  N   UNL     1      -2.004  15.082  21.674  0.00  0.00    +0.000 NA
ATOM     24  O   UNL     1      -3.169  15.570  22.248  0.00  0.00    +0.000 OA
ATOM     25  C   UNL     1      -3.735  14.612  23.022  0.00  0.00    +0.000 A 
ATOM     26  C   UNL     1      -2.959  13.481  23.004  0.00  0.00    +0.000 A 
ATOM     27  C   UNL     1      -3.193  12.193  23.702  0.00  0.00    +0.000 C 
ENDBRANCH  19  22
ENDBRANCH   7  18
TORSDOF 3
ENDMDL
MODEL 6
REMARK VINA RESULT:      -7.5      1.335      1.345
REMARK  Name = 
REMARK  5 active torsions:
REMARK  status: ('A' for Active; 'I' for Inactive)
REMARK    1  A    between atoms: C_1  and  C_2
REMARK    2  A    between atoms: C_4  and  C_5
REMARK    3  A    between atoms: C_17  and  N_18
REMARK    4  A    between atoms: C_19  and  C_21
REMARK    5  A    between atoms: C_25  and  C_26
REMARK                            x       y       z     vdW  Elec       q    Type
REMARK                         _______ _______ _______ _____ _____    ______ ____
ROOT
ATOM      1  C   UNL     1       0.451   8.804  21.882  0.00  0.00    +0.000 C 
ATOM      2  C   UNL     1       0.806   8.910  20.424  0.00  0.00    +0.000 A 
ATOM      3  C   UNL     1       1.877   8.108  19.957  0.00  0.00    +0.000 A 
ATOM      4  C   UNL     1       2.260   8.090  18.608  0.00  0.00    +0.000 A 
ATOM      5  C   UNL     1       1.603   8.947  17.732  0.00  0.00    +0.000 A 
ATOM      6  C   UNL     1       0.549   9.742  18.175  0.00  0.00    +0.000 A 
ATOM      7  C   UNL     1       0.109   9.726  19.508  0.00  0.00    +0.000 A 
ENDROOT
BRANCH   4   8
ATOM      8  C   UNL     1       3.295   7.160  18.138  0.00  0.00    +0.000 A 
ATOM      9  N   UNL     1       3.861   7.199  16.950  0.00  0.00    +0.000 NA
ATOM     10  C   UNL     1       4.870   6.253  16.871  0.00  0.00    +0.000 A 
ATOM     11  C   UNL     1       5.697   6.021  15.758  0.00  0.00    +0.000 A 
ATOM     12  C   UNL     1       6.695   5.054  15.852  0.00  0.00    +0.000 A 
ATOM     13  F   UNL     1       7.493   4.839  14.797  0.00  0.00    +0.000 F 
ATOM     14  C   UNL     1       6.889   4.311  17.008  0.00  0.00    +0.000 A 
ATOM     15  C   UNL     1       6.072   4.514  18.120  0.00  0.00    +0.000 A 
ATOM     16  C   UNL     1       5.069   5.492  18.025  0.00  0.00    +0.000 A 
ATOM     17  S   UNL     1       3.933   5.971  19.212  0.00  0.00    +0.000 S 
ENDBRANCH   4   8
BRANCH   7  18
ATOM     18  N   UNL     1      -0.993  10.523  19.919  0.00  0.00    +0.000 N 
ATOM     19  C   UNL     1      -0.960  11.899  20.144  0.00  0.00    +0.000 C 
ATOM     20  O   UNL     1      -0.003  12.633  19.913  0.00  0.00    +0.000 OA
ATOM     21  H   UNL     1      -1.889  10.074  20.075  0.00  0.00    +0.000 HD
BRANCH  19  22
ATOM     22  C   UNL     1      -2.175  12.483  20.720  0.00  0.00    +0.000 A 
ATOM     23  N   UNL     1      -3.268  12.769  19.993  0.00  0.00    +0.000 NA
ATOM     24  O   UNL     1      -4.194  13.275  20.893  0.00  0.00    +0.000 OA
ATOM     25  C   UNL     1      -3.664  13.280  22.141  0.00  0.00    +0.000 A 
ATOM     26  C   UNL     1      -2.378  12.807  22.102  0.00  0.00    +0.000 A 
ATOM     27  C   UNL     1      -1.425  12.637  23.226  0.00  0.00    +0.000 C 
ENDBRANCH  19  22
ENDBRANCH   7  18
TORSDOF 3
ENDMDL
MODEL 7
REMARK VINA RESULT:      -7.5      4.517      9.800
REMARK  Name = 
REMARK  5 active torsions:
REMARK  status: ('A' for Active; 'I' for Inactive)
REMARK    1  A    between atoms: C_1  and  C_2
REMARK    2  A    between atoms: C_4  and  C_5
REMARK    3  A    between atoms: C_17  and  N_18
REMARK    4  A    between atoms: C_19  and  C_21
REMARK    5  A    between atoms: C_25  and  C_26
REMARK                            x       y       z     vdW  Elec       q    Type
REMARK                         _______ _______ _______ _____ _____    ______ ____
ROOT
ATOM      1  C   UNL     1       2.724   5.445  20.204  0.00  0.00    +0.000 C 
ATOM      2  C   UNL     1       2.408   6.738  19.502  0.00  0.00    +0.000 A 
ATOM      3  C   UNL     1       1.566   7.655  20.176  0.00  0.00    +0.000 A 
ATOM      4  C   UNL     1       1.247   8.910  19.636  0.00  0.00    +0.000 A 
ATOM      5  C   UNL     1       1.725   9.213  18.366  0.00  0.00    +0.000 A 
ATOM      6  C   UNL     1       2.554   8.322  17.690  0.00  0.00    +0.000 A 
ATOM      7  C   UNL     1       2.936   7.089  18.241  0.00  0.00    +0.000 A 
ENDROOT
BRANCH   4   8
ATOM      8  C   UNL     1       0.468   9.882  20.415  0.00  0.00    +0.000 A 
ATOM      9  N   UNL     1      -0.127  10.944  19.915  0.00  0.00    +0.000 NA
ATOM     10  C   UNL     1      -0.864  11.584  20.898  0.00  0.00    +0.000 A 
ATOM     11  C   UNL     1      -1.641  12.743  20.723  0.00  0.00    +0.000 A 
ATOM     12  C   UNL     1      -2.356  13.244  21.807  0.00  0.00    +0.000 A 
ATOM     13  F   UNL     1      -3.107  14.341  21.640  0.00  0.00    +0.000 F 
ATOM     14  C   UNL     1      -2.318  12.635  23.055  0.00  0.00    +0.000 A 
ATOM     15  C   UNL     1      -1.543  11.493  23.256  0.00  0.00    +0.000 A 
ATOM     16  C   UNL     1      -0.826  10.987  22.159  0.00  0.00    +0.000 A 
ATOM     17  S   UNL     1       0.188   9.610  22.094  0.00  0.00    +0.000 S 
ENDBRANCH   4   8
BRANCH   7  18
ATOM     18  N   UNL     1       3.813   6.219  17.538  0.00  0.00    +0.000 N 
ATOM     19  C   UNL     1       5.087   6.549  17.080  0.00  0.00    +0.000 C 
ATOM     20  O   UNL     1       5.675   7.601  17.313  0.00  0.00    +0.000 OA
ATOM     21  H   UNL     1       3.504   5.274  17.336  0.00  0.00    +0.000 HD
BRANCH  19  22
ATOM     22  C   UNL     1       5.745   5.545  16.237  0.00  0.00    +0.000 A 
ATOM     23  N   UNL     1       5.344   5.260  14.987  0.00  0.00    +0.000 NA
ATOM     24  O   UNL     1       6.223   4.290  14.525  0.00  0.00    +0.000 OA
ATOM     25  C   UNL     1       7.139   4.009  15.483  0.00  0.00    +0.000 A 
ATOM     26  C   UNL     1       6.884   4.757  16.604  0.00  0.00    +0.000 A 
ATOM     27  C   UNL     1       7.629   4.774  17.888  0.00  0.00    +0.000 C 
ENDBRANCH  19  22
ENDBRANCH   7  18
TORSDOF 3
ENDMDL
MODEL 8
REMARK VINA RESULT:      -7.4      1.441      1.675
REMARK  Name = 
REMARK  5 active torsions:
REMARK  status: ('A' for Active; 'I' for Inactive)
REMARK    1  A    between atoms: C_1  and  C_2
REMARK    2  A    between atoms: C_4  and  C_5
REMARK    3  A    between atoms: C_17  and  N_18
REMARK    4  A    between atoms: C_19  and  C_21
REMARK    5  A    between atoms: C_25  and  C_26
REMARK                            x       y       z     vdW  Elec       q    Type
REMARK                         _______ _______ _______ _____ _____    ______ ____
ROOT
ATOM      1  C   UNL     1       0.509   8.802  22.001  0.00  0.00    +0.000 C 
ATOM      2  C   UNL     1       0.955   9.089  20.592  0.00  0.00    +0.000 A 
ATOM      3  C   UNL     1       1.785   8.128  19.966  0.00  0.00    +0.000 A 
ATOM      4  C   UNL     1       2.218   8.268  18.639  0.00  0.00    +0.000 A 
ATOM      5  C   UNL     1       1.868   9.429  17.960  0.00  0.00    +0.000 A 
ATOM      6  C   UNL     1       1.052  10.384  18.561  0.00  0.00    +0.000 A 
ATOM      7  C   UNL     1       0.557  10.231  19.866  0.00  0.00    +0.000 A 
ENDROOT
BRANCH   4   8
ATOM      8  C   UNL     1       2.979   7.196  17.985  0.00  0.00    +0.000 A 
ATOM      9  N   UNL     1       4.091   7.370  17.301  0.00  0.00    +0.000 NA
ATOM     10  C   UNL     1       4.609   6.146  16.913  0.00  0.00    +0.000 A 
ATOM     11  C   UNL     1       5.793   5.946  16.181  0.00  0.00    +0.000 A 
ATOM     12  C   UNL     1       6.199   4.644  15.900  0.00  0.00    +0.000 A 
ATOM     13  F   UNL     1       7.333   4.450  15.214  0.00  0.00    +0.000 F 
ATOM     14  C   UNL     1       5.464   3.542  16.316  0.00  0.00    +0.000 A 
ATOM     15  C   UNL     1       4.279   3.716  17.031  0.00  0.00    +0.000 A 
ATOM     16  C   UNL     1       3.873   5.030  17.316  0.00  0.00    +0.000 A 
ATOM     17  S   UNL     1       2.490   5.554  18.176  0.00  0.00    +0.000 S 
ENDBRANCH   4   8
BRANCH   7  18
ATOM     18  N   UNL     1      -0.303  11.208  20.436  0.00  0.00    +0.000 N 
ATOM     19  C   UNL     1      -1.512  11.641  19.893  0.00  0.00    +0.000 C 
ATOM     20  O   UNL     1      -2.058  11.161  18.903  0.00  0.00    +0.000 OA
ATOM     21  H   UNL     1      -0.031  11.647  21.310  0.00  0.00    +0.000 HD
BRANCH  19  22
ATOM     22  C   UNL     1      -2.149  12.774  20.571  0.00  0.00    +0.000 A 
ATOM     23  N   UNL     1      -3.182  12.636  21.419  0.00  0.00    +0.000 NA
ATOM     24  O   UNL     1      -3.476  13.918  21.862  0.00  0.00    +0.000 OA
ATOM     25  C   UNL     1      -2.623  14.805  21.293  0.00  0.00    +0.000 A 
ATOM     26  C   UNL     1      -1.765  14.150  20.448  0.00  0.00    +0.000 A 
ATOM     27  C   UNL     1      -0.673  14.720  19.621  0.00  0.00    +0.000 C 
ENDBRANCH  19  22
ENDBRANCH   7  18
TORSDOF 3
ENDMDL
MODEL 9
REMARK VINA RESULT:      -7.4      1.460      2.037
REMARK  Name = 
REMARK  5 active torsions:
REMARK  status: ('A' for Active; 'I' for Inactive)
REMARK    1  A    between atoms: C_1  and  C_2
REMARK    2  A    between atoms: C_4  and  C_5
REMARK    3  A    between atoms: C_17  and  N_18
REMARK    4  A    between atoms: C_19  and  C_21
REMARK    5  A    between atoms: C_25  and  C_26
REMARK                            x       y       z     vdW  Elec       q    Type
REMARK                         _______ _______ _______ _____ _____    ______ ____
ROOT
ATOM      1  C   UNL     1      -0.065  10.365  17.879  0.00  0.00    +0.000 C 
ATOM      2  C   UNL     1       0.632   9.379  18.777  0.00  0.00    +0.000 A 
ATOM      3  C   UNL     1       1.587   8.520  18.181  0.00  0.00    +0.000 A 
ATOM      4  C   UNL     1       2.332   7.598  18.932  0.00  0.00    +0.000 A 
ATOM      5  C   UNL     1       2.056   7.491  20.290  0.00  0.00    +0.000 A 
ATOM      6  C   UNL     1       1.120   8.328  20.892  0.00  0.00    +0.000 A 
ATOM      7  C   UNL     1       0.411   9.300  20.168  0.00  0.00    +0.000 A 
ENDROOT
BRANCH   4   8
ATOM      8  C   UNL     1       3.396   6.807  18.300  0.00  0.00    +0.000 A 
ATOM      9  N   UNL     1       3.803   6.947  17.056  0.00  0.00    +0.000 NA
ATOM     10  C   UNL     1       4.891   6.125  16.815  0.00  0.00    +0.000 A 
ATOM     11  C   UNL     1       5.595   6.024  15.602  0.00  0.00    +0.000 A 
ATOM     12  C   UNL     1       6.696   5.174  15.531  0.00  0.00    +0.000 A 
ATOM     13  F   UNL     1       7.376   5.084  14.380  0.00  0.00    +0.000 F 
ATOM     14  C   UNL     1       7.111   4.421  16.622  0.00  0.00    +0.000 A 
ATOM     15  C   UNL     1       6.420   4.495  17.831  0.00  0.00    +0.000 A 
ATOM     16  C   UNL     1       5.312   5.356  17.901  0.00  0.00    +0.000 A 
ATOM     17  S   UNL     1       4.287   5.665  19.235  0.00  0.00    +0.000 S 
ENDBRANCH   4   8
BRANCH   7  18
ATOM     18  N   UNL     1      -0.511  10.163  20.821  0.00  0.00    +0.000 N 
ATOM     19  C   UNL     1      -0.184  11.338  21.495  0.00  0.00    +0.000 C 
ATOM     20  O   UNL     1       0.931  11.852  21.527  0.00  0.00    +0.000 OA
ATOM     21  H   UNL     1      -1.496   9.919  20.813  0.00  0.00    +0.000 HD
BRANCH  19  22
ATOM     22  C   UNL     1      -1.279  11.979  22.231  0.00  0.00    +0.000 A 
ATOM     23  N   UNL     1      -1.892  11.406  23.280  0.00  0.00    +0.000 NA
ATOM     24  O   UNL     1      -2.839  12.326  23.707  0.00  0.00    +0.000 OA
ATOM     25  C   UNL     1      -2.783  13.435  22.930  0.00  0.00    +0.000 A 
ATOM     26  C   UNL     1      -1.826  13.276  21.960  0.00  0.00    +0.000 A 
ATOM     27  C   UNL     1      -1.425  14.231  20.897  0.00  0.00    +0.000 C 
ENDBRANCH  19  22
ENDBRANCH   7  18
TORSDOF 3
ENDMDL
