MODEL 1
REMARK VINA RESULT:      -7.9      0.000      0.000
REMARK  Name = 
REMARK  8 active torsions:
REMARK  status: ('A' for Active; 'I' for Inactive)
REMARK    1  A    between atoms: C_1  and  C_2
REMARK    2  A    between atoms: C_2  and  S_3
REMARK    3  A    between atoms: C_2  and  C_10
REMARK    4  A    between atoms: S_3  and  C_4
REMARK    5  A    between atoms: N_8  and  C_9
REMARK    6  A    between atoms: C_14  and  N_15
REMARK    7  A    between atoms: C_16  and  C_18
REMARK    8  A    between atoms: C_24  and  C_25
REMARK                            x       y       z     vdW  Elec       q    Type
REMARK                         _______ _______ _______ _____ _____    ______ ____
ROOT
ATOM      1  C   UNL     1       4.751   6.010  17.161  0.00  0.00    +0.000 A 
ATOM      2  C   UNL     1       4.183   4.737  17.324  0.00  0.00    +0.000 A 
ATOM      3  C   UNL     1       2.888   4.593  17.814  0.00  0.00    +0.000 A 
ATOM      4  C   UNL     1       2.147   5.722  18.162  0.00  0.00    +0.000 A 
ATOM      5  C   UNL     1       2.666   7.013  18.033  0.00  0.00    +0.000 A 
ATOM      6  C   UNL     1       3.968   7.141  17.507  0.00  0.00    +0.000 A 
ENDROOT
BRANCH   5   7
ATOM      7  N   UNL     1       1.933   8.176  18.406  0.00  0.00    +0.000 N 
ATOM      8  C   UNL     1       1.541   8.508  19.701  0.00  0.00    +0.000 C 
ATOM      9  O   UNL     1       1.805   7.859  20.715  0.00  0.00    +0.000 OA
ATOM     10  H   UNL     1       1.675   8.845  17.687  0.00  0.00    +0.000 HD
BRANCH   8  11
ATOM     11  C   UNL     1       0.745   9.770  19.892  0.00  0.00    +0.000 A 
ATOM     12  N   UNL     1       0.921  10.407  21.113  0.00  0.00    +0.000 NA
ATOM     13  C   UNL     1       0.181  11.519  21.313  0.00  0.00    +0.000 A 
ATOM     14  C   UNL     1      -0.752  11.932  20.404  0.00  0.00    +0.000 A 
ATOM     15  C   UNL     1      -0.848  11.101  19.319  0.00  0.00    +0.000 A 
ATOM     16  C   UNL     1      -0.098  10.081  18.842  0.00  0.00    +0.000 A 
ATOM     17  C   UNL     1      -1.182  10.853  18.011  0.00  0.00    +0.000 C 
ATOM     18  C   UNL     1      -2.083   9.869  17.349  0.00  0.00    +0.000 C 
ENDBRANCH   8  11
ENDBRANCH   5   7
BRANCH   1  20
ATOM     19  C   UNL     1       7.225   6.492  17.693  0.00  0.00    +0.000 C 
ATOM     20  C   UNL     1       6.194   6.095  16.636  0.00  0.00    +0.000 C 
BRANCH  20  21
ATOM     21  S   UNL     1       6.671   4.461  15.922  0.00  0.00    +0.000 S 
BRANCH  21  22
ATOM     22  C   UNL     1       7.223   4.858  14.341  0.00  0.00    +0.000 A 
ATOM     23  N   UNL     1       8.199   5.678  14.004  0.00  0.00    +0.000 NA
ATOM     24  N   UNL     1       8.270   5.675  12.619  0.00  0.00    +0.000 NA
ATOM     25  C   UNL     1       7.335   4.873  12.168  0.00  0.00    +0.000 A 
ATOM     26  N   UNL     1       6.645   4.332  13.216  0.00  0.00    +0.000 N 
ATOM     27  C   UNL     1       5.573   3.395  13.141  0.00  0.00    +0.000 C 
ENDBRANCH  21  22
ENDBRANCH  20  21
ENDBRANCH   1  20
TORSDOF 5
ENDMDL
MODEL 2
REMARK VINA RESULT:      -7.9      2.501      8.774
REMARK  Name = 
REMARK  8 active torsions:
REMARK  status: ('A' for Active; 'I' for Inactive)
REMARK    1  A    between atoms: C_1  and  C_2
REMARK    2  A    between atoms: C_2  and  S_3
REMARK    3  A    between atoms: C_2  and  C_10
REMARK    4  A    between atoms: S_3  and  C_4
REMARK    5  A    between atoms: N_8  and  C_9
REMARK    6  A    between atoms: C_14  and  N_15
REMARK    7  A    between atoms: C_16  and  C_18
REMARK    8  A    between atoms: C_24  and  C_25
REMARK                            x       y       z     vdW  Elec       q    Type
REMARK                         _______ _______ _______ _____ _____    ______ ____
ROOT
ATOM      1  C   UNL     1       2.573   4.451  18.753  0.00  0.00    +0.000 A 
ATOM      2  C   UNL     1       2.421   3.145  19.242  0.00  0.00    +0.000 A 
ATOM      3  C   UNL     1       3.039   2.071  18.607  0.00  0.00    +0.000 A 
ATOM      4  C   UNL     1       3.807   2.287  17.464  0.00  0.00    +0.000 A 
ATOM      5  C   UNL     1       3.982   3.564  16.925  0.00  0.00    +0.000 A 
ATOM      6  C   UNL     1       3.374   4.644  17.597  0.00  0.00    +0.000 A 
ENDROOT
BRANCH   5   7
ATOM      7  N   UNL     1       4.743   3.801  15.744  0.00  0.00    +0.000 N 
ATOM      8  C   UNL     1       6.075   4.207  15.705  0.00  0.00    +0.000 C 
ATOM      9  O   UNL     1       6.796   4.385  16.689  0.00  0.00    +0.000 OA
ATOM     10  H   UNL     1       4.305   3.653  14.840  0.00  0.00    +0.000 HD
BRANCH   8  11
ATOM     11  C   UNL     1       6.702   4.434  14.356  0.00  0.00    +0.000 A 
ATOM     12  N   UNL     1       7.721   5.375  14.322  0.00  0.00    +0.000 NA
ATOM     13  C   UNL     1       8.264   5.617  13.109  0.00  0.00    +0.000 A 
ATOM     14  C   UNL     1       7.770   5.036  11.975  0.00  0.00    +0.000 A 
ATOM     15  C   UNL     1       6.692   4.227  12.213  0.00  0.00    +0.000 A 
ATOM     16  C   UNL     1       6.127   3.710  13.329  0.00  0.00    +0.000 A 
ATOM     17  C   UNL     1       5.860   3.190  11.873  0.00  0.00    +0.000 C 
ATOM     18  C   UNL     1       4.390   3.080  11.655  0.00  0.00    +0.000 C 
ENDBRANCH   8  11
ENDBRANCH   5   7
BRANCH   1  20
ATOM     19  C   UNL     1       1.496   5.274  20.944  0.00  0.00    +0.000 C 
ATOM     20  C   UNL     1       1.845   5.589  19.489  0.00  0.00    +0.000 C 
BRANCH  20  21
ATOM     21  S   UNL     1       2.897   7.104  19.442  0.00  0.00    +0.000 S 
BRANCH  21  22
ATOM     22  C   UNL     1       1.777   8.362  19.089  0.00  0.00    +0.000 A 
ATOM     23  N   UNL     1       1.434   8.836  17.907  0.00  0.00    +0.000 NA
ATOM     24  N   UNL     1       0.505   9.841  18.127  0.00  0.00    +0.000 NA
ATOM     25  C   UNL     1       0.328   9.951  19.422  0.00  0.00    +0.000 A 
ATOM     26  N   UNL     1       1.109   9.039  20.075  0.00  0.00    +0.000 N 
ATOM     27  C   UNL     1       1.181   8.826  21.482  0.00  0.00    +0.000 C 
ENDBRANCH  21  22
ENDBRANCH  20  21
ENDBRANCH   1  20
TORSDOF 5
ENDMDL
MODEL 3
REMARK VINA RESULT:      -7.8      2.619      3.783
REMARK  Name = 
REMARK  8 active torsions:
REMARK  status: ('A' for Active; 'I' for Inactive)
REMARK    1  A    between atoms: C_1  and  C_2
REMARK    2  A    between atoms: C_2  and  S_3
REMARK    3  A    between atoms: C_2  and  C_10
REMARK    4  A    between atoms: S_3  and  C_4
REMARK    5  A    between atoms: N_8  and  C_9
REMARK    6  A    between atoms: C_14  and  N_15
REMARK    7  A    between atoms: C_16  and  C_18
REMARK    8  A    between atoms: C_24  and  C_25
REMARK                            x       y       z     vdW  Elec       q    Type
REMARK                         _______ _______ _______ _____ _____    ______ ____
ROOT
ATOM      1  C   UNL     1       2.758   6.647  19.382  0.00  0.00    +0.000 A 
ATOM      2  C   UNL     1       3.295   6.928  18.117  0.00  0.00    +0.000 A 
ATOM      3  C   UNL     1       2.952   8.096  17.441  0.00  0.00    +0.000 A 
ATOM      4  C   UNL     1       2.053   8.994  18.017  0.00  0.00    +0.000 A 
ATOM      5  C   UNL     1       1.478   8.759  19.268  0.00  0.00    +0.000 A 
ATOM      6  C   UNL     1       1.861   7.587  19.952  0.00  0.00    +0.000 A 
ENDROOT
BRANCH   5   7
ATOM      7  N   UNL     1       0.541   9.653  19.862  0.00  0.00    +0.000 N 
ATOM      8  C   UNL     1       0.637  10.198  21.141  0.00  0.00    +0.000 C 
ATOM      9  O   UNL     1       1.566  10.012  21.928  0.00  0.00    +0.000 OA
ATOM     10  H   UNL     1      -0.268   9.946  19.322  0.00  0.00    +0.000 HD
BRANCH   8  11
ATOM     11  C   UNL     1      -0.472  11.105  21.603  0.00  0.00    +0.000 A 
ATOM     12  N   UNL     1      -0.635  11.194  22.979  0.00  0.00    +0.000 NA
ATOM     13  C   UNL     1      -1.653  11.972  23.405  0.00  0.00    +0.000 A 
ATOM     14  C   UNL     1      -2.523  12.557  22.529  0.00  0.00    +0.000 A 
ATOM     15  C   UNL     1      -2.253  12.252  21.221  0.00  0.00    +0.000 A 
ATOM     16  C   UNL     1      -1.210  11.673  20.583  0.00  0.00    +0.000 A 
ATOM     17  C   UNL     1      -2.328  12.518  19.877  0.00  0.00    +0.000 C 
ATOM     18  C   UNL     1      -2.849  11.760  18.706  0.00  0.00    +0.000 C 
ENDBRANCH   8  11
ENDBRANCH   5   7
BRANCH   1  20
ATOM     19  C   UNL     1       2.027   4.634  20.814  0.00  0.00    +0.000 C 
ATOM     20  C   UNL     1       3.163   5.328  20.063  0.00  0.00    +0.000 C 
BRANCH  20  21
ATOM     21  S   UNL     1       3.827   4.173  18.785  0.00  0.00    +0.000 S 
BRANCH  21  22
ATOM     22  C   UNL     1       5.501   4.565  18.719  0.00  0.00    +0.000 A 
ATOM     23  N   UNL     1       6.279   4.971  19.703  0.00  0.00    +0.000 NA
ATOM     24  N   UNL     1       7.544   5.163  19.167  0.00  0.00    +0.000 NA
ATOM     25  C   UNL     1       7.486   4.882  17.886  0.00  0.00    +0.000 A 
ATOM     26  N   UNL     1       6.217   4.500  17.553  0.00  0.00    +0.000 N 
ATOM     27  C   UNL     1       5.757   4.092  16.267  0.00  0.00    +0.000 C 
ENDBRANCH  21  22
ENDBRANCH  20  21
ENDBRANCH   1  20
TORSDOF 5
ENDMDL
MODEL 4
REMARK VINA RESULT:      -7.8      1.166      1.230
REMARK  Name = 
REMARK  8 active torsions:
REMARK  status: ('A' for Active; 'I' for Inactive)
REMARK    1  A    between atoms: C_1  and  C_2
REMARK    2  A    between atoms: C_2  and  S_3
REMARK    3  A    between atoms: C_2  and  C_10
REMARK    4  A    between atoms: S_3  and  C_4
REMARK    5  A    between atoms: N_8  and  C_9
REMARK    6  A    between atoms: C_14  and  N_15
REMARK    7  A    between atoms: C_16  and  C_18
REMARK    8  A    between atoms: C_24  and  C_25
REMARK                            x       y       z     vdW  Elec       q    Type
REMARK                         _______ _______ _______ _____ _____    ______ ____
ROOT
ATOM      1  C   UNL     1       4.609   5.984  17.770  0.00  0.00    +0.000 A 
ATOM      2  C   UNL     1       4.155   5.008  18.670  0.00  0.00    +0.000 A 
ATOM      3  C   UNL     1       2.967   5.188  19.374  0.00  0.00    +0.000 A 
ATOM      4  C   UNL     1       2.223   6.354  19.197  0.00  0.00    +0.000 A 
ATOM      5  C   UNL     1       2.634   7.364  18.325  0.00  0.00    +0.000 A 
ATOM      6  C   UNL     1       3.823   7.153  17.597  0.00  0.00    +0.000 A 
ENDROOT
BRANCH   5   7
ATOM      7  N   UNL     1       1.899   8.573  18.149  0.00  0.00    +0.000 N 
ATOM      8  C   UNL     1       1.237   9.273  19.155  0.00  0.00    +0.000 C 
ATOM      9  O   UNL     1       1.222   8.965  20.348  0.00  0.00    +0.000 OA
ATOM     10  H   UNL     1       1.852   8.988  17.224  0.00  0.00    +0.000 HD
BRANCH   8  11
ATOM     11  C   UNL     1       0.489  10.520  18.768  0.00  0.00    +0.000 A 
ATOM     12  N   UNL     1       1.042  11.711  19.218  0.00  0.00    +0.000 NA
ATOM     13  C   UNL     1       0.357  12.834  18.911  0.00  0.00    +0.000 A 
ATOM     14  C   UNL     1      -0.853  12.786  18.279  0.00  0.00    +0.000 A 
ATOM     15  C   UNL     1      -1.273  11.507  18.023  0.00  0.00    +0.000 A 
ATOM     16  C   UNL     1      -0.680  10.292  18.067  0.00  0.00    +0.000 A 
ATOM     17  C   UNL     1      -2.025  10.600  17.319  0.00  0.00    +0.000 C 
ATOM     18  C   UNL     1      -3.045   9.587  17.710  0.00  0.00    +0.000 C 
ENDBRANCH   8  11
ENDBRANCH   5   7
BRANCH   1  20
ATOM     19  C   UNL     1       7.100   5.358  17.966  0.00  0.00    +0.000 C 
ATOM     20  C   UNL     1       5.941   5.732  17.043  0.00  0.00    +0.000 C 
BRANCH  20  21
ATOM     21  S   UNL     1       5.703   4.383  15.807  0.00  0.00    +0.000 S 
BRANCH  21  22
ATOM     22  C   UNL     1       6.774   4.812  14.530  0.00  0.00    +0.000 A 
ATOM     23  N   UNL     1       7.817   5.617  14.582  0.00  0.00    +0.000 NA
ATOM     24  N   UNL     1       8.364   5.654  13.308  0.00  0.00    +0.000 NA
ATOM     25  C   UNL     1       7.632   4.890  12.532  0.00  0.00    +0.000 A 
ATOM     26  N   UNL     1       6.615   4.335  13.256  0.00  0.00    +0.000 N 
ATOM     27  C   UNL     1       5.623   3.428  12.781  0.00  0.00    +0.000 C 
ENDBRANCH  21  22
ENDBRANCH  20  21
ENDBRANCH   1  20
TORSDOF 5
ENDMDL
MODEL 5
REMARK VINA RESULT:      -7.8      1.157      1.389
REMARK  Name = 
REMARK  8 active torsions:
REMARK  status: ('A' for Active; 'I' for Inactive)
REMARK    1  A    between atoms: C_1  and  C_2
REMARK    2  A    between atoms: C_2  and  S_3
REMARK    3  A    between atoms: C_2  and  C_10
REMARK    4  A    between atoms: S_3  and  C_4
REMARK    5  A    between atoms: N_8  and  C_9
REMARK    6  A    between atoms: C_14  and  N_15
REMARK    7  A    between atoms: C_16  and  C_18
REMARK    8  A    between atoms: C_24  and  C_25
REMARK                            x       y       z     vdW  Elec       q    Type
REMARK                         _______ _______ _______ _____ _____    ______ ____
ROOT
ATOM      1  C   UNL     1       4.487   5.345  17.206  0.00  0.00    +0.000 A 
ATOM      2  C   UNL     1       3.838   4.116  17.012  0.00  0.00    +0.000 A 
ATOM      3  C   UNL     1       2.616   3.852  17.626  0.00  0.00    +0.000 A 
ATOM      4  C   UNL     1       2.033   4.810  18.455  0.00  0.00    +0.000 A 
ATOM      5  C   UNL     1       2.641   6.045  18.694  0.00  0.00    +0.000 A 
ATOM      6  C   UNL     1       3.862   6.307  18.041  0.00  0.00    +0.000 A 
ENDROOT
BRANCH   5   7
ATOM      7  N   UNL     1       2.072   7.026  19.557  0.00  0.00    +0.000 N 
ATOM      8  C   UNL     1       1.610   8.281  19.165  0.00  0.00    +0.000 C 
ATOM      9  O   UNL     1       1.594   8.706  18.009  0.00  0.00    +0.000 OA
ATOM     10  H   UNL     1       1.969   6.811  20.544  0.00  0.00    +0.000 HD
BRANCH   8  11
ATOM     11  C   UNL     1       1.065   9.193  20.230  0.00  0.00    +0.000 A 
ATOM     12  N   UNL     1       1.043   8.665  21.514  0.00  0.00    +0.000 NA
ATOM     13  C   UNL     1       0.518   9.459  22.472  0.00  0.00    +0.000 A 
ATOM     14  C   UNL     1      -0.041  10.669  22.172  0.00  0.00    +0.000 A 
ATOM     15  C   UNL     1      -0.018  10.954  20.833  0.00  0.00    +0.000 A 
ATOM     16  C   UNL     1       0.607  10.411  19.763  0.00  0.00    +0.000 A 
ATOM     17  C   UNL     1      -0.042  11.838  19.784  0.00  0.00    +0.000 C 
ATOM     18  C   UNL     1      -0.920  11.994  18.591  0.00  0.00    +0.000 C 
ENDBRANCH   8  11
ENDBRANCH   5   7
BRANCH   1  20
ATOM     19  C   UNL     1       6.989   5.898  17.472  0.00  0.00    +0.000 C 
ATOM     20  C   UNL     1       5.845   5.562  16.516  0.00  0.00    +0.000 C 
BRANCH  20  21
ATOM     21  S   UNL     1       6.286   4.041  15.569  0.00  0.00    +0.000 S 
BRANCH  21  22
ATOM     22  C   UNL     1       7.049   4.654  14.154  0.00  0.00    +0.000 A 
ATOM     23  N   UNL     1       8.020   5.543  14.076  0.00  0.00    +0.000 NA
ATOM     24  N   UNL     1       8.301   5.720  12.730  0.00  0.00    +0.000 NA
ATOM     25  C   UNL     1       7.489   4.950  12.044  0.00  0.00    +0.000 A 
ATOM     26  N   UNL     1       6.678   4.257  12.897  0.00  0.00    +0.000 N 
ATOM     27  C   UNL     1       5.682   3.300  12.542  0.00  0.00    +0.000 C 
ENDBRANCH  21  22
ENDBRANCH  20  21
ENDBRANCH   1  20
TORSDOF 5
ENDMDL
MODEL 6
REMARK VINA RESULT:      -7.7      2.536      8.824
REMARK  Name = 
REMARK  8 active torsions:
REMARK  status: ('A' for Active; 'I' for Inactive)
REMARK    1  A    between atoms: C_1  and  C_2
REMARK    2  A    between atoms: C_2  and  S_3
REMARK    3  A    between atoms: C_2  and  C_10
REMARK    4  A    between atoms: S_3  and  C_4
REMARK    5  A    between atoms: N_8  and  C_9
REMARK    6  A    between atoms: C_14  and  N_15
REMARK    7  A    between atoms: C_16  and  C_18
REMARK    8  A    between atoms: C_24  and  C_25
REMARK                            x       y       z     vdW  Elec       q    Type
REMARK                         _______ _______ _______ _____ _____    ______ ____
ROOT
ATOM      1  C   UNL     1       2.604   4.115  18.722  0.00  0.00    +0.000 A 
ATOM      2  C   UNL     1       2.512   2.810  19.228  0.00  0.00    +0.000 A 
ATOM      3  C   UNL     1       3.192   1.760  18.616  0.00  0.00    +0.000 A 
ATOM      4  C   UNL     1       3.963   2.000  17.479  0.00  0.00    +0.000 A 
ATOM      5  C   UNL     1       4.080   3.276  16.925  0.00  0.00    +0.000 A 
ATOM      6  C   UNL     1       3.410   4.333  17.574  0.00  0.00    +0.000 A 
ENDROOT
BRANCH   5   7
ATOM      7  N   UNL     1       4.844   3.536  15.750  0.00  0.00    +0.000 N 
ATOM      8  C   UNL     1       6.009   4.298  15.692  0.00  0.00    +0.000 C 
ATOM      9  O   UNL     1       6.564   4.827  16.656  0.00  0.00    +0.000 OA
ATOM     10  H   UNL     1       4.544   3.129  14.870  0.00  0.00    +0.000 HD
BRANCH   8  11
ATOM     11  C   UNL     1       6.661   4.483  14.349  0.00  0.00    +0.000 A 
ATOM     12  N   UNL     1       7.702   5.400  14.312  0.00  0.00    +0.000 NA
ATOM     13  C   UNL     1       8.269   5.605  13.104  0.00  0.00    +0.000 A 
ATOM     14  C   UNL     1       7.780   5.013  11.973  0.00  0.00    +0.000 A 
ATOM     15  C   UNL     1       6.679   4.233  12.210  0.00  0.00    +0.000 A 
ATOM     16  C   UNL     1       6.085   3.752  13.327  0.00  0.00    +0.000 A 
ATOM     17  C   UNL     1       5.828   3.209  11.878  0.00  0.00    +0.000 C 
ATOM     18  C   UNL     1       4.361   3.128  11.639  0.00  0.00    +0.000 C 
ENDBRANCH   8  11
ENDBRANCH   5   7
BRANCH   1  20
ATOM     19  C   UNL     1       1.258   4.823  20.801  0.00  0.00    +0.000 C 
ATOM     20  C   UNL     1       1.809   5.224  19.433  0.00  0.00    +0.000 C 
BRANCH  20  21
ATOM     21  S   UNL     1       2.893   6.703  19.636  0.00  0.00    +0.000 S 
BRANCH  21  22
ATOM     22  C   UNL     1       1.791   7.957  20.053  0.00  0.00    +0.000 A 
ATOM     23  N   UNL     1       1.196   8.163  21.212  0.00  0.00    +0.000 NA
ATOM     24  N   UNL     1       0.400   9.288  21.065  0.00  0.00    +0.000 NA
ATOM     25  C   UNL     1       0.526   9.714  19.830  0.00  0.00    +0.000 A 
ATOM     26  N   UNL     1       1.393   8.907  19.149  0.00  0.00    +0.000 N 
ATOM     27  C   UNL     1       1.813   9.052  17.795  0.00  0.00    +0.000 C 
ENDBRANCH  21  22
ENDBRANCH  20  21
ENDBRANCH   1  20
TORSDOF 5
ENDMDL
MODEL 7
REMARK VINA RESULT:      -7.6      1.152      1.158
REMARK  Name = 
REMARK  8 active torsions:
REMARK  status: ('A' for Active; 'I' for Inactive)
REMARK    1  A    between atoms: C_1  and  C_2
REMARK    2  A    between atoms: C_2  and  S_3
REMARK    3  A    between atoms: C_2  and  C_10
REMARK    4  A    between atoms: S_3  and  C_4
REMARK    5  A    between atoms: N_8  and  C_9
REMARK    6  A    between atoms: C_14  and  N_15
REMARK    7  A    between atoms: C_16  and  C_18
REMARK    8  A    between atoms: C_24  and  C_25
REMARK                            x       y       z     vdW  Elec       q    Type
REMARK                         _______ _______ _______ _____ _____    ______ ____
ROOT
ATOM      1  C   UNL     1       4.531   5.500  17.931  0.00  0.00    +0.000 A 
ATOM      2  C   UNL     1       4.142   4.277  18.498  0.00  0.00    +0.000 A 
ATOM      3  C   UNL     1       3.004   4.193  19.296  0.00  0.00    +0.000 A 
ATOM      4  C   UNL     1       2.246   5.336  19.550  0.00  0.00    +0.000 A 
ATOM      5  C   UNL     1       2.594   6.582  19.023  0.00  0.00    +0.000 A 
ATOM      6  C   UNL     1       3.731   6.643  18.193  0.00  0.00    +0.000 A 
ENDROOT
BRANCH   5   7
ATOM      7  N   UNL     1       1.846   7.765  19.291  0.00  0.00    +0.000 N 
ATOM      8  C   UNL     1       1.674   8.832  18.412  0.00  0.00    +0.000 C 
ATOM      9  O   UNL     1       2.114   8.889  17.263  0.00  0.00    +0.000 OA
ATOM     10  H   UNL     1       1.376   7.855  20.186  0.00  0.00    +0.000 HD
BRANCH   8  11
ATOM     11  C   UNL     1       0.869  10.011  18.889  0.00  0.00    +0.000 A 
ATOM     12  N   UNL     1       1.397  10.694  19.976  0.00  0.00    +0.000 NA
ATOM     13  C   UNL     1       0.663  11.729  20.438  0.00  0.00    +0.000 A 
ATOM     14  C   UNL     1      -0.568  12.021  19.923  0.00  0.00    +0.000 A 
ATOM     15  C   UNL     1      -0.954  11.156  18.932  0.00  0.00    +0.000 A 
ATOM     16  C   UNL     1      -0.318  10.207  18.208  0.00  0.00    +0.000 A 
ATOM     17  C   UNL     1      -1.700  10.842  17.824  0.00  0.00    +0.000 C 
ATOM     18  C   UNL     1      -2.669   9.755  17.512  0.00  0.00    +0.000 C 
ENDBRANCH   8  11
ENDBRANCH   5   7
BRANCH   1  20
ATOM     19  C   UNL     1       7.104   5.382  17.881  0.00  0.00    +0.000 C 
ATOM     20  C   UNL     1       5.811   5.527  17.079  0.00  0.00    +0.000 C 
BRANCH  20  21
ATOM     21  S   UNL     1       5.729   4.169  15.831  0.00  0.00    +0.000 S 
BRANCH  21  22
ATOM     22  C   UNL     1       6.768   4.715  14.573  0.00  0.00    +0.000 A 
ATOM     23  N   UNL     1       7.781   5.554  14.664  0.00  0.00    +0.000 NA
ATOM     24  N   UNL     1       8.312   5.688  13.390  0.00  0.00    +0.000 NA
ATOM     25  C   UNL     1       7.600   4.944  12.576  0.00  0.00    +0.000 A 
ATOM     26  N   UNL     1       6.613   4.309  13.274  0.00  0.00    +0.000 N 
ATOM     27  C   UNL     1       5.651   3.395  12.754  0.00  0.00    +0.000 C 
ENDBRANCH  21  22
ENDBRANCH  20  21
ENDBRANCH   1  20
TORSDOF 5
ENDMDL
MODEL 8
REMARK VINA RESULT:      -7.6      1.227      1.682
REMARK  Name = 
REMARK  8 active torsions:
REMARK  status: ('A' for Active; 'I' for Inactive)
REMARK    1  A    between atoms: C_1  and  C_2
REMARK    2  A    between atoms: C_2  and  S_3
REMARK    3  A    between atoms: C_2  and  C_10
REMARK    4  A    between atoms: S_3  and  C_4
REMARK    5  A    between atoms: N_8  and  C_9
REMARK    6  A    between atoms: C_14  and  N_15
REMARK    7  A    between atoms: C_16  and  C_18
REMARK    8  A    between atoms: C_24  and  C_25
REMARK                            x       y       z     vdW  Elec       q    Type
REMARK                         _______ _______ _______ _____ _____    ______ ____
ROOT
ATOM      1  C   UNL     1       4.716   5.670  17.256  0.00  0.00    +0.000 A 
ATOM      2  C   UNL     1       4.004   4.507  17.586  0.00  0.00    +0.000 A 
ATOM      3  C   UNL     1       2.726   4.587  18.134  0.00  0.00    +0.000 A 
ATOM      4  C   UNL     1       2.148   5.833  18.372  0.00  0.00    +0.000 A 
ATOM      5  C   UNL     1       2.816   7.024  18.076  0.00  0.00    +0.000 A 
ATOM      6  C   UNL     1       4.096   6.924  17.494  0.00  0.00    +0.000 A 
ENDROOT
BRANCH   5   7
ATOM      7  N   UNL     1       2.251   8.306  18.334  0.00  0.00    +0.000 N 
ATOM      8  C   UNL     1       1.584   8.679  19.500  0.00  0.00    +0.000 C 
ATOM      9  O   UNL     1       1.420   7.962  20.488  0.00  0.00    +0.000 OA
ATOM     10  H   UNL     1       2.342   9.033  17.631  0.00  0.00    +0.000 HD
BRANCH   8  11
ATOM     11  C   UNL     1       1.031  10.076  19.576  0.00  0.00    +0.000 A 
ATOM     12  N   UNL     1       1.547  10.973  18.651  0.00  0.00    +0.000 NA
ATOM     13  C   UNL     1       1.088  12.241  18.736  0.00  0.00    +0.000 A 
ATOM     14  C   UNL     1       0.240  12.630  19.734  0.00  0.00    +0.000 A 
ATOM     15  C   UNL     1      -0.059  11.619  20.609  0.00  0.00    +0.000 A 
ATOM     16  C   UNL     1       0.128  10.279  20.602  0.00  0.00    +0.000 A 
ATOM     17  C   UNL     1      -0.868  11.034  21.550  0.00  0.00    +0.000 C 
ATOM     18  C   UNL     1      -0.651  10.577  22.951  0.00  0.00    +0.000 C 
ENDBRANCH   8  11
ENDBRANCH   5   7
BRANCH   1  20
ATOM     19  C   UNL     1       7.222   5.301  17.727  0.00  0.00    +0.000 C 
ATOM     20  C   UNL     1       6.132   5.510  16.676  0.00  0.00    +0.000 C 
BRANCH  20  21
ATOM     21  S   UNL     1       6.144   4.079  15.511  0.00  0.00    +0.000 S 
BRANCH  21  22
ATOM     22  C   UNL     1       6.994   4.682  14.142  0.00  0.00    +0.000 A 
ATOM     23  N   UNL     1       7.971   5.568  14.117  0.00  0.00    +0.000 NA
ATOM     24  N   UNL     1       8.332   5.736  12.789  0.00  0.00    +0.000 NA
ATOM     25  C   UNL     1       7.560   4.965  12.060  0.00  0.00    +0.000 A 
ATOM     26  N   UNL     1       6.697   4.279  12.866  0.00  0.00    +0.000 N 
ATOM     27  C   UNL     1       5.721   3.324  12.458  0.00  0.00    +0.000 C 
ENDBRANCH  21  22
ENDBRANCH  20  21
ENDBRANCH   1  20
TORSDOF 5
ENDMDL
MODEL 9
REMARK VINA RESULT:      -7.5      6.603      9.413
REMARK  Name = 
REMARK  8 active torsions:
REMARK  status: ('A' for Active; 'I' for Inactive)
REMARK    1  A    between atoms: C_1  and  C_2
REMARK    2  A    between atoms: C_2  and  S_3
REMARK    3  A    between atoms: C_2  and  C_10
REMARK    4  A    between atoms: S_3  and  C_4
REMARK    5  A    between atoms: N_8  and  C_9
REMARK    6  A    between atoms: C_14  and  N_15
REMARK    7  A    between atoms: C_16  and  C_18
REMARK    8  A    between atoms: C_24  and  C_25
REMARK                            x       y       z     vdW  Elec       q    Type
REMARK                         _______ _______ _______ _____ _____    ______ ____
ROOT
ATOM      1  C   UNL     1       8.767  11.939  18.253  0.00  0.00    +0.000 A 
ATOM      2  C   UNL     1       9.545  11.668  19.389  0.00  0.00    +0.000 A 
ATOM      3  C   UNL     1       9.703  10.363  19.849  0.00  0.00    +0.000 A 
ATOM      4  C   UNL     1       9.073   9.310  19.185  0.00  0.00    +0.000 A 
ATOM      5  C   UNL     1       8.277   9.523  18.057  0.00  0.00    +0.000 A 
ATOM      6  C   UNL     1       8.152  10.846  17.588  0.00  0.00    +0.000 A 
ENDROOT
BRANCH   5   7
ATOM      7  N   UNL     1       7.607   8.463  17.380  0.00  0.00    +0.000 N 
ATOM      8  C   UNL     1       7.573   7.132  17.790  0.00  0.00    +0.000 C 
ATOM      9  O   UNL     1       8.090   6.688  18.816  0.00  0.00    +0.000 OA
ATOM     10  H   UNL     1       7.088   8.673  16.533  0.00  0.00    +0.000 HD
BRANCH   8  11
ATOM     11  C   UNL     1       6.833   6.149  16.923  0.00  0.00    +0.000 A 
ATOM     12  N   UNL     1       7.489   5.765  15.762  0.00  0.00    +0.000 NA
ATOM     13  C   UNL     1       6.817   4.915  14.956  0.00  0.00    +0.000 A 
ATOM     14  C   UNL     1       5.533   4.535  15.227  0.00  0.00    +0.000 A 
ATOM     15  C   UNL     1       5.030   5.115  16.362  0.00  0.00    +0.000 A 
ATOM     16  C   UNL     1       5.573   5.816  17.384  0.00  0.00    +0.000 A 
ATOM     17  C   UNL     1       4.155   5.145  17.419  0.00  0.00    +0.000 C 
ATOM     18  C   UNL     1       3.155   6.139  17.898  0.00  0.00    +0.000 C 
ENDBRANCH   8  11
ENDBRANCH   5   7
BRANCH   1  20
ATOM     19  C   UNL     1       7.175  13.832  17.535  0.00  0.00    +0.000 C 
ATOM     20  C   UNL     1       8.616  13.405  17.814  0.00  0.00    +0.000 C 
BRANCH  20  21
ATOM     21  S   UNL     1       9.319  14.499  19.123  0.00  0.00    +0.000 S 
BRANCH  21  22
ATOM     22  C   UNL     1      10.365  15.550  18.250  0.00  0.00    +0.000 A 
ATOM     23  N   UNL     1      10.120  16.778  17.836  0.00  0.00    +0.000 NA
ATOM     24  N   UNL     1      11.258  17.219  17.178  0.00  0.00    +0.000 NA
ATOM     25  C   UNL     1      12.141  16.248  17.203  0.00  0.00    +0.000 A 
ATOM     26  N   UNL     1      11.625  15.172  17.868  0.00  0.00    +0.000 N 
ATOM     27  C   UNL     1      12.281  13.934  18.131  0.00  0.00    +0.000 C 
ENDBRANCH  21  22
ENDBRANCH  20  21
ENDBRANCH   1  20
TORSDOF 5
ENDMDL
