MODEL 1
REMARK VINA RESULT:      -8.8      0.000      0.000
REMARK  Name = 
REMARK  6 active torsions:
REMARK  status: ('A' for Active; 'I' for Inactive)
REMARK    1  A    between atoms: C_2  and  C_11
REMARK    2  A    between atoms: N_3  and  C_4
REMARK    3  A    between atoms: C_4  and  C_5
REMARK    4  A    between atoms: C_15  and  O_16
REMARK    5  A    between atoms: O_16  and  C_17
REMARK    6  A    between atoms: C_22  and  C_23
REMARK                            x       y       z     vdW  Elec       q    Type
REMARK                         _______ _______ _______ _____ _____    ______ ____
ROOT
ATOM      1  C   UNL     1       0.713   8.869  20.751  0.00  0.00    +0.000 A 
ATOM      2  C   UNL     1       0.742   9.656  19.594  0.00  0.00    +0.000 A 
ATOM      3  C   UNL     1       1.485   9.254  18.488  0.00  0.00    +0.000 A 
ATOM      4  C   UNL     1       2.213   8.067  18.544  0.00  0.00    +0.000 A 
ATOM      5  C   UNL     1       2.263   7.314  19.723  0.00  0.00    +0.000 A 
ATOM      6  C   UNL     1       1.471   7.686  20.817  0.00  0.00    +0.000 A 
ENDROOT
BRANCH   1   8
ATOM      7  O   UNL     1      -0.831   8.481  22.483  0.00  0.00    +0.000 OA
ATOM      8  C   UNL     1      -0.172   9.311  21.860  0.00  0.00    +0.000 C 
ATOM      9  N   UNL     1      -0.233  10.663  22.108  0.00  0.00    +0.000 N 
ATOM     10  H   UNL     1       0.107  11.303  21.403  0.00  0.00    +0.000 HD
BRANCH   9  11
ATOM     11  C   UNL     1      -1.153  11.184  23.093  0.00  0.00    +0.000 C 
BRANCH  11  12
ATOM     12  C   UNL     1      -2.234  12.023  22.463  0.00  0.00    +0.000 A 
ATOM     13  C   UNL     1      -3.349  12.442  23.202  0.00  0.00    +0.000 A 
ATOM     14  C   UNL     1      -4.312  13.271  22.619  0.00  0.00    +0.000 A 
ATOM     15  C   UNL     1      -4.177  13.676  21.293  0.00  0.00    +0.000 A 
ATOM     16  C   UNL     1      -3.088  13.240  20.540  0.00  0.00    +0.000 A 
ATOM     17  C   UNL     1      -2.125  12.414  21.121  0.00  0.00    +0.000 A 
ENDBRANCH  11  12
ENDBRANCH   9  11
ENDBRANCH   1   8
BRANCH   5  18
ATOM     18  O   UNL     1       3.036   6.172  19.854  0.00  0.00    +0.000 OA
BRANCH  18  19
ATOM     19  C   UNL     1       2.906   5.190  18.872  0.00  0.00    +0.000 A 
ATOM     20  N   UNL     1       1.706   4.555  18.800  0.00  0.00    +0.000 NA
ATOM     21  C   UNL     1       1.594   3.576  17.904  0.00  0.00    +0.000 A 
ATOM     22  N   UNL     1       2.534   3.218  17.030  0.00  0.00    +0.000 NA
ATOM     23  C   UNL     1       3.688   3.913  17.103  0.00  0.00    +0.000 A 
ATOM     24  C   UNL     1       3.977   4.930  18.014  0.00  0.00    +0.000 A 
BRANCH  24  25
ATOM     25  C   UNL     1       5.309   5.578  18.030  0.00  0.00    +0.000 A 
ATOM     26  C   UNL     1       6.311   5.165  18.941  0.00  0.00    +0.000 A 
ATOM     27  C   UNL     1       7.554   5.805  19.014  0.00  0.00    +0.000 A 
ATOM     28  C   UNL     1       7.838   6.865  18.161  0.00  0.00    +0.000 A 
ATOM     29  C   UNL     1       6.880   7.288  17.248  0.00  0.00    +0.000 A 
ATOM     30  C   UNL     1       5.631   6.659  17.193  0.00  0.00    +0.000 A 
ENDBRANCH  24  25
ENDBRANCH  18  19
ENDBRANCH   5  18
TORSDOF 6
ENDMDL
MODEL 2
REMARK VINA RESULT:      -8.7      0.638      1.414
REMARK  Name = 
REMARK  6 active torsions:
REMARK  status: ('A' for Active; 'I' for Inactive)
REMARK    1  A    between atoms: C_2  and  C_11
REMARK    2  A    between atoms: N_3  and  C_4
REMARK    3  A    between atoms: C_4  and  C_5
REMARK    4  A    between atoms: C_15  and  O_16
REMARK    5  A    between atoms: O_16  and  C_17
REMARK    6  A    between atoms: C_22  and  C_23
REMARK                            x       y       z     vdW  Elec       q    Type
REMARK                         _______ _______ _______ _____ _____    ______ ____
ROOT
ATOM      1  C   UNL     1       0.907   9.367  20.385  0.00  0.00    +0.000 A 
ATOM      2  C   UNL     1       0.960   9.952  19.115  0.00  0.00    +0.000 A 
ATOM      3  C   UNL     1       1.582   9.290  18.060  0.00  0.00    +0.000 A 
ATOM      4  C   UNL     1       2.164   8.042  18.280  0.00  0.00    +0.000 A 
ATOM      5  C   UNL     1       2.195   7.484  19.563  0.00  0.00    +0.000 A 
ATOM      6  C   UNL     1       1.521   8.122  20.613  0.00  0.00    +0.000 A 
ENDROOT
BRANCH   1   8
ATOM      7  O   UNL     1      -0.378   9.454  22.353  0.00  0.00    +0.000 OA
ATOM      8  C   UNL     1       0.149  10.087  21.441  0.00  0.00    +0.000 C 
ATOM      9  N   UNL     1       0.048  11.453  21.314  0.00  0.00    +0.000 N 
ATOM     10  H   UNL     1       0.260  11.876  20.420  0.00  0.00    +0.000 HD
BRANCH   9  11
ATOM     11  C   UNL     1      -0.763  12.215  22.235  0.00  0.00    +0.000 C 
BRANCH  11  12
ATOM     12  C   UNL     1      -2.156  12.435  21.707  0.00  0.00    +0.000 A 
ATOM     13  C   UNL     1      -2.424  12.401  20.331  0.00  0.00    +0.000 A 
ATOM     14  C   UNL     1      -3.732  12.548  19.862  0.00  0.00    +0.000 A 
ATOM     15  C   UNL     1      -4.781  12.742  20.759  0.00  0.00    +0.000 A 
ATOM     16  C   UNL     1      -4.522  12.808  22.127  0.00  0.00    +0.000 A 
ATOM     17  C   UNL     1      -3.216  12.661  22.598  0.00  0.00    +0.000 A 
ENDBRANCH  11  12
ENDBRANCH   9  11
ENDBRANCH   1   8
BRANCH   5  18
ATOM     18  O   UNL     1       2.832   6.288  19.848  0.00  0.00    +0.000 OA
BRANCH  18  19
ATOM     19  C   UNL     1       2.750   5.271  18.895  0.00  0.00    +0.000 A 
ATOM     20  N   UNL     1       1.556   4.632  18.788  0.00  0.00    +0.000 NA
ATOM     21  C   UNL     1       1.488   3.622  17.922  0.00  0.00    +0.000 A 
ATOM     22  N   UNL     1       2.470   3.237  17.107  0.00  0.00    +0.000 NA
ATOM     23  C   UNL     1       3.618   3.937  17.211  0.00  0.00    +0.000 A 
ATOM     24  C   UNL     1       3.861   4.985  18.099  0.00  0.00    +0.000 A 
BRANCH  24  25
ATOM     25  C   UNL     1       5.191   5.637  18.157  0.00  0.00    +0.000 A 
ATOM     26  C   UNL     1       5.530   6.685  17.270  0.00  0.00    +0.000 A 
ATOM     27  C   UNL     1       6.801   7.272  17.268  0.00  0.00    +0.000 A 
ATOM     28  C   UNL     1       7.765   6.838  18.169  0.00  0.00    +0.000 A 
ATOM     29  C   UNL     1       7.461   5.816  19.061  0.00  0.00    +0.000 A 
ATOM     30  C   UNL     1       6.196   5.219  19.046  0.00  0.00    +0.000 A 
ENDBRANCH  24  25
ENDBRANCH  18  19
ENDBRANCH   5  18
TORSDOF 6
ENDMDL
MODEL 3
REMARK VINA RESULT:      -8.6      0.883      1.259
REMARK  Name = 
REMARK  6 active torsions:
REMARK  status: ('A' for Active; 'I' for Inactive)
REMARK    1  A    between atoms: C_2  and  C_11
REMARK    2  A    between atoms: N_3  and  C_4
REMARK    3  A    between atoms: C_4  and  C_5
REMARK    4  A    between atoms: C_15  and  O_16
REMARK    5  A    between atoms: O_16  and  C_17
REMARK    6  A    between atoms: C_22  and  C_23
REMARK                            x       y       z     vdW  Elec       q    Type
REMARK                         _______ _______ _______ _____ _____    ______ ____
ROOT
ATOM      1  C   UNL     1       1.238   9.575  20.169  0.00  0.00    +0.000 A 
ATOM      2  C   UNL     1       1.143   9.990  18.836  0.00  0.00    +0.000 A 
ATOM      3  C   UNL     1       1.541   9.143  17.806  0.00  0.00    +0.000 A 
ATOM      4  C   UNL     1       2.049   7.881  18.111  0.00  0.00    +0.000 A 
ATOM      5  C   UNL     1       2.230   7.487  19.441  0.00  0.00    +0.000 A 
ATOM      6  C   UNL     1       1.777   8.314  20.477  0.00  0.00    +0.000 A 
ENDROOT
BRANCH   1   8
ATOM      7  O   UNL     1       1.328  11.519  21.491  0.00  0.00    +0.000 OA
ATOM      8  C   UNL     1       0.710  10.493  21.212  0.00  0.00    +0.000 C 
ATOM      9  N   UNL     1      -0.450  10.114  21.847  0.00  0.00    +0.000 N 
ATOM     10  H   UNL     1      -0.754   9.153  21.773  0.00  0.00    +0.000 HD
BRANCH   9  11
ATOM     11  C   UNL     1      -0.968  10.893  22.948  0.00  0.00    +0.000 C 
BRANCH  11  12
ATOM     12  C   UNL     1      -2.073  11.819  22.510  0.00  0.00    +0.000 A 
ATOM     13  C   UNL     1      -2.116  12.332  21.206  0.00  0.00    +0.000 A 
ATOM     14  C   UNL     1      -3.180  13.140  20.800  0.00  0.00    +0.000 A 
ATOM     15  C   UNL     1      -4.203  13.454  21.693  0.00  0.00    +0.000 A 
ATOM     16  C   UNL     1      -4.155  12.975  23.001  0.00  0.00    +0.000 A 
ATOM     17  C   UNL     1      -3.092  12.167  23.409  0.00  0.00    +0.000 A 
ENDBRANCH  11  12
ENDBRANCH   9  11
ENDBRANCH   1   8
BRANCH   5  18
ATOM     18  O   UNL     1       2.805   6.278  19.795  0.00  0.00    +0.000 OA
BRANCH  18  19
ATOM     19  C   UNL     1       2.692   5.220  18.891  0.00  0.00    +0.000 A 
ATOM     20  N   UNL     1       1.489   4.590  18.840  0.00  0.00    +0.000 NA
ATOM     21  C   UNL     1       1.391   3.543  18.021  0.00  0.00    +0.000 A 
ATOM     22  N   UNL     1       2.350   3.111  17.203  0.00  0.00    +0.000 NA
ATOM     23  C   UNL     1       3.507   3.802  17.250  0.00  0.00    +0.000 A 
ATOM     24  C   UNL     1       3.782   4.886  18.084  0.00  0.00    +0.000 A 
BRANCH  24  25
ATOM     25  C   UNL     1       5.119   5.525  18.083  0.00  0.00    +0.000 A 
ATOM     26  C   UNL     1       6.117   5.131  19.006  0.00  0.00    +0.000 A 
ATOM     27  C   UNL     1       7.364   5.763  19.061  0.00  0.00    +0.000 A 
ATOM     28  C   UNL     1       7.656   6.796  18.179  0.00  0.00    +0.000 A 
ATOM     29  C   UNL     1       6.702   7.201  17.254  0.00  0.00    +0.000 A 
ATOM     30  C   UNL     1       5.449   6.579  17.216  0.00  0.00    +0.000 A 
ENDBRANCH  24  25
ENDBRANCH  18  19
ENDBRANCH   5  18
TORSDOF 6
ENDMDL
MODEL 4
REMARK VINA RESULT:      -8.5      0.899      1.269
REMARK  Name = 
REMARK  6 active torsions:
REMARK  status: ('A' for Active; 'I' for Inactive)
REMARK    1  A    between atoms: C_2  and  C_11
REMARK    2  A    between atoms: N_3  and  C_4
REMARK    3  A    between atoms: C_4  and  C_5
REMARK    4  A    between atoms: C_15  and  O_16
REMARK    5  A    between atoms: O_16  and  C_17
REMARK    6  A    between atoms: C_22  and  C_23
REMARK                            x       y       z     vdW  Elec       q    Type
REMARK                         _______ _______ _______ _____ _____    ______ ____
ROOT
ATOM      1  C   UNL     1       1.256   9.599  20.163  0.00  0.00    +0.000 A 
ATOM      2  C   UNL     1       1.179  10.004  18.826  0.00  0.00    +0.000 A 
ATOM      3  C   UNL     1       1.566   9.140  17.805  0.00  0.00    +0.000 A 
ATOM      4  C   UNL     1       2.044   7.870  18.125  0.00  0.00    +0.000 A 
ATOM      5  C   UNL     1       2.208   7.483  19.460  0.00  0.00    +0.000 A 
ATOM      6  C   UNL     1       1.766   8.329  20.486  0.00  0.00    +0.000 A 
ENDROOT
BRANCH   1   8
ATOM      7  O   UNL     1       1.359  11.572  21.440  0.00  0.00    +0.000 OA
ATOM      8  C   UNL     1       0.742  10.537  21.195  0.00  0.00    +0.000 C 
ATOM      9  N   UNL     1      -0.405  10.166  21.859  0.00  0.00    +0.000 N 
ATOM     10  H   UNL     1      -0.704   9.202  21.812  0.00  0.00    +0.000 HD
BRANCH   9  11
ATOM     11  C   UNL     1      -0.907  10.967  22.951  0.00  0.00    +0.000 C 
BRANCH  11  12
ATOM     12  C   UNL     1      -2.078  11.817  22.532  0.00  0.00    +0.000 A 
ATOM     13  C   UNL     1      -3.096  12.149  23.438  0.00  0.00    +0.000 A 
ATOM     14  C   UNL     1      -4.143  12.988  23.049  0.00  0.00    +0.000 A 
ATOM     15  C   UNL     1      -4.191  13.492  21.751  0.00  0.00    +0.000 A 
ATOM     16  C   UNL     1      -3.201  13.145  20.832  0.00  0.00    +0.000 A 
ATOM     17  C   UNL     1      -2.154  12.307  21.220  0.00  0.00    +0.000 A 
ENDBRANCH  11  12
ENDBRANCH   9  11
ENDBRANCH   1   8
BRANCH   5  18
ATOM     18  O   UNL     1       2.755   6.265  19.827  0.00  0.00    +0.000 OA
BRANCH  18  19
ATOM     19  C   UNL     1       2.683   5.221  18.904  0.00  0.00    +0.000 A 
ATOM     20  N   UNL     1       1.491   4.575  18.807  0.00  0.00    +0.000 NA
ATOM     21  C   UNL     1       1.433   3.541  17.970  0.00  0.00    +0.000 A 
ATOM     22  N   UNL     1       2.421   3.134  17.174  0.00  0.00    +0.000 NA
ATOM     23  C   UNL     1       3.567   3.840  17.267  0.00  0.00    +0.000 A 
ATOM     24  C   UNL     1       3.801   4.915  18.126  0.00  0.00    +0.000 A 
BRANCH  24  25
ATOM     25  C   UNL     1       5.129   5.571  18.175  0.00  0.00    +0.000 A 
ATOM     26  C   UNL     1       5.471   6.596  17.262  0.00  0.00    +0.000 A 
ATOM     27  C   UNL     1       6.741   7.185  17.253  0.00  0.00    +0.000 A 
ATOM     28  C   UNL     1       7.699   6.778  18.173  0.00  0.00    +0.000 A 
ATOM     29  C   UNL     1       7.392   5.781  19.090  0.00  0.00    +0.000 A 
ATOM     30  C   UNL     1       6.128   5.181  19.082  0.00  0.00    +0.000 A 
ENDBRANCH  24  25
ENDBRANCH  18  19
ENDBRANCH   5  18
TORSDOF 6
ENDMDL
MODEL 5
REMARK VINA RESULT:      -8.5      2.055      2.717
REMARK  Name = 
REMARK  6 active torsions:
REMARK  status: ('A' for Active; 'I' for Inactive)
REMARK    1  A    between atoms: C_2  and  C_11
REMARK    2  A    between atoms: N_3  and  C_4
REMARK    3  A    between atoms: C_4  and  C_5
REMARK    4  A    between atoms: C_15  and  O_16
REMARK    5  A    between atoms: O_16  and  C_17
REMARK    6  A    between atoms: C_22  and  C_23
REMARK                            x       y       z     vdW  Elec       q    Type
REMARK                         _______ _______ _______ _____ _____    ______ ____
ROOT
ATOM      1  C   UNL     1       1.416   8.815  19.369  0.00  0.00    +0.000 A 
ATOM      2  C   UNL     1       1.916   9.196  18.118  0.00  0.00    +0.000 A 
ATOM      3  C   UNL     1       2.800   8.368  17.433  0.00  0.00    +0.000 A 
ATOM      4  C   UNL     1       3.196   7.161  18.006  0.00  0.00    +0.000 A 
ATOM      5  C   UNL     1       2.773   6.808  19.292  0.00  0.00    +0.000 A 
ATOM      6  C   UNL     1       1.839   7.611  19.960  0.00  0.00    +0.000 A 
ENDROOT
BRANCH   1   8
ATOM      7  O   UNL     1      -0.035   9.426  21.117  0.00  0.00    +0.000 OA
ATOM      8  C   UNL     1       0.406   9.703  20.004  0.00  0.00    +0.000 C 
ATOM      9  N   UNL     1      -0.013  10.791  19.275  0.00  0.00    +0.000 N 
ATOM     10  H   UNL     1       0.174  10.813  18.281  0.00  0.00    +0.000 HD
BRANCH   9  11
ATOM     11  C   UNL     1      -1.071  11.640  19.772  0.00  0.00    +0.000 C 
BRANCH  11  12
ATOM     12  C   UNL     1      -2.343  11.473  18.983  0.00  0.00    +0.000 A 
ATOM     13  C   UNL     1      -2.401  10.619  17.872  0.00  0.00    +0.000 A 
ATOM     14  C   UNL     1      -3.605  10.430  17.189  0.00  0.00    +0.000 A 
ATOM     15  C   UNL     1      -4.756  11.100  17.598  0.00  0.00    +0.000 A 
ATOM     16  C   UNL     1      -4.703  11.975  18.681  0.00  0.00    +0.000 A 
ATOM     17  C   UNL     1      -3.501  12.165  19.366  0.00  0.00    +0.000 A 
ENDBRANCH  11  12
ENDBRANCH   9  11
ENDBRANCH   1   8
BRANCH   5  18
ATOM     18  O   UNL     1       3.203   5.660  19.936  0.00  0.00    +0.000 OA
BRANCH  18  19
ATOM     19  C   UNL     1       2.629   4.449  19.548  0.00  0.00    +0.000 A 
ATOM     20  N   UNL     1       1.454   4.114  20.143  0.00  0.00    +0.000 NA
ATOM     21  C   UNL     1       0.930   2.932  19.820  0.00  0.00    +0.000 A 
ATOM     22  N   UNL     1       1.426   2.089  18.914  0.00  0.00    +0.000 NA
ATOM     23  C   UNL     1       2.564   2.490  18.312  0.00  0.00    +0.000 A 
ATOM     24  C   UNL     1       3.258   3.672  18.573  0.00  0.00    +0.000 A 
BRANCH  24  25
ATOM     25  C   UNL     1       4.535   3.970  17.883  0.00  0.00    +0.000 A 
ATOM     26  C   UNL     1       5.684   4.362  18.609  0.00  0.00    +0.000 A 
ATOM     27  C   UNL     1       6.881   4.708  17.971  0.00  0.00    +0.000 A 
ATOM     28  C   UNL     1       6.968   4.650  16.585  0.00  0.00    +0.000 A 
ATOM     29  C   UNL     1       5.861   4.258  15.843  0.00  0.00    +0.000 A 
ATOM     30  C   UNL     1       4.660   3.934  16.484  0.00  0.00    +0.000 A 
ENDBRANCH  24  25
ENDBRANCH  18  19
ENDBRANCH   5  18
TORSDOF 6
ENDMDL
MODEL 6
REMARK VINA RESULT:      -8.5      2.022      2.673
REMARK  Name = 
REMARK  6 active torsions:
REMARK  status: ('A' for Active; 'I' for Inactive)
REMARK    1  A    between atoms: C_2  and  C_11
REMARK    2  A    between atoms: N_3  and  C_4
REMARK    3  A    between atoms: C_4  and  C_5
REMARK    4  A    between atoms: C_15  and  O_16
REMARK    5  A    between atoms: O_16  and  C_17
REMARK    6  A    between atoms: C_22  and  C_23
REMARK                            x       y       z     vdW  Elec       q    Type
REMARK                         _______ _______ _______ _____ _____    ______ ____
ROOT
ATOM      1  C   UNL     1       1.230   8.940  19.404  0.00  0.00    +0.000 A 
ATOM      2  C   UNL     1       1.727   9.352  18.162  0.00  0.00    +0.000 A 
ATOM      3  C   UNL     1       2.635   8.557  17.469  0.00  0.00    +0.000 A 
ATOM      4  C   UNL     1       3.057   7.351  18.026  0.00  0.00    +0.000 A 
ATOM      5  C   UNL     1       2.635   6.968  19.304  0.00  0.00    +0.000 A 
ATOM      6  C   UNL     1       1.679   7.738  19.978  0.00  0.00    +0.000 A 
ENDROOT
BRANCH   1   8
ATOM      7  O   UNL     1      -0.240   9.493  21.156  0.00  0.00    +0.000 OA
ATOM      8  C   UNL     1       0.196   9.793  20.046  0.00  0.00    +0.000 C 
ATOM      9  N   UNL     1      -0.253  10.877  19.328  0.00  0.00    +0.000 N 
ATOM     10  H   UNL     1      -0.066  10.914  18.335  0.00  0.00    +0.000 HD
BRANCH   9  11
ATOM     11  C   UNL     1      -1.334  11.691  19.832  0.00  0.00    +0.000 C 
BRANCH  11  12
ATOM     12  C   UNL     1      -2.545  11.634  18.938  0.00  0.00    +0.000 A 
ATOM     13  C   UNL     1      -3.790  12.111  19.370  0.00  0.00    +0.000 A 
ATOM     14  C   UNL     1      -4.888  12.107  18.506  0.00  0.00    +0.000 A 
ATOM     15  C   UNL     1      -4.756  11.615  17.209  0.00  0.00    +0.000 A 
ATOM     16  C   UNL     1      -3.531  11.109  16.778  0.00  0.00    +0.000 A 
ATOM     17  C   UNL     1      -2.433  11.114  17.640  0.00  0.00    +0.000 A 
ENDBRANCH  11  12
ENDBRANCH   9  11
ENDBRANCH   1   8
BRANCH   5  18
ATOM     18  O   UNL     1       3.090   5.821  19.933  0.00  0.00    +0.000 OA
BRANCH  18  19
ATOM     19  C   UNL     1       2.530   4.604  19.539  0.00  0.00    +0.000 A 
ATOM     20  N   UNL     1       1.344   4.266  20.110  0.00  0.00    +0.000 NA
ATOM     21  C   UNL     1       0.833   3.081  19.783  0.00  0.00    +0.000 A 
ATOM     22  N   UNL     1       1.352   2.235  18.892  0.00  0.00    +0.000 NA
ATOM     23  C   UNL     1       2.501   2.639  18.312  0.00  0.00    +0.000 A 
ATOM     24  C   UNL     1       3.184   3.825  18.582  0.00  0.00    +0.000 A 
BRANCH  24  25
ATOM     25  C   UNL     1       4.474   4.126  17.917  0.00  0.00    +0.000 A 
ATOM     26  C   UNL     1       4.602   4.062  16.510  0.00  0.00    +0.000 A 
ATOM     27  C   UNL     1       5.826   4.283  15.867  0.00  0.00    +0.000 A 
ATOM     28  C   UNL     1       6.954   4.595  16.616  0.00  0.00    +0.000 A 
ATOM     29  C   UNL     1       6.860   4.675  18.000  0.00  0.00    +0.000 A 
ATOM     30  C   UNL     1       5.639   4.434  18.639  0.00  0.00    +0.000 A 
ENDBRANCH  24  25
ENDBRANCH  18  19
ENDBRANCH   5  18
TORSDOF 6
ENDMDL
MODEL 7
REMARK VINA RESULT:      -8.5      1.177      1.488
REMARK  Name = 
REMARK  6 active torsions:
REMARK  status: ('A' for Active; 'I' for Inactive)
REMARK    1  A    between atoms: C_2  and  C_11
REMARK    2  A    between atoms: N_3  and  C_4
REMARK    3  A    between atoms: C_4  and  C_5
REMARK    4  A    between atoms: C_15  and  O_16
REMARK    5  A    between atoms: O_16  and  C_17
REMARK    6  A    between atoms: C_22  and  C_23
REMARK                            x       y       z     vdW  Elec       q    Type
REMARK                         _______ _______ _______ _____ _____    ______ ____
ROOT
ATOM      1  C   UNL     1       0.989   9.437  19.744  0.00  0.00    +0.000 A 
ATOM      2  C   UNL     1       1.275   9.926  18.464  0.00  0.00    +0.000 A 
ATOM      3  C   UNL     1       2.060   9.184  17.587  0.00  0.00    +0.000 A 
ATOM      4  C   UNL     1       2.573   7.954  17.996  0.00  0.00    +0.000 A 
ATOM      5  C   UNL     1       2.367   7.493  19.302  0.00  0.00    +0.000 A 
ATOM      6  C   UNL     1       1.531   8.211  20.167  0.00  0.00    +0.000 A 
ENDROOT
BRANCH   1   8
ATOM      7  O   UNL     1      -0.355   9.765  21.646  0.00  0.00    +0.000 OA
ATOM      8  C   UNL     1       0.071  10.239  20.595  0.00  0.00    +0.000 C 
ATOM      9  N   UNL     1      -0.287  11.482  20.127  0.00  0.00    +0.000 N 
ATOM     10  H   UNL     1      -0.131  11.699  19.152  0.00  0.00    +0.000 HD
BRANCH   9  11
ATOM     11  C   UNL     1      -1.262  12.277  20.838  0.00  0.00    +0.000 C 
BRANCH  11  12
ATOM     12  C   UNL     1      -2.611  12.242  20.169  0.00  0.00    +0.000 A 
ATOM     13  C   UNL     1      -3.740  12.801  20.784  0.00  0.00    +0.000 A 
ATOM     14  C   UNL     1      -4.971  12.814  20.123  0.00  0.00    +0.000 A 
ATOM     15  C   UNL     1      -5.089  12.256  18.852  0.00  0.00    +0.000 A 
ATOM     16  C   UNL     1      -3.981  11.669  18.244  0.00  0.00    +0.000 A 
ATOM     17  C   UNL     1      -2.750  11.657  18.902  0.00  0.00    +0.000 A 
ENDBRANCH  11  12
ENDBRANCH   9  11
ENDBRANCH   1   8
BRANCH   5  18
ATOM     18  O   UNL     1       2.923   6.318  19.780  0.00  0.00    +0.000 OA
BRANCH  18  19
ATOM     19  C   UNL     1       2.852   5.191  18.961  0.00  0.00    +0.000 A 
ATOM     20  N   UNL     1       1.658   4.544  18.916  0.00  0.00    +0.000 NA
ATOM     21  C   UNL     1       1.600   3.434  18.181  0.00  0.00    +0.000 A 
ATOM     22  N   UNL     1       2.593   2.949  17.436  0.00  0.00    +0.000 NA
ATOM     23  C   UNL     1       3.742   3.655  17.471  0.00  0.00    +0.000 A 
ATOM     24  C   UNL     1       3.975   4.806  18.225  0.00  0.00    +0.000 A 
BRANCH  24  25
ATOM     25  C   UNL     1       5.306   5.458  18.222  0.00  0.00    +0.000 A 
ATOM     26  C   UNL     1       6.272   5.150  19.208  0.00  0.00    +0.000 A 
ATOM     27  C   UNL     1       7.511   5.799  19.259  0.00  0.00    +0.000 A 
ATOM     28  C   UNL     1       7.827   6.763  18.309  0.00  0.00    +0.000 A 
ATOM     29  C   UNL     1       6.904   7.081  17.321  0.00  0.00    +0.000 A 
ATOM     30  C   UNL     1       5.659   6.444  17.286  0.00  0.00    +0.000 A 
ENDBRANCH  24  25
ENDBRANCH  18  19
ENDBRANCH   5  18
TORSDOF 6
ENDMDL
MODEL 8
REMARK VINA RESULT:      -8.4      1.254      1.681
REMARK  Name = 
REMARK  6 active torsions:
REMARK  status: ('A' for Active; 'I' for Inactive)
REMARK    1  A    between atoms: C_2  and  C_11
REMARK    2  A    between atoms: N_3  and  C_4
REMARK    3  A    between atoms: C_4  and  C_5
REMARK    4  A    between atoms: C_15  and  O_16
REMARK    5  A    between atoms: O_16  and  C_17
REMARK    6  A    between atoms: C_22  and  C_23
REMARK                            x       y       z     vdW  Elec       q    Type
REMARK                         _______ _______ _______ _____ _____    ______ ____
ROOT
ATOM      1  C   UNL     1       1.291   8.827  20.174  0.00  0.00    +0.000 A 
ATOM      2  C   UNL     1       1.299   9.384  18.889  0.00  0.00    +0.000 A 
ATOM      3  C   UNL     1       1.873   8.692  17.827  0.00  0.00    +0.000 A 
ATOM      4  C   UNL     1       2.451   7.444  18.052  0.00  0.00    +0.000 A 
ATOM      5  C   UNL     1       2.527   6.914  19.345  0.00  0.00    +0.000 A 
ATOM      6  C   UNL     1       1.900   7.582  20.405  0.00  0.00    +0.000 A 
ENDROOT
BRANCH   1   8
ATOM      7  O   UNL     1       0.147   8.980  22.224  0.00  0.00    +0.000 OA
ATOM      8  C   UNL     1       0.582   9.579  21.242  0.00  0.00    +0.000 C 
ATOM      9  N   UNL     1       0.417  10.931  21.049  0.00  0.00    +0.000 N 
ATOM     10  H   UNL     1       0.547  11.310  20.121  0.00  0.00    +0.000 HD
BRANCH   9  11
ATOM     11  C   UNL     1      -0.356  11.714  21.985  0.00  0.00    +0.000 C 
BRANCH  11  12
ATOM     12  C   UNL     1      -1.699  12.097  21.422  0.00  0.00    +0.000 A 
ATOM     13  C   UNL     1      -1.954  12.031  20.044  0.00  0.00    +0.000 A 
ATOM     14  C   UNL     1      -3.224  12.333  19.545  0.00  0.00    +0.000 A 
ATOM     15  C   UNL     1      -4.245  12.715  20.413  0.00  0.00    +0.000 A 
ATOM     16  C   UNL     1      -3.995  12.814  21.781  0.00  0.00    +0.000 A 
ATOM     17  C   UNL     1      -2.727  12.512  22.281  0.00  0.00    +0.000 A 
ENDBRANCH  11  12
ENDBRANCH   9  11
ENDBRANCH   1   8
BRANCH   5  18
ATOM     18  O   UNL     1       3.163   5.718  19.631  0.00  0.00    +0.000 OA
BRANCH  18  19
ATOM     19  C   UNL     1       2.618   4.552  19.090  0.00  0.00    +0.000 A 
ATOM     20  N   UNL     1       1.401   4.173  19.561  0.00  0.00    +0.000 NA
ATOM     21  C   UNL     1       0.902   3.031  19.091  0.00  0.00    +0.000 A 
ATOM     22  N   UNL     1       1.464   2.271  18.151  0.00  0.00    +0.000 NA
ATOM     23  C   UNL     1       2.644   2.717  17.676  0.00  0.00    +0.000 A 
ATOM     24  C   UNL     1       3.319   3.863  18.098  0.00  0.00    +0.000 A 
BRANCH  24  25
ATOM     25  C   UNL     1       4.645   4.213  17.536  0.00  0.00    +0.000 A 
ATOM     26  C   UNL     1       5.751   4.468  18.380  0.00  0.00    +0.000 A 
ATOM     27  C   UNL     1       6.995   4.860  17.872  0.00  0.00    +0.000 A 
ATOM     28  C   UNL     1       7.173   4.988  16.499  0.00  0.00    +0.000 A 
ATOM     29  C   UNL     1       6.109   4.736  15.642  0.00  0.00    +0.000 A 
ATOM     30  C   UNL     1       4.861   4.364  16.156  0.00  0.00    +0.000 A 
ENDBRANCH  24  25
ENDBRANCH  18  19
ENDBRANCH   5  18
TORSDOF 6
ENDMDL
MODEL 9
REMARK VINA RESULT:      -8.4      1.160      1.457
REMARK  Name = 
REMARK  6 active torsions:
REMARK  status: ('A' for Active; 'I' for Inactive)
REMARK    1  A    between atoms: C_2  and  C_11
REMARK    2  A    between atoms: N_3  and  C_4
REMARK    3  A    between atoms: C_4  and  C_5
REMARK    4  A    between atoms: C_15  and  O_16
REMARK    5  A    between atoms: O_16  and  C_17
REMARK    6  A    between atoms: C_22  and  C_23
REMARK                            x       y       z     vdW  Elec       q    Type
REMARK                         _______ _______ _______ _____ _____    ______ ____
ROOT
ATOM      1  C   UNL     1       0.802   9.064  20.617  0.00  0.00    +0.000 A 
ATOM      2  C   UNL     1       0.847   9.781  19.416  0.00  0.00    +0.000 A 
ATOM      3  C   UNL     1       1.554   9.284  18.326  0.00  0.00    +0.000 A 
ATOM      4  C   UNL     1       2.231   8.070  18.442  0.00  0.00    +0.000 A 
ATOM      5  C   UNL     1       2.266   7.385  19.661  0.00  0.00    +0.000 A 
ATOM      6  C   UNL     1       1.508   7.855  20.742  0.00  0.00    +0.000 A 
ENDROOT
BRANCH   1   8
ATOM      7  O   UNL     1      -0.669   8.840  22.439  0.00  0.00    +0.000 OA
ATOM      8  C   UNL     1      -0.046   9.609  21.710  0.00  0.00    +0.000 C 
ATOM      9  N   UNL     1      -0.116  10.978  21.822  0.00  0.00    +0.000 N 
ATOM     10  H   UNL     1       0.188  11.546  21.042  0.00  0.00    +0.000 HD
BRANCH   9  11
ATOM     11  C   UNL     1      -1.003  11.588  22.784  0.00  0.00    +0.000 C 
BRANCH  11  12
ATOM     12  C   UNL     1      -1.189  13.060  22.523  0.00  0.00    +0.000 A 
ATOM     13  C   UNL     1      -1.212  13.568  21.216  0.00  0.00    +0.000 A 
ATOM     14  C   UNL     1      -1.446  14.927  20.990  0.00  0.00    +0.000 A 
ATOM     15  C   UNL     1      -1.647  15.791  22.064  0.00  0.00    +0.000 A 
ATOM     16  C   UNL     1      -1.596  15.303  23.369  0.00  0.00    +0.000 A 
ATOM     17  C   UNL     1      -1.363  13.945  23.597  0.00  0.00    +0.000 A 
ENDBRANCH  11  12
ENDBRANCH   9  11
ENDBRANCH   1   8
BRANCH   5  18
ATOM     18  O   UNL     1       2.990   6.220  19.848  0.00  0.00    +0.000 OA
BRANCH  18  19
ATOM     19  C   UNL     1       2.865   5.221  18.883  0.00  0.00    +0.000 A 
ATOM     20  N   UNL     1       1.664   4.589  18.812  0.00  0.00    +0.000 NA
ATOM     21  C   UNL     1       1.556   3.595  17.932  0.00  0.00    +0.000 A 
ATOM     22  N   UNL     1       2.502   3.219  17.072  0.00  0.00    +0.000 NA
ATOM     23  C   UNL     1       3.658   3.911  17.144  0.00  0.00    +0.000 A 
ATOM     24  C   UNL     1       3.943   4.942  18.039  0.00  0.00    +0.000 A 
BRANCH  24  25
ATOM     25  C   UNL     1       5.278   5.585  18.056  0.00  0.00    +0.000 A 
ATOM     26  C   UNL     1       6.275   5.174  18.972  0.00  0.00    +0.000 A 
ATOM     27  C   UNL     1       7.520   5.809  19.045  0.00  0.00    +0.000 A 
ATOM     28  C   UNL     1       7.811   6.863  18.188  0.00  0.00    +0.000 A 
ATOM     29  C   UNL     1       6.857   7.285  17.270  0.00  0.00    +0.000 A 
ATOM     30  C   UNL     1       5.606   6.660  17.214  0.00  0.00    +0.000 A 
ENDBRANCH  24  25
ENDBRANCH  18  19
ENDBRANCH   5  18
TORSDOF 6
ENDMDL
