MODEL 1
REMARK VINA RESULT:      -9.4      0.000      0.000
REMARK  Name = 
REMARK  6 active torsions:
REMARK  status: ('A' for Active; 'I' for Inactive)
REMARK    1  A    between atoms: C_1  and  C_2
REMARK    2  A    between atoms: C_6  and  C_7
REMARK    3  A    between atoms: N_13  and  C_14
REMARK    4  A    between atoms: C_18  and  C_19
REMARK    5  A    between atoms: C_19  and  N_20
REMARK    6  A    between atoms: N_25  and  C_26
REMARK                            x       y       z     vdW  Elec       q    Type
REMARK                         _______ _______ _______ _____ _____    ______ ____
ROOT
ATOM      1  C   UNL     1       0.679   9.326  20.489  0.00  0.00    +0.000 A 
ATOM      2  C   UNL     1       0.471   9.423  21.869  0.00  0.00    +0.000 A 
ATOM      3  C   UNL     1      -0.256  10.463  22.425  0.00  0.00    +0.000 A 
ATOM      4  C   UNL     1      -0.789  11.442  21.597  0.00  0.00    +0.000 A 
ATOM      5  C   UNL     1      -0.569  11.436  20.204  0.00  0.00    +0.000 A 
ATOM      6  C   UNL     1       0.186  10.362  19.671  0.00  0.00    +0.000 A 
ENDROOT
BRANCH   1  15
ATOM      7  C   UNL     1       5.142   4.710  16.813  0.00  0.00    +0.000 C 
ATOM      8  C   UNL     1       4.149   5.179  17.833  0.00  0.00    +0.000 A 
ATOM      9  C   UNL     1       3.681   6.485  17.785  0.00  0.00    +0.000 A 
ATOM     10  C   UNL     1       2.764   6.878  18.744  0.00  0.00    +0.000 A 
ATOM     11  C   UNL     1       2.293   6.064  19.765  0.00  0.00    +0.000 A 
ATOM     12  C   UNL     1       2.724   4.741  19.820  0.00  0.00    +0.000 A 
ATOM     13  C   UNL     1       3.661   4.314  18.839  0.00  0.00    +0.000 A 
ATOM     14  C   UNL     1       1.356   6.868  20.630  0.00  0.00    +0.000 C 
ATOM     15  N   UNL     1       1.315   8.170  19.961  0.00  0.00    +0.000 N 
ATOM     16  C   UNL     1       2.134   8.175  18.831  0.00  0.00    +0.000 C 
ATOM     17  O   UNL     1       2.369   9.030  17.988  0.00  0.00    +0.000 OA
BRANCH  12  18
ATOM     18  C   UNL     1       2.222   3.757  20.840  0.00  0.00    +0.000 C 
ATOM     19  F   UNL     1       2.465   4.130  22.126  0.00  0.00    +0.000 F 
ATOM     20  F   UNL     1       0.877   3.571  20.753  0.00  0.00    +0.000 F 
ATOM     21  F   UNL     1       2.781   2.525  20.694  0.00  0.00    +0.000 F 
ENDBRANCH  12  18
ENDBRANCH   1  15
BRANCH   5  22
ATOM     22  C   UNL     1      -1.183  12.536  19.325  0.00  0.00    +0.000 C 
ATOM     23  C   UNL     1      -0.279  13.359  18.426  0.00  0.00    +0.000 C 
ATOM     24  C   UNL     1      -0.812  13.985  19.670  0.00  0.00    +0.000 C 
BRANCH  22  25
ATOM     25  N   UNL     1      -2.611  12.313  18.979  0.00  0.00    +0.000 N 
ATOM     26  C   UNL     1      -2.886  11.662  17.822  0.00  0.00    +0.000 A 
ATOM     27  N   UNL     1      -2.077  11.072  16.966  0.00  0.00    +0.000 NA
ATOM     28  N   UNL     1      -2.812  10.668  15.874  0.00  0.00    +0.000 NA
ATOM     29  C   UNL     1      -4.065  10.975  16.109  0.00  0.00    +0.000 A 
ATOM     30  N   UNL     1      -4.167  11.571  17.329  0.00  0.00    +0.000 N 
ATOM     31  C   UNL     1      -5.388  12.055  17.913  0.00  0.00    +0.000 C 
ATOM     32  H   UNL     1      -3.234  13.063  19.251  0.00  0.00    +0.000 HD
ENDBRANCH  22  25
ENDBRANCH   5  22
TORSDOF 4
ENDMDL
MODEL 2
REMARK VINA RESULT:      -9.4      2.546      4.115
REMARK  Name = 
REMARK  6 active torsions:
REMARK  status: ('A' for Active; 'I' for Inactive)
REMARK    1  A    between atoms: C_1  and  C_2
REMARK    2  A    between atoms: C_6  and  C_7
REMARK    3  A    between atoms: N_13  and  C_14
REMARK    4  A    between atoms: C_18  and  C_19
REMARK    5  A    between atoms: C_19  and  N_20
REMARK    6  A    between atoms: N_25  and  C_26
REMARK                            x       y       z     vdW  Elec       q    Type
REMARK                         _______ _______ _______ _____ _____    ______ ____
ROOT
ATOM      1  C   UNL     1       1.806   7.892  19.655  0.00  0.00    +0.000 A 
ATOM      2  C   UNL     1       1.500   7.622  20.993  0.00  0.00    +0.000 A 
ATOM      3  C   UNL     1       0.787   8.518  21.773  0.00  0.00    +0.000 A 
ATOM      4  C   UNL     1       0.367   9.720  21.219  0.00  0.00    +0.000 A 
ATOM      5  C   UNL     1       0.689  10.080  19.895  0.00  0.00    +0.000 A 
ATOM      6  C   UNL     1       1.428   9.144  19.130  0.00  0.00    +0.000 A 
ENDROOT
BRANCH   1  15
ATOM      7  C   UNL     1       6.348   4.138  15.180  0.00  0.00    +0.000 C 
ATOM      8  C   UNL     1       5.278   4.384  16.201  0.00  0.00    +0.000 A 
ATOM      9  C   UNL     1       4.904   5.686  16.504  0.00  0.00    +0.000 A 
ATOM     10  C   UNL     1       3.911   5.869  17.451  0.00  0.00    +0.000 A 
ATOM     11  C   UNL     1       3.276   4.843  18.136  0.00  0.00    +0.000 A 
ATOM     12  C   UNL     1       3.612   3.527  17.831  0.00  0.00    +0.000 A 
ATOM     13  C   UNL     1       4.624   3.314  16.855  0.00  0.00    +0.000 A 
ATOM     14  C   UNL     1       2.301   5.447  19.115  0.00  0.00    +0.000 C 
ATOM     15  N   UNL     1       2.422   6.884  18.864  0.00  0.00    +0.000 N 
ATOM     16  C   UNL     1       3.361   7.139  17.865  0.00  0.00    +0.000 C 
ATOM     17  O   UNL     1       3.746   8.175  17.340  0.00  0.00    +0.000 OA
BRANCH  12  18
ATOM     18  C   UNL     1       2.935   2.341  18.462  0.00  0.00    +0.000 C 
ATOM     19  F   UNL     1       1.616   2.231  18.145  0.00  0.00    +0.000 F 
ATOM     20  F   UNL     1       3.507   1.165  18.087  0.00  0.00    +0.000 F 
ATOM     21  F   UNL     1       2.994   2.369  19.821  0.00  0.00    +0.000 F 
ENDBRANCH  12  18
ENDBRANCH   1  15
BRANCH   5  22
ATOM     22  C   UNL     1       0.198  11.419  19.322  0.00  0.00    +0.000 C 
ATOM     23  C   UNL     1      -1.130  11.984  19.788  0.00  0.00    +0.000 C 
ATOM     24  C   UNL     1      -1.048  11.374  18.430  0.00  0.00    +0.000 C 
BRANCH  22  25
ATOM     25  N   UNL     1       1.288  12.312  18.847  0.00  0.00    +0.000 N 
ATOM     26  C   UNL     1       2.000  12.991  19.780  0.00  0.00    +0.000 A 
ATOM     27  N   UNL     1       1.969  12.914  21.095  0.00  0.00    +0.000 NA
ATOM     28  N   UNL     1       2.780  13.899  21.612  0.00  0.00    +0.000 NA
ATOM     29  C   UNL     1       3.330  14.526  20.599  0.00  0.00    +0.000 A 
ATOM     30  N   UNL     1       2.897  13.974  19.432  0.00  0.00    +0.000 N 
ATOM     31  C   UNL     1       3.280  14.413  18.118  0.00  0.00    +0.000 C 
ATOM     32  H   UNL     1       1.094  12.785  17.973  0.00  0.00    +0.000 HD
ENDBRANCH  22  25
ENDBRANCH   5  22
TORSDOF 4
ENDMDL
MODEL 3
REMARK VINA RESULT:      -9.4      1.466      2.120
REMARK  Name = 
REMARK  6 active torsions:
REMARK  status: ('A' for Active; 'I' for Inactive)
REMARK    1  A    between atoms: C_1  and  C_2
REMARK    2  A    between atoms: C_6  and  C_7
REMARK    3  A    between atoms: N_13  and  C_14
REMARK    4  A    between atoms: C_18  and  C_19
REMARK    5  A    between atoms: C_19  and  N_20
REMARK    6  A    between atoms: N_25  and  C_26
REMARK                            x       y       z     vdW  Elec       q    Type
REMARK                         _______ _______ _______ _____ _____    ______ ____
ROOT
ATOM      1  C   UNL     1       1.732   8.030  19.666  0.00  0.00    +0.000 A 
ATOM      2  C   UNL     1       1.432   7.690  20.990  0.00  0.00    +0.000 A 
ATOM      3  C   UNL     1       0.683   8.523  21.804  0.00  0.00    +0.000 A 
ATOM      4  C   UNL     1       0.220   9.732  21.302  0.00  0.00    +0.000 A 
ATOM      5  C   UNL     1       0.533  10.162  19.997  0.00  0.00    +0.000 A 
ATOM      6  C   UNL     1       1.309   9.288  19.195  0.00  0.00    +0.000 A 
ENDROOT
BRANCH   1  15
ATOM      7  C   UNL     1       6.361   4.681  14.964  0.00  0.00    +0.000 C 
ATOM      8  C   UNL     1       5.313   4.833  16.026  0.00  0.00    +0.000 A 
ATOM      9  C   UNL     1       4.862   6.101  16.368  0.00  0.00    +0.000 A 
ATOM     10  C   UNL     1       3.893   6.198  17.351  0.00  0.00    +0.000 A 
ATOM     11  C   UNL     1       3.355   5.117  18.037  0.00  0.00    +0.000 A 
ATOM     12  C   UNL     1       3.769   3.833  17.695  0.00  0.00    +0.000 A 
ATOM     13  C   UNL     1       4.758   3.709  16.681  0.00  0.00    +0.000 A 
ATOM     14  C   UNL     1       2.375   5.634  19.061  0.00  0.00    +0.000 C 
ATOM     15  N   UNL     1       2.387   7.081  18.834  0.00  0.00    +0.000 N 
ATOM     16  C   UNL     1       3.271   7.418  17.810  0.00  0.00    +0.000 C 
ATOM     17  O   UNL     1       3.564   8.488  17.292  0.00  0.00    +0.000 OA
BRANCH  12  18
ATOM     18  C   UNL     1       3.198   2.592  18.324  0.00  0.00    +0.000 C 
ATOM     19  F   UNL     1       1.858   2.451  18.137  0.00  0.00    +0.000 F 
ATOM     20  F   UNL     1       3.765   1.459  17.828  0.00  0.00    +0.000 F 
ATOM     21  F   UNL     1       3.397   2.552  19.670  0.00  0.00    +0.000 F 
ENDBRANCH  12  18
ENDBRANCH   1  15
BRANCH   5  22
ATOM     22  C   UNL     1      -0.005  11.505  19.481  0.00  0.00    +0.000 C 
ATOM     23  C   UNL     1       0.882  12.376  18.610  0.00  0.00    +0.000 C 
ATOM     24  C   UNL     1       0.661  12.774  20.030  0.00  0.00    +0.000 C 
BRANCH  22  25
ATOM     25  N   UNL     1      -1.486  11.564  19.368  0.00  0.00    +0.000 N 
ATOM     26  C   UNL     1      -2.060  10.978  18.289  0.00  0.00    +0.000 A 
ATOM     27  N   UNL     1      -1.526  10.241  17.336  0.00  0.00    +0.000 NA
ATOM     28  N   UNL     1      -2.488   9.987  16.385  0.00  0.00    +0.000 NA
ATOM     29  C   UNL     1      -3.605  10.533  16.801  0.00  0.00    +0.000 A 
ATOM     30  N   UNL     1      -3.396  11.138  18.003  0.00  0.00    +0.000 N 
ATOM     31  C   UNL     1      -4.394  11.851  18.754  0.00  0.00    +0.000 C 
ATOM     32  H   UNL     1      -1.901  12.421  19.710  0.00  0.00    +0.000 HD
ENDBRANCH  22  25
ENDBRANCH   5  22
TORSDOF 4
ENDMDL
MODEL 4
REMARK VINA RESULT:      -9.3      2.551      3.095
REMARK  Name = 
REMARK  6 active torsions:
REMARK  status: ('A' for Active; 'I' for Inactive)
REMARK    1  A    between atoms: C_1  and  C_2
REMARK    2  A    between atoms: C_6  and  C_7
REMARK    3  A    between atoms: N_13  and  C_14
REMARK    4  A    between atoms: C_18  and  C_19
REMARK    5  A    between atoms: C_19  and  N_20
REMARK    6  A    between atoms: N_25  and  C_26
REMARK                            x       y       z     vdW  Elec       q    Type
REMARK                         _______ _______ _______ _____ _____    ______ ____
ROOT
ATOM      1  C   UNL     1       1.465   8.412  20.296  0.00  0.00    +0.000 A 
ATOM      2  C   UNL     1       1.113   8.299  21.646  0.00  0.00    +0.000 A 
ATOM      3  C   UNL     1       0.312   9.239  22.272  0.00  0.00    +0.000 A 
ATOM      4  C   UNL     1      -0.154  10.329  21.547  0.00  0.00    +0.000 A 
ATOM      5  C   UNL     1       0.208  10.534  20.201  0.00  0.00    +0.000 A 
ATOM      6  C   UNL     1       1.037   9.557  19.596  0.00  0.00    +0.000 A 
ENDROOT
BRANCH   1  15
ATOM      7  C   UNL     1       3.607   1.802  17.753  0.00  0.00    +0.000 C 
ATOM      8  C   UNL     1       3.541   3.294  17.891  0.00  0.00    +0.000 A 
ATOM      9  C   UNL     1       2.740   3.857  18.875  0.00  0.00    +0.000 A 
ATOM     10  C   UNL     1       2.709   5.238  18.971  0.00  0.00    +0.000 A 
ATOM     11  C   UNL     1       3.407   6.101  18.138  0.00  0.00    +0.000 A 
ATOM     12  C   UNL     1       4.240   5.563  17.162  0.00  0.00    +0.000 A 
ATOM     13  C   UNL     1       4.294   4.146  17.050  0.00  0.00    +0.000 A 
ATOM     14  C   UNL     1       3.072   7.520  18.524  0.00  0.00    +0.000 C 
ATOM     15  N   UNL     1       2.177   7.352  19.671  0.00  0.00    +0.000 N 
ATOM     16  C   UNL     1       1.973   6.001  19.951  0.00  0.00    +0.000 C 
ATOM     17  O   UNL     1       1.331   5.427  20.821  0.00  0.00    +0.000 OA
BRANCH  12  18
ATOM     18  C   UNL     1       5.095   6.407  16.256  0.00  0.00    +0.000 C 
ATOM     19  F   UNL     1       6.023   7.151  16.916  0.00  0.00    +0.000 F 
ATOM     20  F   UNL     1       5.789   5.655  15.359  0.00  0.00    +0.000 F 
ATOM     21  F   UNL     1       4.362   7.286  15.520  0.00  0.00    +0.000 F 
ENDBRANCH  12  18
ENDBRANCH   1  15
BRANCH   5  22
ATOM     22  C   UNL     1      -0.334  11.751  19.437  0.00  0.00    +0.000 C 
ATOM     23  C   UNL     1       0.586  12.513  18.501  0.00  0.00    +0.000 C 
ATOM     24  C   UNL     1       0.241  13.121  19.818  0.00  0.00    +0.000 C 
BRANCH  22  25
ATOM     25  N   UNL     1      -1.803  11.721  19.210  0.00  0.00    +0.000 N 
ATOM     26  C   UNL     1      -2.261  11.051  18.124  0.00  0.00    +0.000 A 
ATOM     27  N   UNL     1      -1.617  10.297  17.256  0.00  0.00    +0.000 NA
ATOM     28  N   UNL     1      -2.487   9.942  16.251  0.00  0.00    +0.000 NA
ATOM     29  C   UNL     1      -3.660  10.445  16.552  0.00  0.00    +0.000 A 
ATOM     30  N   UNL     1      -3.577  11.121  17.730  0.00  0.00    +0.000 N 
ATOM     31  C   UNL     1      -4.666  11.815  18.364  0.00  0.00    +0.000 C 
ATOM     32  H   UNL     1      -2.288  12.570  19.471  0.00  0.00    +0.000 HD
ENDBRANCH  22  25
ENDBRANCH   5  22
TORSDOF 4
ENDMDL
MODEL 5
REMARK VINA RESULT:      -9.2      0.897      1.219
REMARK  Name = 
REMARK  6 active torsions:
REMARK  status: ('A' for Active; 'I' for Inactive)
REMARK    1  A    between atoms: C_1  and  C_2
REMARK    2  A    between atoms: C_6  and  C_7
REMARK    3  A    between atoms: N_13  and  C_14
REMARK    4  A    between atoms: C_18  and  C_19
REMARK    5  A    between atoms: C_19  and  N_20
REMARK    6  A    between atoms: N_25  and  C_26
REMARK                            x       y       z     vdW  Elec       q    Type
REMARK                         _______ _______ _______ _____ _____    ______ ____
ROOT
ATOM      1  C   UNL     1       1.276   8.646  20.355  0.00  0.00    +0.000 A 
ATOM      2  C   UNL     1       1.124   8.550  21.742  0.00  0.00    +0.000 A 
ATOM      3  C   UNL     1       0.454   9.518  22.472  0.00  0.00    +0.000 A 
ATOM      4  C   UNL     1      -0.079  10.620  21.815  0.00  0.00    +0.000 A 
ATOM      5  C   UNL     1       0.087  10.809  20.428  0.00  0.00    +0.000 A 
ATOM      6  C   UNL     1       0.786   9.802  19.715  0.00  0.00    +0.000 A 
ENDROOT
BRANCH   1  15
ATOM      7  C   UNL     1       5.452   4.487  15.883  0.00  0.00    +0.000 C 
ATOM      8  C   UNL     1       4.509   4.831  16.996  0.00  0.00    +0.000 A 
ATOM      9  C   UNL     1       4.087   6.144  17.157  0.00  0.00    +0.000 A 
ATOM     10  C   UNL     1       3.215   6.419  18.196  0.00  0.00    +0.000 A 
ATOM     11  C   UNL     1       2.747   5.479  19.103  0.00  0.00    +0.000 A 
ATOM     12  C   UNL     1       3.132   4.150  18.947  0.00  0.00    +0.000 A 
ATOM     13  C   UNL     1       4.022   3.842  17.882  0.00  0.00    +0.000 A 
ATOM     14  C   UNL     1       1.867   6.175  20.110  0.00  0.00    +0.000 C 
ATOM     15  N   UNL     1       1.853   7.562  19.640  0.00  0.00    +0.000 N 
ATOM     16  C   UNL     1       2.636   7.708  18.495  0.00  0.00    +0.000 C 
ATOM     17  O   UNL     1       2.875   8.670  17.778  0.00  0.00    +0.000 OA
BRANCH  12  18
ATOM     18  C   UNL     1       2.627   3.041  19.830  0.00  0.00    +0.000 C 
ATOM     19  F   UNL     1       3.097   1.812  19.487  0.00  0.00    +0.000 F 
ATOM     20  F   UNL     1       2.976   3.224  21.132  0.00  0.00    +0.000 F 
ATOM     21  F   UNL     1       1.269   2.942  19.817  0.00  0.00    +0.000 F 
ENDBRANCH  12  18
ENDBRANCH   1  15
BRANCH   5  22
ATOM     22  C   UNL     1      -0.523  12.040  19.742  0.00  0.00    +0.000 C 
ATOM     23  C   UNL     1       0.318  12.840  18.765  0.00  0.00    +0.000 C 
ATOM     24  C   UNL     1       0.063  13.406  20.121  0.00  0.00    +0.000 C 
BRANCH  22  25
ATOM     25  N   UNL     1      -2.005  11.997  19.622  0.00  0.00    +0.000 N 
ATOM     26  C   UNL     1      -2.531  11.539  18.460  0.00  0.00    +0.000 A 
ATOM     27  N   UNL     1      -1.940  11.000  17.413  0.00  0.00    +0.000 NA
ATOM     28  N   UNL     1      -2.879  10.818  16.423  0.00  0.00    +0.000 NA
ATOM     29  C   UNL     1      -4.036  11.204  16.905  0.00  0.00    +0.000 A 
ATOM     30  N   UNL     1      -3.876  11.634  18.186  0.00  0.00    +0.000 N 
ATOM     31  C   UNL     1      -4.927  12.143  19.025  0.00  0.00    +0.000 C 
ATOM     32  H   UNL     1      -2.487  12.757  20.085  0.00  0.00    +0.000 HD
ENDBRANCH  22  25
ENDBRANCH   5  22
TORSDOF 4
ENDMDL
MODEL 6
REMARK VINA RESULT:      -9.1      3.390      4.772
REMARK  Name = 
REMARK  6 active torsions:
REMARK  status: ('A' for Active; 'I' for Inactive)
REMARK    1  A    between atoms: C_1  and  C_2
REMARK    2  A    between atoms: C_6  and  C_7
REMARK    3  A    between atoms: N_13  and  C_14
REMARK    4  A    between atoms: C_18  and  C_19
REMARK    5  A    between atoms: C_19  and  N_20
REMARK    6  A    between atoms: N_25  and  C_26
REMARK                            x       y       z     vdW  Elec       q    Type
REMARK                         _______ _______ _______ _____ _____    ______ ____
ROOT
ATOM      1  C   UNL     1       1.496   8.338  20.162  0.00  0.00    +0.000 A 
ATOM      2  C   UNL     1       0.935   8.161  21.432  0.00  0.00    +0.000 A 
ATOM      3  C   UNL     1       0.115   9.118  22.006  0.00  0.00    +0.000 A 
ATOM      4  C   UNL     1      -0.157  10.289  21.311  0.00  0.00    +0.000 A 
ATOM      5  C   UNL     1       0.420  10.557  20.053  0.00  0.00    +0.000 A 
ATOM      6  C   UNL     1       1.262   9.559  19.500  0.00  0.00    +0.000 A 
ENDROOT
BRANCH   1  15
ATOM      7  C   UNL     1       3.695   1.690  17.772  0.00  0.00    +0.000 C 
ATOM      8  C   UNL     1       3.622   3.184  17.880  0.00  0.00    +0.000 A 
ATOM      9  C   UNL     1       2.807   3.762  18.844  0.00  0.00    +0.000 A 
ATOM     10  C   UNL     1       2.769   5.144  18.913  0.00  0.00    +0.000 A 
ATOM     11  C   UNL     1       3.472   5.994  18.071  0.00  0.00    +0.000 A 
ATOM     12  C   UNL     1       4.318   5.441  17.114  0.00  0.00    +0.000 A 
ATOM     13  C   UNL     1       4.379   4.022  17.031  0.00  0.00    +0.000 A 
ATOM     14  C   UNL     1       3.126   7.419  18.425  0.00  0.00    +0.000 C 
ATOM     15  N   UNL     1       2.220   7.269  19.565  0.00  0.00    +0.000 N 
ATOM     16  C   UNL     1       2.019   5.923  19.870  0.00  0.00    +0.000 C 
ATOM     17  O   UNL     1       1.370   5.364  20.744  0.00  0.00    +0.000 OA
BRANCH  12  18
ATOM     18  C   UNL     1       5.178   6.271  16.201  0.00  0.00    +0.000 C 
ATOM     19  F   UNL     1       4.477   7.166  15.454  0.00  0.00    +0.000 F 
ATOM     20  F   UNL     1       6.100   6.999  16.888  0.00  0.00    +0.000 F 
ATOM     21  F   UNL     1       5.883   5.513  15.317  0.00  0.00    +0.000 F 
ENDBRANCH  12  18
ENDBRANCH   1  15
BRANCH   5  22
ATOM     22  C   UNL     1       0.087  11.863  19.318  0.00  0.00    +0.000 C 
ATOM     23  C   UNL     1      -1.221  12.572  19.616  0.00  0.00    +0.000 C 
ATOM     24  C   UNL     1      -1.089  11.824  18.334  0.00  0.00    +0.000 C 
BRANCH  22  25
ATOM     25  N   UNL     1       1.280  12.619  18.851  0.00  0.00    +0.000 N 
ATOM     26  C   UNL     1       2.074  13.187  19.791  0.00  0.00    +0.000 A 
ATOM     27  N   UNL     1       2.038  13.094  21.104  0.00  0.00    +0.000 NA
ATOM     28  N   UNL     1       2.969  13.960  21.633  0.00  0.00    +0.000 NA
ATOM     29  C   UNL     1       3.591  14.528  20.628  0.00  0.00    +0.000 A 
ATOM     30  N   UNL     1       3.088  14.054  19.454  0.00  0.00    +0.000 N 
ATOM     31  C   UNL     1       3.520  14.462  18.145  0.00  0.00    +0.000 C 
ATOM     32  H   UNL     1       1.146  13.126  17.985  0.00  0.00    +0.000 HD
ENDBRANCH  22  25
ENDBRANCH   5  22
TORSDOF 4
ENDMDL
MODEL 7
REMARK VINA RESULT:      -9.0      2.657      4.105
REMARK  Name = 
REMARK  6 active torsions:
REMARK  status: ('A' for Active; 'I' for Inactive)
REMARK    1  A    between atoms: C_1  and  C_2
REMARK    2  A    between atoms: C_6  and  C_7
REMARK    3  A    between atoms: N_13  and  C_14
REMARK    4  A    between atoms: C_18  and  C_19
REMARK    5  A    between atoms: C_19  and  N_20
REMARK    6  A    between atoms: N_25  and  C_26
REMARK                            x       y       z     vdW  Elec       q    Type
REMARK                         _______ _______ _______ _____ _____    ______ ____
ROOT
ATOM      1  C   UNL     1       0.960   9.150  20.657  0.00  0.00    +0.000 A 
ATOM      2  C   UNL     1       0.318   9.101  21.900  0.00  0.00    +0.000 A 
ATOM      3  C   UNL     1      -0.309  10.211  22.440  0.00  0.00    +0.000 A 
ATOM      4  C   UNL     1      -0.299  11.410  21.739  0.00  0.00    +0.000 A 
ATOM      5  C   UNL     1       0.378  11.545  20.510  0.00  0.00    +0.000 A 
ATOM      6  C   UNL     1       1.016  10.390  19.991  0.00  0.00    +0.000 A 
ENDROOT
BRANCH   1  15
ATOM      7  C   UNL     1       4.819   4.222  16.712  0.00  0.00    +0.000 C 
ATOM      8  C   UNL     1       3.927   4.761  17.790  0.00  0.00    +0.000 A 
ATOM      9  C   UNL     1       3.564   6.101  17.774  0.00  0.00    +0.000 A 
ATOM     10  C   UNL     1       2.738   6.558  18.786  0.00  0.00    +0.000 A 
ATOM     11  C   UNL     1       2.263   5.776  19.830  0.00  0.00    +0.000 A 
ATOM     12  C   UNL     1       2.589   4.423  19.854  0.00  0.00    +0.000 A 
ATOM     13  C   UNL     1       3.430   3.929  18.820  0.00  0.00    +0.000 A 
ATOM     14  C   UNL     1       1.444   6.645  20.751  0.00  0.00    +0.000 C 
ATOM     15  N   UNL     1       1.470   7.951  20.089  0.00  0.00    +0.000 N 
ATOM     16  C   UNL     1       2.220   7.900  18.914  0.00  0.00    +0.000 C 
ATOM     17  O   UNL     1       2.474   8.740  18.061  0.00  0.00    +0.000 OA
BRANCH  12  18
ATOM     18  C   UNL     1       2.069   3.473  20.899  0.00  0.00    +0.000 C 
ATOM     19  F   UNL     1       0.713   3.365  20.913  0.00  0.00    +0.000 F 
ATOM     20  F   UNL     1       2.542   2.209  20.722  0.00  0.00    +0.000 F 
ATOM     21  F   UNL     1       2.430   3.836  22.159  0.00  0.00    +0.000 F 
ENDBRANCH  12  18
ENDBRANCH   1  15
BRANCH   5  22
ATOM     22  C   UNL     1       0.360  12.888  19.766  0.00  0.00    +0.000 C 
ATOM     23  C   UNL     1      -0.844  13.801  19.910  0.00  0.00    +0.000 C 
ATOM     24  C   UNL     1      -0.669  13.042  18.639  0.00  0.00    +0.000 C 
BRANCH  22  25
ATOM     25  N   UNL     1       1.709  13.440  19.473  0.00  0.00    +0.000 N 
ATOM     26  C   UNL     1       2.409  13.976  20.503  0.00  0.00    +0.000 A 
ATOM     27  N   UNL     1       2.141  14.000  21.793  0.00  0.00    +0.000 NA
ATOM     28  N   UNL     1       3.085  14.778  22.424  0.00  0.00    +0.000 NA
ATOM     29  C   UNL     1       3.940  15.173  21.512  0.00  0.00    +0.000 A 
ATOM     30  N   UNL     1       3.578  14.672  20.300  0.00  0.00    +0.000 N 
ATOM     31  C   UNL     1       4.277  14.908  19.065  0.00  0.00    +0.000 C 
ATOM     32  H   UNL     1       1.795  13.885  18.569  0.00  0.00    +0.000 HD
ENDBRANCH  22  25
ENDBRANCH   5  22
TORSDOF 4
ENDMDL
MODEL 8
REMARK VINA RESULT:      -8.8      3.479      8.612
REMARK  Name = 
REMARK  6 active torsions:
REMARK  status: ('A' for Active; 'I' for Inactive)
REMARK    1  A    between atoms: C_1  and  C_2
REMARK    2  A    between atoms: C_6  and  C_7
REMARK    3  A    between atoms: N_13  and  C_14
REMARK    4  A    between atoms: C_18  and  C_19
REMARK    5  A    between atoms: C_19  and  N_20
REMARK    6  A    between atoms: N_25  and  C_26
REMARK                            x       y       z     vdW  Elec       q    Type
REMARK                         _______ _______ _______ _____ _____    ______ ____
ROOT
ATOM      1  C   UNL     1       2.464   6.663  18.406  0.00  0.00    +0.000 A 
ATOM      2  C   UNL     1       1.858   5.442  18.721  0.00  0.00    +0.000 A 
ATOM      3  C   UNL     1       2.384   4.235  18.290  0.00  0.00    +0.000 A 
ATOM      4  C   UNL     1       3.540   4.230  17.520  0.00  0.00    +0.000 A 
ATOM      5  C   UNL     1       4.169   5.426  17.118  0.00  0.00    +0.000 A 
ATOM      6  C   UNL     1       3.598   6.643  17.570  0.00  0.00    +0.000 A 
ENDROOT
BRANCH   1  15
ATOM      7  C   UNL     1      -0.402  13.403  19.458  0.00  0.00    +0.000 C 
ATOM      8  C   UNL     1       0.027  12.000  19.771  0.00  0.00    +0.000 A 
ATOM      9  C   UNL     1       0.703  11.260  18.811  0.00  0.00    +0.000 A 
ATOM     10  C   UNL     1       1.082   9.970  19.140  0.00  0.00    +0.000 A 
ATOM     11  C   UNL     1       0.816   9.356  20.356  0.00  0.00    +0.000 A 
ATOM     12  C   UNL     1       0.165  10.086  21.346  0.00  0.00    +0.000 A 
ATOM     13  C   UNL     1      -0.227  11.416  21.033  0.00  0.00    +0.000 A 
ATOM     14  C   UNL     1       1.340   7.942  20.308  0.00  0.00    +0.000 C 
ATOM     15  N   UNL     1       1.960   7.860  18.984  0.00  0.00    +0.000 N 
ATOM     16  C   UNL     1       1.826   9.065  18.295  0.00  0.00    +0.000 C 
ATOM     17  O   UNL     1       2.212   9.432  17.192  0.00  0.00    +0.000 OA
BRANCH  12  18
ATOM     18  C   UNL     1      -0.107   9.541  22.721  0.00  0.00    +0.000 C 
ATOM     19  F   UNL     1       1.018   9.221  23.416  0.00  0.00    +0.000 F 
ATOM     20  F   UNL     1      -0.785  10.428  23.499  0.00  0.00    +0.000 F 
ATOM     21  F   UNL     1      -0.866   8.411  22.693  0.00  0.00    +0.000 F 
ENDBRANCH  12  18
ENDBRANCH   1  15
BRANCH   5  22
ATOM     22  C   UNL     1       5.448   5.374  16.270  0.00  0.00    +0.000 C 
ATOM     23  C   UNL     1       5.365   4.911  14.827  0.00  0.00    +0.000 C 
ATOM     24  C   UNL     1       5.940   3.985  15.844  0.00  0.00    +0.000 C 
BRANCH  22  25
ATOM     25  N   UNL     1       6.510   6.315  16.713  0.00  0.00    +0.000 N 
ATOM     26  C   UNL     1       7.119   6.066  17.899  0.00  0.00    +0.000 A 
ATOM     27  N   UNL     1       7.008   5.036  18.712  0.00  0.00    +0.000 NA
ATOM     28  N   UNL     1       7.724   5.300  19.858  0.00  0.00    +0.000 NA
ATOM     29  C   UNL     1       8.300   6.468  19.699  0.00  0.00    +0.000 A 
ATOM     30  N   UNL     1       7.977   6.973  18.477  0.00  0.00    +0.000 N 
ATOM     31  C   UNL     1       8.417   8.243  17.965  0.00  0.00    +0.000 C 
ATOM     32  H   UNL     1       6.346   7.283  16.468  0.00  0.00    +0.000 HD
ENDBRANCH  22  25
ENDBRANCH   5  22
TORSDOF 4
ENDMDL
MODEL 9
REMARK VINA RESULT:      -8.8      4.054      8.783
REMARK  Name = 
REMARK  6 active torsions:
REMARK  status: ('A' for Active; 'I' for Inactive)
REMARK    1  A    between atoms: C_1  and  C_2
REMARK    2  A    between atoms: C_6  and  C_7
REMARK    3  A    between atoms: N_13  and  C_14
REMARK    4  A    between atoms: C_18  and  C_19
REMARK    5  A    between atoms: C_19  and  N_20
REMARK    6  A    between atoms: N_25  and  C_26
REMARK                            x       y       z     vdW  Elec       q    Type
REMARK                         _______ _______ _______ _____ _____    ______ ____
ROOT
ATOM      1  C   UNL     1       2.824   6.248  18.581  0.00  0.00    +0.000 A 
ATOM      2  C   UNL     1       2.192   5.050  18.934  0.00  0.00    +0.000 A 
ATOM      3  C   UNL     1       2.756   3.817  18.650  0.00  0.00    +0.000 A 
ATOM      4  C   UNL     1       3.978   3.761  17.993  0.00  0.00    +0.000 A 
ATOM      5  C   UNL     1       4.641   4.927  17.558  0.00  0.00    +0.000 A 
ATOM      6  C   UNL     1       4.030   6.170  17.857  0.00  0.00    +0.000 A 
ENDROOT
BRANCH   1  15
ATOM      7  C   UNL     1      -0.296  12.952  18.830  0.00  0.00    +0.000 C 
ATOM      8  C   UNL     1       0.177  11.610  19.305  0.00  0.00    +0.000 A 
ATOM      9  C   UNL     1       0.895  10.792  18.443  0.00  0.00    +0.000 A 
ATOM     10  C   UNL     1       1.314   9.562  18.920  0.00  0.00    +0.000 A 
ATOM     11  C   UNL     1       1.049   9.079  20.194  0.00  0.00    +0.000 A 
ATOM     12  C   UNL     1       0.355   9.891  21.087  0.00  0.00    +0.000 A 
ATOM     13  C   UNL     1      -0.078  11.162  20.621  0.00  0.00    +0.000 A 
ATOM     14  C   UNL     1       1.623   7.690  20.312  0.00  0.00    +0.000 C 
ATOM     15  N   UNL     1       2.268   7.482  19.014  0.00  0.00    +0.000 N 
ATOM     16  C   UNL     1       2.104   8.597  18.192  0.00  0.00    +0.000 C 
ATOM     17  O   UNL     1       2.495   8.852  17.061  0.00  0.00    +0.000 OA
BRANCH  12  18
ATOM     18  C   UNL     1       0.079   9.493  22.512  0.00  0.00    +0.000 C 
ATOM     19  F   UNL     1      -0.740   8.414  22.629  0.00  0.00    +0.000 F 
ATOM     20  F   UNL     1       1.218   9.172  23.184  0.00  0.00    +0.000 F 
ATOM     21  F   UNL     1      -0.509  10.491  23.226  0.00  0.00    +0.000 F 
ENDBRANCH  12  18
ENDBRANCH   1  15
BRANCH   5  22
ATOM     22  C   UNL     1       5.993   4.818  16.838  0.00  0.00    +0.000 C 
ATOM     23  C   UNL     1       7.268   4.750  17.657  0.00  0.00    +0.000 C 
ATOM     24  C   UNL     1       6.937   6.022  16.952  0.00  0.00    +0.000 C 
BRANCH  22  25
ATOM     25  N   UNL     1       5.915   4.199  15.488  0.00  0.00    +0.000 N 
ATOM     26  C   UNL     1       6.779   4.640  14.541  0.00  0.00    +0.000 A 
ATOM     27  N   UNL     1       7.790   5.478  14.636  0.00  0.00    +0.000 NA
ATOM     28  N   UNL     1       8.285   5.717  13.373  0.00  0.00    +0.000 NA
ATOM     29  C   UNL     1       7.596   4.978  12.537  0.00  0.00    +0.000 A 
ATOM     30  N   UNL     1       6.662   4.263  13.223  0.00  0.00    +0.000 N 
ATOM     31  C   UNL     1       5.717   3.356  12.631  0.00  0.00    +0.000 C 
ATOM     32  H   UNL     1       4.979   3.956  15.189  0.00  0.00    +0.000 HD
ENDBRANCH  22  25
ENDBRANCH   5  22
TORSDOF 4
ENDMDL
