MODEL 1
REMARK VINA RESULT:      -8.9      0.000      0.000
REMARK  Name = 
REMARK  5 active torsions:
REMARK  status: ('A' for Active; 'I' for Inactive)
REMARK    1  A    between atoms: C_1  and  C_2
REMARK    2  A    between atoms: C_5  and  C_6
REMARK    3  A    between atoms: N_8  and  C_9
REMARK    4  A    between atoms: C_12  and  S_13
REMARK    5  A    between atoms: S_13  and  N_14
REMARK                            x       y       z     vdW  Elec       q    Type
REMARK                         _______ _______ _______ _____ _____    ______ ____
ROOT
ATOM      1  C   UNL     1       3.692   5.685  18.345  0.00  0.00    +0.000 A 
ATOM      2  N   UNL     1       3.136   6.859  18.339  0.00  0.00    +0.000 NA
ATOM      3  N   UNL     1       2.263   7.222  19.342  0.00  0.00    +0.000 N 
ATOM      4  C   UNL     1       1.901   6.373  20.390  0.00  0.00    +0.000 A 
ATOM      5  O   UNL     1       1.112   6.624  21.301  0.00  0.00    +0.000 OA
ATOM      6  C   UNL     1       2.470   5.021  20.367  0.00  0.00    +0.000 A 
ATOM      7  C   UNL     1       2.070   4.098  21.349  0.00  0.00    +0.000 A 
ATOM      8  C   UNL     1       2.573   2.803  21.345  0.00  0.00    +0.000 A 
ATOM      9  C   UNL     1       3.455   2.419  20.343  0.00  0.00    +0.000 A 
ATOM     10  C   UNL     1       3.819   3.325  19.342  0.00  0.00    +0.000 A 
ATOM     11  C   UNL     1       3.361   4.648  19.363  0.00  0.00    +0.000 A 
ENDROOT
BRANCH   1  16
ATOM     12  C   UNL     1       7.473   4.885  13.993  0.00  0.00    +0.000 C 
ATOM     13  C   UNL     1       6.517   5.048  15.138  0.00  0.00    +0.000 A 
ATOM     14  C   UNL     1       5.331   4.309  15.185  0.00  0.00    +0.000 A 
ATOM     15  C   UNL     1       4.449   4.456  16.258  0.00  0.00    +0.000 A 
ATOM     16  C   UNL     1       4.688   5.410  17.254  0.00  0.00    +0.000 A 
ATOM     17  C   UNL     1       5.904   6.108  17.239  0.00  0.00    +0.000 A 
ATOM     18  C   UNL     1       6.813   5.922  16.191  0.00  0.00    +0.000 A 
ENDBRANCH   1  16
BRANCH   3  19
ATOM     19  C   UNL     1       1.732   8.550  19.225  0.00  0.00    +0.000 A 
ATOM     20  C   UNL     1       1.036   9.152  20.288  0.00  0.00    +0.000 A 
ATOM     21  C   UNL     1       0.448  10.407  20.151  0.00  0.00    +0.000 A 
ATOM     22  C   UNL     1       0.554  11.081  18.938  0.00  0.00    +0.000 A 
ATOM     23  C   UNL     1       1.267  10.527  17.873  0.00  0.00    +0.000 A 
ATOM     24  C   UNL     1       1.869   9.274  18.029  0.00  0.00    +0.000 A 
BRANCH  22  25
ATOM     25  S   UNL     1      -0.152  12.687  18.796  0.00  0.00    +0.000 S 
ATOM     26  O   UNL     1      -1.024  12.934  19.921  0.00  0.00    +0.000 OA
ATOM     27  O   UNL     1       0.860  13.627  18.378  0.00  0.00    +0.000 OA
BRANCH  25  28
ATOM     28  N   UNL     1      -1.134  12.417  17.468  0.00  0.00    +0.000 NA
ATOM     29  H   UNL     1      -2.115  12.339  17.726  0.00  0.00    +0.000 HD
ATOM     30  H   UNL     1      -0.908  13.030  16.689  0.00  0.00    +0.000 HD
ENDBRANCH  25  28
ENDBRANCH  22  25
ENDBRANCH   3  19
TORSDOF 4
ENDMDL
MODEL 2
REMARK VINA RESULT:      -8.6      0.741      1.194
REMARK  Name = 
REMARK  5 active torsions:
REMARK  status: ('A' for Active; 'I' for Inactive)
REMARK    1  A    between atoms: C_1  and  C_2
REMARK    2  A    between atoms: C_5  and  C_6
REMARK    3  A    between atoms: N_8  and  C_9
REMARK    4  A    between atoms: C_12  and  S_13
REMARK    5  A    between atoms: S_13  and  N_14
REMARK                            x       y       z     vdW  Elec       q    Type
REMARK                         _______ _______ _______ _____ _____    ______ ____
ROOT
ATOM      1  C   UNL     1       3.837   5.519  18.235  0.00  0.00    +0.000 A 
ATOM      2  N   UNL     1       3.261   6.684  18.243  0.00  0.00    +0.000 NA
ATOM      3  N   UNL     1       2.395   7.028  19.259  0.00  0.00    +0.000 N 
ATOM      4  C   UNL     1       2.061   6.168  20.307  0.00  0.00    +0.000 A 
ATOM      5  O   UNL     1       1.280   6.402  21.230  0.00  0.00    +0.000 OA
ATOM      6  C   UNL     1       2.652   4.826  20.270  0.00  0.00    +0.000 A 
ATOM      7  C   UNL     1       2.280   3.891  21.253  0.00  0.00    +0.000 A 
ATOM      8  C   UNL     1       2.805   2.605  21.236  0.00  0.00    +0.000 A 
ATOM      9  C   UNL     1       3.680   2.241  20.221  0.00  0.00    +0.000 A 
ATOM     10  C   UNL     1       4.015   3.157  19.219  0.00  0.00    +0.000 A 
ATOM     11  C   UNL     1       3.536   4.472  19.253  0.00  0.00    +0.000 A 
ENDROOT
BRANCH   1  16
ATOM     12  C   UNL     1       7.599   4.818  13.850  0.00  0.00    +0.000 C 
ATOM     13  C   UNL     1       6.644   4.953  15.000  0.00  0.00    +0.000 A 
ATOM     14  C   UNL     1       5.408   4.300  14.978  0.00  0.00    +0.000 A 
ATOM     15  C   UNL     1       4.527   4.419  16.055  0.00  0.00    +0.000 A 
ATOM     16  C   UNL     1       4.823   5.267  17.130  0.00  0.00    +0.000 A 
ATOM     17  C   UNL     1       6.085   5.874  17.180  0.00  0.00    +0.000 A 
ATOM     18  C   UNL     1       6.990   5.711  16.125  0.00  0.00    +0.000 A 
ENDBRANCH   1  16
BRANCH   3  19
ATOM     19  C   UNL     1       1.841   8.347  19.155  0.00  0.00    +0.000 A 
ATOM     20  C   UNL     1       2.013   9.120  17.994  0.00  0.00    +0.000 A 
ATOM     21  C   UNL     1       1.549  10.432  17.921  0.00  0.00    +0.000 A 
ATOM     22  C   UNL     1       0.899  10.987  19.019  0.00  0.00    +0.000 A 
ATOM     23  C   UNL     1       0.680  10.236  20.175  0.00  0.00    +0.000 A 
ATOM     24  C   UNL     1       1.135   8.914  20.230  0.00  0.00    +0.000 A 
BRANCH  22  25
ATOM     25  S   UNL     1       0.274  12.628  18.892  0.00  0.00    +0.000 S 
ATOM     26  O   UNL     1      -0.946  12.624  18.119  0.00  0.00    +0.000 OA
ATOM     27  O   UNL     1       0.380  13.288  20.172  0.00  0.00    +0.000 OA
BRANCH  25  28
ATOM     28  N   UNL     1       1.468  13.280  17.917  0.00  0.00    +0.000 NA
ATOM     29  H   UNL     1       1.915  14.087  18.345  0.00  0.00    +0.000 HD
ATOM     30  H   UNL     1       2.077  12.568  17.522  0.00  0.00    +0.000 HD
ENDBRANCH  25  28
ENDBRANCH  22  25
ENDBRANCH   3  19
TORSDOF 4
ENDMDL
MODEL 3
REMARK VINA RESULT:      -8.5      1.341      1.600
REMARK  Name = 
REMARK  5 active torsions:
REMARK  status: ('A' for Active; 'I' for Inactive)
REMARK    1  A    between atoms: C_1  and  C_2
REMARK    2  A    between atoms: C_5  and  C_6
REMARK    3  A    between atoms: N_8  and  C_9
REMARK    4  A    between atoms: C_12  and  S_13
REMARK    5  A    between atoms: S_13  and  N_14
REMARK                            x       y       z     vdW  Elec       q    Type
REMARK                         _______ _______ _______ _____ _____    ______ ____
ROOT
ATOM      1  C   UNL     1       3.909   5.045  17.551  0.00  0.00    +0.000 A 
ATOM      2  N   UNL     1       3.432   6.222  17.825  0.00  0.00    +0.000 NA
ATOM      3  N   UNL     1       2.525   6.386  18.851  0.00  0.00    +0.000 N 
ATOM      4  C   UNL     1       2.047   5.329  19.629  0.00  0.00    +0.000 A 
ATOM      5  O   UNL     1       1.223   5.402  20.541  0.00  0.00    +0.000 OA
ATOM      6  C   UNL     1       2.528   3.987  19.283  0.00  0.00    +0.000 A 
ATOM      7  C   UNL     1       2.010   2.879  19.977  0.00  0.00    +0.000 A 
ATOM      8  C   UNL     1       2.428   1.593  19.660  0.00  0.00    +0.000 A 
ATOM      9  C   UNL     1       3.341   1.408  18.630  0.00  0.00    +0.000 A 
ATOM     10  C   UNL     1       3.822   2.507  17.912  0.00  0.00    +0.000 A 
ATOM     11  C   UNL     1       3.450   3.813  18.254  0.00  0.00    +0.000 A 
ENDROOT
BRANCH   1  16
ATOM     12  C   UNL     1       7.878   5.082  13.294  0.00  0.00    +0.000 C 
ATOM     13  C   UNL     1       6.870   5.024  14.404  0.00  0.00    +0.000 A 
ATOM     14  C   UNL     1       5.649   4.367  14.223  0.00  0.00    +0.000 A 
ATOM     15  C   UNL     1       4.718   4.307  15.262  0.00  0.00    +0.000 A 
ATOM     16  C   UNL     1       4.948   4.980  16.468  0.00  0.00    +0.000 A 
ATOM     17  C   UNL     1       6.195   5.588  16.672  0.00  0.00    +0.000 A 
ATOM     18  C   UNL     1       7.150   5.603  15.648  0.00  0.00    +0.000 A 
ENDBRANCH   1  16
BRANCH   3  19
ATOM     19  C   UNL     1       2.090   7.737  19.058  0.00  0.00    +0.000 A 
ATOM     20  C   UNL     1       1.620   8.166  20.311  0.00  0.00    +0.000 A 
ATOM     21  C   UNL     1       1.118   9.453  20.496  0.00  0.00    +0.000 A 
ATOM     22  C   UNL     1       1.085  10.332  19.419  0.00  0.00    +0.000 A 
ATOM     23  C   UNL     1       1.575   9.950  18.169  0.00  0.00    +0.000 A 
ATOM     24  C   UNL     1       2.093   8.662  18.000  0.00  0.00    +0.000 A 
BRANCH  22  25
ATOM     25  S   UNL     1       0.495  11.970  19.680  0.00  0.00    +0.000 S 
ATOM     26  O   UNL     1       1.083  12.859  18.705  0.00  0.00    +0.000 OA
ATOM     27  O   UNL     1      -0.924  11.938  19.945  0.00  0.00    +0.000 OA
BRANCH  25  28
ATOM     28  N   UNL     1       1.248  12.282  21.141  0.00  0.00    +0.000 NA
ATOM     29  H   UNL     1       2.180  11.876  21.187  0.00  0.00    +0.000 HD
ATOM     30  H   UNL     1       1.152  13.253  21.428  0.00  0.00    +0.000 HD
ENDBRANCH  25  28
ENDBRANCH  22  25
ENDBRANCH   3  19
TORSDOF 4
ENDMDL
MODEL 4
REMARK VINA RESULT:      -8.5      0.204      1.306
REMARK  Name = 
REMARK  5 active torsions:
REMARK  status: ('A' for Active; 'I' for Inactive)
REMARK    1  A    between atoms: C_1  and  C_2
REMARK    2  A    between atoms: C_5  and  C_6
REMARK    3  A    between atoms: N_8  and  C_9
REMARK    4  A    between atoms: C_12  and  S_13
REMARK    5  A    between atoms: S_13  and  N_14
REMARK                            x       y       z     vdW  Elec       q    Type
REMARK                         _______ _______ _______ _____ _____    ______ ____
ROOT
ATOM      1  C   UNL     1       3.659   5.841  18.304  0.00  0.00    +0.000 A 
ATOM      2  N   UNL     1       3.072   7.000  18.314  0.00  0.00    +0.000 NA
ATOM      3  N   UNL     1       2.197   7.331  19.327  0.00  0.00    +0.000 N 
ATOM      4  C   UNL     1       1.866   6.462  20.370  0.00  0.00    +0.000 A 
ATOM      5  O   UNL     1       1.078   6.683  21.289  0.00  0.00    +0.000 OA
ATOM      6  C   UNL     1       2.471   5.126  20.329  0.00  0.00    +0.000 A 
ATOM      7  C   UNL     1       2.104   4.183  21.305  0.00  0.00    +0.000 A 
ATOM      8  C   UNL     1       2.642   2.902  21.284  0.00  0.00    +0.000 A 
ATOM      9  C   UNL     1       3.525   2.552  20.272  0.00  0.00    +0.000 A 
ATOM     10  C   UNL     1       3.857   3.476  19.277  0.00  0.00    +0.000 A 
ATOM     11  C   UNL     1       3.363   4.786  19.315  0.00  0.00    +0.000 A 
ENDROOT
BRANCH   1  16
ATOM     12  C   UNL     1       7.578   4.659  14.166  0.00  0.00    +0.000 C 
ATOM     13  C   UNL     1       6.553   5.006  15.206  0.00  0.00    +0.000 A 
ATOM     14  C   UNL     1       6.832   5.963  16.187  0.00  0.00    +0.000 A 
ATOM     15  C   UNL     1       5.872   6.292  17.147  0.00  0.00    +0.000 A 
ATOM     16  C   UNL     1       4.653   5.604  17.202  0.00  0.00    +0.000 A 
ATOM     17  C   UNL     1       4.350   4.689  16.185  0.00  0.00    +0.000 A 
ATOM     18  C   UNL     1       5.292   4.398  15.192  0.00  0.00    +0.000 A 
ENDBRANCH   1  16
BRANCH   3  19
ATOM     19  C   UNL     1       1.630   8.644  19.228  0.00  0.00    +0.000 A 
ATOM     20  C   UNL     1       1.778   9.415  18.061  0.00  0.00    +0.000 A 
ATOM     21  C   UNL     1       1.301  10.722  17.990  0.00  0.00    +0.000 A 
ATOM     22  C   UNL     1       0.663  11.275  19.096  0.00  0.00    +0.000 A 
ATOM     23  C   UNL     1       0.468  10.527  20.258  0.00  0.00    +0.000 A 
ATOM     24  C   UNL     1       0.935   9.209  20.310  0.00  0.00    +0.000 A 
BRANCH  22  25
ATOM     25  S   UNL     1       0.022  12.911  18.973  0.00  0.00    +0.000 S 
ATOM     26  O   UNL     1      -0.826  13.185  20.109  0.00  0.00    +0.000 OA
ATOM     27  O   UNL     1       1.068  13.811  18.549  0.00  0.00    +0.000 OA
BRANCH  25  28
ATOM     28  N   UNL     1      -0.985  12.691  17.654  0.00  0.00    +0.000 NA
ATOM     29  H   UNL     1      -0.464  12.507  16.800  0.00  0.00    +0.000 HD
ATOM     30  H   UNL     1      -1.766  12.075  17.862  0.00  0.00    +0.000 HD
ENDBRANCH  25  28
ENDBRANCH  22  25
ENDBRANCH   3  19
TORSDOF 4
ENDMDL
MODEL 5
REMARK VINA RESULT:      -8.3      1.267      1.683
REMARK  Name = 
REMARK  5 active torsions:
REMARK  status: ('A' for Active; 'I' for Inactive)
REMARK    1  A    between atoms: C_1  and  C_2
REMARK    2  A    between atoms: C_5  and  C_6
REMARK    3  A    between atoms: N_8  and  C_9
REMARK    4  A    between atoms: C_12  and  S_13
REMARK    5  A    between atoms: S_13  and  N_14
REMARK                            x       y       z     vdW  Elec       q    Type
REMARK                         _______ _______ _______ _____ _____    ______ ____
ROOT
ATOM      1  C   UNL     1       3.859   5.160  17.612  0.00  0.00    +0.000 A 
ATOM      2  N   UNL     1       3.358   6.307  17.959  0.00  0.00    +0.000 NA
ATOM      3  N   UNL     1       2.472   6.393  19.012  0.00  0.00    +0.000 N 
ATOM      4  C   UNL     1       2.041   5.284  19.744  0.00  0.00    +0.000 A 
ATOM      5  O   UNL     1       1.238   5.286  20.677  0.00  0.00    +0.000 OA
ATOM      6  C   UNL     1       2.549   3.975  19.317  0.00  0.00    +0.000 A 
ATOM      7  C   UNL     1       2.078   2.819  19.963  0.00  0.00    +0.000 A 
ATOM      8  C   UNL     1       2.522   1.563  19.570  0.00  0.00    +0.000 A 
ATOM      9  C   UNL     1       3.415   1.457  18.511  0.00  0.00    +0.000 A 
ATOM     10  C   UNL     1       3.849   2.605  17.841  0.00  0.00    +0.000 A 
ATOM     11  C   UNL     1       3.451   3.881  18.259  0.00  0.00    +0.000 A 
ENDROOT
BRANCH   1  16
ATOM     12  C   UNL     1       7.868   4.957  13.398  0.00  0.00    +0.000 C 
ATOM     13  C   UNL     1       6.819   5.055  14.466  0.00  0.00    +0.000 A 
ATOM     14  C   UNL     1       7.043   5.821  15.613  0.00  0.00    +0.000 A 
ATOM     15  C   UNL     1       6.059   5.919  16.600  0.00  0.00    +0.000 A 
ATOM     16  C   UNL     1       4.874   5.180  16.504  0.00  0.00    +0.000 A 
ATOM     17  C   UNL     1       4.624   4.459  15.328  0.00  0.00    +0.000 A 
ATOM     18  C   UNL     1       5.589   4.404  14.315  0.00  0.00    +0.000 A 
ENDBRANCH   1  16
BRANCH   3  19
ATOM     19  C   UNL     1       2.006   7.718  19.300  0.00  0.00    +0.000 A 
ATOM     20  C   UNL     1       1.592   8.079  20.593  0.00  0.00    +0.000 A 
ATOM     21  C   UNL     1       1.061   9.340  20.859  0.00  0.00    +0.000 A 
ATOM     22  C   UNL     1       0.941  10.261  19.823  0.00  0.00    +0.000 A 
ATOM     23  C   UNL     1       1.375   9.948  18.534  0.00  0.00    +0.000 A 
ATOM     24  C   UNL     1       1.924   8.685  18.284  0.00  0.00    +0.000 A 
BRANCH  22  25
ATOM     25  S   UNL     1       0.315  11.866  20.186  0.00  0.00    +0.000 S 
ATOM     26  O   UNL     1      -1.129  11.838  20.167  0.00  0.00    +0.000 OA
ATOM     27  O   UNL     1       1.066  12.446  21.274  0.00  0.00    +0.000 OA
BRANCH  25  28
ATOM     28  N   UNL     1       0.805  12.652  18.793  0.00  0.00    +0.000 NA
ATOM     29  H   UNL     1       1.815  12.625  18.673  0.00  0.00    +0.000 HD
ATOM     30  H   UNL     1       0.237  12.403  17.987  0.00  0.00    +0.000 HD
ENDBRANCH  25  28
ENDBRANCH  22  25
ENDBRANCH   3  19
TORSDOF 4
ENDMDL
MODEL 6
REMARK VINA RESULT:      -8.1      0.807      1.339
REMARK  Name = 
REMARK  5 active torsions:
REMARK  status: ('A' for Active; 'I' for Inactive)
REMARK    1  A    between atoms: C_1  and  C_2
REMARK    2  A    between atoms: C_5  and  C_6
REMARK    3  A    between atoms: N_8  and  C_9
REMARK    4  A    between atoms: C_12  and  S_13
REMARK    5  A    between atoms: S_13  and  N_14
REMARK                            x       y       z     vdW  Elec       q    Type
REMARK                         _______ _______ _______ _____ _____    ______ ____
ROOT
ATOM      1  C   UNL     1       3.848   5.577  18.059  0.00  0.00    +0.000 A 
ATOM      2  N   UNL     1       3.224   6.715  18.120  0.00  0.00    +0.000 NA
ATOM      3  N   UNL     1       2.375   6.990  19.171  0.00  0.00    +0.000 N 
ATOM      4  C   UNL     1       2.111   6.085  20.201  0.00  0.00    +0.000 A 
ATOM      5  O   UNL     1       1.349   6.257  21.154  0.00  0.00    +0.000 OA
ATOM      6  C   UNL     1       2.757   4.772  20.105  0.00  0.00    +0.000 A 
ATOM      7  C   UNL     1       2.456   3.793  21.068  0.00  0.00    +0.000 A 
ATOM      8  C   UNL     1       3.034   2.532  20.995  0.00  0.00    +0.000 A 
ATOM      9  C   UNL     1       3.892   2.237  19.944  0.00  0.00    +0.000 A 
ATOM     10  C   UNL     1       4.158   3.197  18.963  0.00  0.00    +0.000 A 
ATOM     11  C   UNL     1       3.623   4.488  19.051  0.00  0.00    +0.000 A 
ENDROOT
BRANCH   1  16
ATOM     12  C   UNL     1       7.640   4.623  13.748  0.00  0.00    +0.000 C 
ATOM     13  C   UNL     1       6.648   4.913  14.836  0.00  0.00    +0.000 A 
ATOM     14  C   UNL     1       6.965   5.801  15.869  0.00  0.00    +0.000 A 
ATOM     15  C   UNL     1       6.035   6.077  16.873  0.00  0.00    +0.000 A 
ATOM     16  C   UNL     1       4.809   5.401  16.918  0.00  0.00    +0.000 A 
ATOM     17  C   UNL     1       4.467   4.557  15.852  0.00  0.00    +0.000 A 
ATOM     18  C   UNL     1       5.379   4.322  14.816  0.00  0.00    +0.000 A 
ENDBRANCH   1  16
BRANCH   3  19
ATOM     19  C   UNL     1       1.762   8.286  19.126  0.00  0.00    +0.000 A 
ATOM     20  C   UNL     1       1.213   8.873  20.279  0.00  0.00    +0.000 A 
ATOM     21  C   UNL     1       0.544  10.094  20.223  0.00  0.00    +0.000 A 
ATOM     22  C   UNL     1       0.419  10.747  19.001  0.00  0.00    +0.000 A 
ATOM     23  C   UNL     1       0.983  10.210  17.843  0.00  0.00    +0.000 A 
ATOM     24  C   UNL     1       1.668   8.993  17.914  0.00  0.00    +0.000 A 
BRANCH  22  25
ATOM     25  S   UNL     1      -0.385  12.312  18.957  0.00  0.00    +0.000 S 
ATOM     26  O   UNL     1       0.577  13.343  18.645  0.00  0.00    +0.000 OA
ATOM     27  O   UNL     1      -1.645  12.191  18.262  0.00  0.00    +0.000 OA
BRANCH  25  28
ATOM     28  N   UNL     1      -0.747  12.459  20.584  0.00  0.00    +0.000 NA
ATOM     29  H   UNL     1       0.081  12.389  21.169  0.00  0.00    +0.000 HD
ATOM     30  H   UNL     1      -1.383  13.231  20.771  0.00  0.00    +0.000 HD
ENDBRANCH  25  28
ENDBRANCH  22  25
ENDBRANCH   3  19
TORSDOF 4
ENDMDL
MODEL 7
REMARK VINA RESULT:      -8.0      4.231      7.919
REMARK  Name = 
REMARK  5 active torsions:
REMARK  status: ('A' for Active; 'I' for Inactive)
REMARK    1  A    between atoms: C_1  and  C_2
REMARK    2  A    between atoms: C_5  and  C_6
REMARK    3  A    between atoms: N_8  and  C_9
REMARK    4  A    between atoms: C_12  and  S_13
REMARK    5  A    between atoms: S_13  and  N_14
REMARK                            x       y       z     vdW  Elec       q    Type
REMARK                         _______ _______ _______ _____ _____    ______ ____
ROOT
ATOM      1  C   UNL     1       0.503  11.487  19.450  0.00  0.00    +0.000 A 
ATOM      2  N   UNL     1      -0.649  11.562  20.045  0.00  0.00    +0.000 NA
ATOM      3  N   UNL     1      -1.264  12.783  20.225  0.00  0.00    +0.000 N 
ATOM      4  C   UNL     1      -0.700  13.994  19.818  0.00  0.00    +0.000 A 
ATOM      5  O   UNL     1      -1.182  15.117  19.968  0.00  0.00    +0.000 OA
ATOM      6  C   UNL     1       0.632  13.926  19.206  0.00  0.00    +0.000 A 
ATOM      7  C   UNL     1       1.283  15.123  18.859  0.00  0.00    +0.000 A 
ATOM      8  C   UNL     1       2.553  15.096  18.297  0.00  0.00    +0.000 A 
ATOM      9  C   UNL     1       3.188  13.876  18.108  0.00  0.00    +0.000 A 
ATOM     10  C   UNL     1       2.557  12.688  18.493  0.00  0.00    +0.000 A 
ATOM     11  C   UNL     1       1.257  12.696  19.012  0.00  0.00    +0.000 A 
ENDROOT
BRANCH   1  16
ATOM     12  C   UNL     1       2.899   6.231  18.735  0.00  0.00    +0.000 C 
ATOM     13  C   UNL     1       2.236   7.567  18.901  0.00  0.00    +0.000 A 
ATOM     14  C   UNL     1       2.071   8.420  17.806  0.00  0.00    +0.000 A 
ATOM     15  C   UNL     1       1.444   9.658  17.963  0.00  0.00    +0.000 A 
ATOM     16  C   UNL     1       1.055  10.107  19.231  0.00  0.00    +0.000 A 
ATOM     17  C   UNL     1       1.166   9.229  20.319  0.00  0.00    +0.000 A 
ATOM     18  C   UNL     1       1.747   7.966  20.151  0.00  0.00    +0.000 A 
ENDBRANCH   1  16
BRANCH   3  19
ATOM     19  C   UNL     1      -2.538  12.724  20.882  0.00  0.00    +0.000 A 
ATOM     20  C   UNL     1      -3.736  12.706  20.147  0.00  0.00    +0.000 A 
ATOM     21  C   UNL     1      -4.976  12.733  20.781  0.00  0.00    +0.000 A 
ATOM     22  C   UNL     1      -5.030  12.774  22.171  0.00  0.00    +0.000 A 
ATOM     23  C   UNL     1      -3.860  12.757  22.933  0.00  0.00    +0.000 A 
ATOM     24  C   UNL     1      -2.621  12.712  22.285  0.00  0.00    +0.000 A 
BRANCH  22  25
ATOM     25  S   UNL     1      -6.605  12.757  22.958  0.00  0.00    +0.000 S 
ATOM     26  O   UNL     1      -7.145  14.096  22.990  0.00  0.00    +0.000 OA
ATOM     27  O   UNL     1      -7.368  11.623  22.493  0.00  0.00    +0.000 OA
BRANCH  25  28
ATOM     28  N   UNL     1      -6.108  12.394  24.514  0.00  0.00    +0.000 NA
ATOM     29  H   UNL     1      -6.491  11.511  24.843  0.00  0.00    +0.000 HD
ATOM     30  H   UNL     1      -5.111  12.545  24.648  0.00  0.00    +0.000 HD
ENDBRANCH  25  28
ENDBRANCH  22  25
ENDBRANCH   3  19
TORSDOF 4
ENDMDL
MODEL 8
REMARK VINA RESULT:      -8.0      4.208      7.931
REMARK  Name = 
REMARK  5 active torsions:
REMARK  status: ('A' for Active; 'I' for Inactive)
REMARK    1  A    between atoms: C_1  and  C_2
REMARK    2  A    between atoms: C_5  and  C_6
REMARK    3  A    between atoms: N_8  and  C_9
REMARK    4  A    between atoms: C_12  and  S_13
REMARK    5  A    between atoms: S_13  and  N_14
REMARK                            x       y       z     vdW  Elec       q    Type
REMARK                         _______ _______ _______ _____ _____    ______ ____
ROOT
ATOM      1  C   UNL     1       0.397  11.581  19.421  0.00  0.00    +0.000 A 
ATOM      2  N   UNL     1      -0.795  11.666  19.930  0.00  0.00    +0.000 NA
ATOM      3  N   UNL     1      -1.413  12.891  20.058  0.00  0.00    +0.000 N 
ATOM      4  C   UNL     1      -0.813  14.097  19.686  0.00  0.00    +0.000 A 
ATOM      5  O   UNL     1      -1.298  15.223  19.793  0.00  0.00    +0.000 OA
ATOM      6  C   UNL     1       0.560  14.017  19.174  0.00  0.00    +0.000 A 
ATOM      7  C   UNL     1       1.242  15.208  18.869  0.00  0.00    +0.000 A 
ATOM      8  C   UNL     1       2.549  15.170  18.402  0.00  0.00    +0.000 A 
ATOM      9  C   UNL     1       3.189  13.945  18.267  0.00  0.00    +0.000 A 
ATOM     10  C   UNL     1       2.524  12.764  18.611  0.00  0.00    +0.000 A 
ATOM     11  C   UNL     1       1.189  12.782  19.034  0.00  0.00    +0.000 A 
ENDROOT
BRANCH   1  16
ATOM     12  C   UNL     1       2.815   6.313  18.895  0.00  0.00    +0.000 C 
ATOM     13  C   UNL     1       2.147   7.651  19.013  0.00  0.00    +0.000 A 
ATOM     14  C   UNL     1       1.984   8.466  17.889  0.00  0.00    +0.000 A 
ATOM     15  C   UNL     1       1.352   9.706  18.002  0.00  0.00    +0.000 A 
ATOM     16  C   UNL     1       0.956  10.196  19.252  0.00  0.00    +0.000 A 
ATOM     17  C   UNL     1       1.065   9.355  20.369  0.00  0.00    +0.000 A 
ATOM     18  C   UNL     1       1.650   8.090  20.246  0.00  0.00    +0.000 A 
ENDBRANCH   1  16
BRANCH   3  19
ATOM     19  C   UNL     1      -2.732  12.844  20.619  0.00  0.00    +0.000 A 
ATOM     20  C   UNL     1      -2.939  12.971  22.004  0.00  0.00    +0.000 A 
ATOM     21  C   UNL     1      -4.209  12.843  22.562  0.00  0.00    +0.000 A 
ATOM     22  C   UNL     1      -5.295  12.586  21.732  0.00  0.00    +0.000 A 
ATOM     23  C   UNL     1      -5.131  12.488  20.349  0.00  0.00    +0.000 A 
ATOM     24  C   UNL     1      -3.854  12.637  19.799  0.00  0.00    +0.000 A 
BRANCH  22  25
ATOM     25  S   UNL     1      -6.900  12.476  22.448  0.00  0.00    +0.000 S 
ATOM     26  O   UNL     1      -6.786  12.092  23.836  0.00  0.00    +0.000 OA
ATOM     27  O   UNL     1      -7.703  13.595  22.015  0.00  0.00    +0.000 OA
BRANCH  25  28
ATOM     28  N   UNL     1      -7.458  11.135  21.616  0.00  0.00    +0.000 NA
ATOM     29  H   UNL     1      -6.850  10.884  20.841  0.00  0.00    +0.000 HD
ATOM     30  H   UNL     1      -7.748  10.385  22.239  0.00  0.00    +0.000 HD
ENDBRANCH  25  28
ENDBRANCH  22  25
ENDBRANCH   3  19
TORSDOF 4
ENDMDL
MODEL 9
REMARK VINA RESULT:      -7.9      4.034     10.023
REMARK  Name = 
REMARK  5 active torsions:
REMARK  status: ('A' for Active; 'I' for Inactive)
REMARK    1  A    between atoms: C_1  and  C_2
REMARK    2  A    between atoms: C_5  and  C_6
REMARK    3  A    between atoms: N_8  and  C_9
REMARK    4  A    between atoms: C_12  and  S_13
REMARK    5  A    between atoms: S_13  and  N_14
REMARK                            x       y       z     vdW  Elec       q    Type
REMARK                         _______ _______ _______ _____ _____    ______ ____
ROOT
ATOM      1  C   UNL     1      -1.095  12.524  20.581  0.00  0.00    +0.000 A 
ATOM      2  N   UNL     1      -0.569  11.350  20.397  0.00  0.00    +0.000 NA
ATOM      3  N   UNL     1       0.620  11.219  19.711  0.00  0.00    +0.000 N 
ATOM      4  C   UNL     1       1.311  12.300  19.158  0.00  0.00    +0.000 A 
ATOM      5  O   UNL     1       2.361  12.251  18.517  0.00  0.00    +0.000 OA
ATOM      6  C   UNL     1       0.689  13.621  19.302  0.00  0.00    +0.000 A 
ATOM      7  C   UNL     1       1.298  14.730  18.688  0.00  0.00    +0.000 A 
ATOM      8  C   UNL     1       0.724  15.991  18.786  0.00  0.00    +0.000 A 
ATOM      9  C   UNL     1      -0.473  16.143  19.474  0.00  0.00    +0.000 A 
ATOM     10  C   UNL     1      -1.099  15.032  20.047  0.00  0.00    +0.000 A 
ATOM     11  C   UNL     1      -0.508  13.764  20.001  0.00  0.00    +0.000 A 
ENDROOT
BRANCH   1  16
ATOM     12  C   UNL     1      -5.968  13.007  23.728  0.00  0.00    +0.000 C 
ATOM     13  C   UNL     1      -4.714  12.831  22.922  0.00  0.00    +0.000 A 
ATOM     14  C   UNL     1      -3.486  12.620  23.555  0.00  0.00    +0.000 A 
ATOM     15  C   UNL     1      -2.323  12.445  22.801  0.00  0.00    +0.000 A 
ATOM     16  C   UNL     1      -2.351  12.572  21.406  0.00  0.00    +0.000 A 
ATOM     17  C   UNL     1      -3.589  12.724  20.768  0.00  0.00    +0.000 A 
ATOM     18  C   UNL     1      -4.762  12.846  21.523  0.00  0.00    +0.000 A 
ENDBRANCH   1  16
BRANCH   3  19
ATOM     19  C   UNL     1       1.100   9.873  19.592  0.00  0.00    +0.000 A 
ATOM     20  C   UNL     1       1.135   9.011  20.702  0.00  0.00    +0.000 A 
ATOM     21  C   UNL     1       1.677   7.731  20.609  0.00  0.00    +0.000 A 
ATOM     22  C   UNL     1       2.191   7.295  19.391  0.00  0.00    +0.000 A 
ATOM     23  C   UNL     1       2.140   8.112  18.260  0.00  0.00    +0.000 A 
ATOM     24  C   UNL     1       1.577   9.388  18.362  0.00  0.00    +0.000 A 
BRANCH  22  25
ATOM     25  S   UNL     1       2.826   5.657  19.279  0.00  0.00    +0.000 S 
ATOM     26  O   UNL     1       1.998   4.876  18.390  0.00  0.00    +0.000 OA
ATOM     27  O   UNL     1       4.264   5.701  19.160  0.00  0.00    +0.000 OA
BRANCH  25  28
ATOM     28  N   UNL     1       2.489   5.145  20.836  0.00  0.00    +0.000 NA
ATOM     29  H   UNL     1       2.985   5.692  21.535  0.00  0.00    +0.000 HD
ATOM     30  H   UNL     1       1.495   4.992  20.987  0.00  0.00    +0.000 HD
ENDBRANCH  25  28
ENDBRANCH  22  25
ENDBRANCH   3  19
TORSDOF 4
ENDMDL
