MODEL 1
REMARK VINA RESULT:      -8.1      0.000      0.000
REMARK  Name = 
REMARK  7 active torsions:
REMARK  status: ('A' for Active; 'I' for Inactive)
REMARK    1  A    between atoms: C_1  and  N_2
REMARK    2  A    between atoms: C_6  and  C_7
REMARK    3  A    between atoms: C_7  and  C_8
REMARK    4  A    between atoms: C_8  and  C_9
REMARK    5  A    between atoms: C_13  and  N_14
REMARK    6  A    between atoms: C_19  and  C_20
REMARK    7  A    between atoms: C_20  and  N_21
REMARK                            x       y       z     vdW  Elec       q    Type
REMARK                         _______ _______ _______ _____ _____    ______ ____
ROOT
ATOM      1  C   UNL     1       2.253   5.598  18.990  0.00  0.00    +0.000 A 
ATOM      2  C   UNL     1       2.148   6.465  17.883  0.00  0.00    +0.000 A 
ATOM      3  C   UNL     1       2.131   7.850  18.032  0.00  0.00    +0.000 A 
ATOM      4  C   UNL     1       2.083   8.402  19.303  0.00  0.00    +0.000 A 
ATOM      5  C   UNL     1       1.873   7.564  20.405  0.00  0.00    +0.000 A 
ATOM      6  C   UNL     1       2.111   6.192  20.260  0.00  0.00    +0.000 A 
ENDROOT
BRANCH   5   7
ATOM      7  N   UNL     1       0.983   7.990  21.487  0.00  0.00    +0.000 N 
ATOM      8  C   UNL     1      -0.399   8.140  20.955  0.00  0.00    +0.000 C 
ATOM      9  C   UNL     1      -0.370   9.552  20.457  0.00  0.00    +0.000 A 
ATOM     10  C   UNL     1      -0.755  10.037  19.218  0.00  0.00    +0.000 A 
ATOM     11  C   UNL     1      -0.189  11.241  18.783  0.00  0.00    +0.000 A 
ATOM     12  C   UNL     1       0.720  11.968  19.593  0.00  0.00    +0.000 A 
ATOM     13  C   UNL     1       1.054  11.486  20.869  0.00  0.00    +0.000 A 
ATOM     14  C   UNL     1       0.528  10.263  21.250  0.00  0.00    +0.000 A 
ATOM     15  C   UNL     1       1.285   9.262  22.050  0.00  0.00    +0.000 C 
ATOM     16  O   UNL     1       2.157   9.544  22.853  0.00  0.00    +0.000 OA
BRANCH  12  17
ATOM     17  C   UNL     1       1.479  13.144  19.024  0.00  0.00    +0.000 C 
BRANCH  17  18
ATOM     18  N   UNL     1       2.032  12.858  17.699  0.00  0.00    +0.000 NA
ATOM     19  F   UNL     1       3.226  12.181  17.783  0.00  0.00    +0.000 F 
ATOM     20  H   UNL     1       2.151  13.733  17.192  0.00  0.00    +0.000 HD
ENDBRANCH  17  18
ENDBRANCH  12  17
ENDBRANCH   5   7
BRANCH   1  21
ATOM     21  C   UNL     1       2.549   4.035  18.813  0.00  0.00    +0.000 C 
ATOM     22  C   UNL     1       2.520   3.215  20.140  0.00  0.00    +0.000 C 
ATOM     23  O   UNL     1       1.510   2.322  19.628  0.00  0.00    +0.000 OA
ATOM     24  C   UNL     1       1.325   3.152  18.462  0.00  0.00    +0.000 C 
BRANCH  21  25
ATOM     25  C   UNL     1       3.835   3.713  18.027  0.00  0.00    +0.000 C 
BRANCH  25  31
ATOM     26  C   UNL     1       5.253   5.949  16.243  0.00  0.00    +0.000 C 
ATOM     27  N   UNL     1       5.661   5.459  17.527  0.00  0.00    +0.000 N 
ATOM     28  C   UNL     1       6.806   5.826  18.167  0.00  0.00    +0.000 A 
ATOM     29  N   UNL     1       6.915   5.157  19.288  0.00  0.00    +0.000 NA
ATOM     30  N   UNL     1       5.833   4.324  19.374  0.00  0.00    +0.000 NA
ATOM     31  C   UNL     1       5.059   4.515  18.322  0.00  0.00    +0.000 A 
ENDBRANCH  25  31
ENDBRANCH  21  25
ENDBRANCH   1  21
TORSDOF 6
ENDMDL
MODEL 2
REMARK VINA RESULT:      -8.0      2.607      7.280
REMARK  Name = 
REMARK  7 active torsions:
REMARK  status: ('A' for Active; 'I' for Inactive)
REMARK    1  A    between atoms: C_1  and  N_2
REMARK    2  A    between atoms: C_6  and  C_7
REMARK    3  A    between atoms: C_7  and  C_8
REMARK    4  A    between atoms: C_8  and  C_9
REMARK    5  A    between atoms: C_13  and  N_14
REMARK    6  A    between atoms: C_19  and  C_20
REMARK    7  A    between atoms: C_20  and  N_21
REMARK                            x       y       z     vdW  Elec       q    Type
REMARK                         _______ _______ _______ _____ _____    ______ ____
ROOT
ATOM      1  C   UNL     1       1.744   7.181  20.385  0.00  0.00    +0.000 A 
ATOM      2  C   UNL     1       1.419   5.986  21.061  0.00  0.00    +0.000 A 
ATOM      3  C   UNL     1       2.140   4.811  20.867  0.00  0.00    +0.000 A 
ATOM      4  C   UNL     1       3.123   4.762  19.889  0.00  0.00    +0.000 A 
ATOM      5  C   UNL     1       3.252   5.834  18.996  0.00  0.00    +0.000 A 
ATOM      6  C   UNL     1       2.683   7.067  19.341  0.00  0.00    +0.000 A 
ENDROOT
BRANCH   5   7
ATOM      7  N   UNL     1       3.511   5.575  17.579  0.00  0.00    +0.000 N 
ATOM      8  C   UNL     1       4.412   4.397  17.452  0.00  0.00    +0.000 C 
ATOM      9  C   UNL     1       5.758   5.045  17.554  0.00  0.00    +0.000 A 
ATOM     10  C   UNL     1       6.822   4.698  18.369  0.00  0.00    +0.000 A 
ATOM     11  C   UNL     1       7.756   5.692  18.684  0.00  0.00    +0.000 A 
ATOM     12  C   UNL     1       7.646   7.005  18.158  0.00  0.00    +0.000 A 
ATOM     13  C   UNL     1       6.590   7.319  17.288  0.00  0.00    +0.000 A 
ATOM     14  C   UNL     1       5.646   6.336  17.042  0.00  0.00    +0.000 A 
ATOM     15  C   UNL     1       4.193   6.617  16.890  0.00  0.00    +0.000 C 
ATOM     16  O   UNL     1       3.739   7.665  16.466  0.00  0.00    +0.000 OA
BRANCH  12  17
ATOM     17  C   UNL     1       8.534   8.112  18.675  0.00  0.00    +0.000 C 
BRANCH  17  18
ATOM     18  N   UNL     1       8.249   9.396  18.035  0.00  0.00    +0.000 NA
ATOM     19  F   UNL     1       9.102  10.382  18.471  0.00  0.00    +0.000 F 
ATOM     20  H   UNL     1       7.280   9.654  18.221  0.00  0.00    +0.000 HD
ENDBRANCH  17  18
ENDBRANCH  12  17
ENDBRANCH   5   7
BRANCH   1  21
ATOM     21  C   UNL     1       1.107   8.588  20.802  0.00  0.00    +0.000 C 
ATOM     22  C   UNL     1      -0.337   8.499  21.385  0.00  0.00    +0.000 C 
ATOM     23  O   UNL     1       0.058   9.161  22.604  0.00  0.00    +0.000 OA
ATOM     24  C   UNL     1       1.449   9.088  22.228  0.00  0.00    +0.000 C 
BRANCH  21  25
ATOM     25  C   UNL     1       1.161   9.665  19.701  0.00  0.00    +0.000 C 
BRANCH  25  31
ATOM     26  C   UNL     1       0.305  12.384  21.138  0.00  0.00    +0.000 C 
ATOM     27  N   UNL     1      -0.409  11.662  20.125  0.00  0.00    +0.000 N 
ATOM     28  C   UNL     1      -1.648  11.995  19.667  0.00  0.00    +0.000 A 
ATOM     29  N   UNL     1      -2.043  11.104  18.791  0.00  0.00    +0.000 NA
ATOM     30  N   UNL     1      -1.055  10.164  18.689  0.00  0.00    +0.000 NA
ATOM     31  C   UNL     1      -0.054  10.504  19.478  0.00  0.00    +0.000 A 
ENDBRANCH  25  31
ENDBRANCH  21  25
ENDBRANCH   1  21
TORSDOF 6
ENDMDL
MODEL 3
REMARK VINA RESULT:      -8.0      3.080      7.165
REMARK  Name = 
REMARK  7 active torsions:
REMARK  status: ('A' for Active; 'I' for Inactive)
REMARK    1  A    between atoms: C_1  and  N_2
REMARK    2  A    between atoms: C_6  and  C_7
REMARK    3  A    between atoms: C_7  and  C_8
REMARK    4  A    between atoms: C_8  and  C_9
REMARK    5  A    between atoms: C_13  and  N_14
REMARK    6  A    between atoms: C_19  and  C_20
REMARK    7  A    between atoms: C_20  and  N_21
REMARK                            x       y       z     vdW  Elec       q    Type
REMARK                         _______ _______ _______ _____ _____    ______ ____
ROOT
ATOM      1  C   UNL     1       3.231   4.009  19.453  0.00  0.00    +0.000 A 
ATOM      2  C   UNL     1       2.922   3.436  18.202  0.00  0.00    +0.000 A 
ATOM      3  C   UNL     1       3.914   3.025  17.315  0.00  0.00    +0.000 A 
ATOM      4  C   UNL     1       5.244   3.300  17.598  0.00  0.00    +0.000 A 
ATOM      5  C   UNL     1       5.554   4.139  18.677  0.00  0.00    +0.000 A 
ATOM      6  C   UNL     1       4.582   4.352  19.662  0.00  0.00    +0.000 A 
ENDROOT
BRANCH   5   7
ATOM      7  N   UNL     1       6.620   5.134  18.544  0.00  0.00    +0.000 N 
ATOM      8  C   UNL     1       6.048   6.396  17.999  0.00  0.00    +0.000 C 
ATOM      9  C   UNL     1       6.134   6.144  16.526  0.00  0.00    +0.000 A 
ATOM     10  C   UNL     1       5.143   6.284  15.568  0.00  0.00    +0.000 A 
ATOM     11  C   UNL     1       5.262   5.536  14.391  0.00  0.00    +0.000 A 
ATOM     12  C   UNL     1       6.376   4.690  14.160  0.00  0.00    +0.000 A 
ATOM     13  C   UNL     1       7.398   4.607  15.120  0.00  0.00    +0.000 A 
ATOM     14  C   UNL     1       7.226   5.309  16.302  0.00  0.00    +0.000 A 
ATOM     15  C   UNL     1       7.654   4.791  17.629  0.00  0.00    +0.000 C 
ATOM     16  O   UNL     1       8.588   4.026  17.798  0.00  0.00    +0.000 OA
BRANCH  12  17
ATOM     17  C   UNL     1       6.381   3.736  12.989  0.00  0.00    +0.000 C 
BRANCH  17  18
ATOM     18  N   UNL     1       7.117   4.269  11.842  0.00  0.00    +0.000 NA
ATOM     19  F   UNL     1       7.926   5.320  12.202  0.00  0.00    +0.000 F 
ATOM     20  H   UNL     1       6.453   4.558  11.125  0.00  0.00    +0.000 HD
ENDBRANCH  17  18
ENDBRANCH  12  17
ENDBRANCH   5   7
BRANCH   1  21
ATOM     21  C   UNL     1       2.117   4.228  20.580  0.00  0.00    +0.000 C 
ATOM     22  C   UNL     1       0.717   3.635  20.233  0.00  0.00    +0.000 C 
ATOM     23  O   UNL     1       0.703   2.828  21.428  0.00  0.00    +0.000 OA
ATOM     24  C   UNL     1       2.079   3.163  21.706  0.00  0.00    +0.000 C 
BRANCH  21  25
ATOM     25  C   UNL     1       1.965   5.686  21.055  0.00  0.00    +0.000 C 
BRANCH  25  31
ATOM     26  C   UNL     1       1.195   8.771  21.338  0.00  0.00    +0.000 C 
ATOM     27  N   UNL     1       1.671   8.088  20.171  0.00  0.00    +0.000 N 
ATOM     28  C   UNL     1       1.791   8.654  18.938  0.00  0.00    +0.000 A 
ATOM     29  N   UNL     1       2.196   7.750  18.080  0.00  0.00    +0.000 NA
ATOM     30  N   UNL     1       2.325   6.569  18.759  0.00  0.00    +0.000 NA
ATOM     31  C   UNL     1       2.028   6.769  20.029  0.00  0.00    +0.000 A 
ENDBRANCH  25  31
ENDBRANCH  21  25
ENDBRANCH   1  21
TORSDOF 6
ENDMDL
MODEL 4
REMARK VINA RESULT:      -8.0      2.618      7.268
REMARK  Name = 
REMARK  7 active torsions:
REMARK  status: ('A' for Active; 'I' for Inactive)
REMARK    1  A    between atoms: C_1  and  N_2
REMARK    2  A    between atoms: C_6  and  C_7
REMARK    3  A    between atoms: C_7  and  C_8
REMARK    4  A    between atoms: C_8  and  C_9
REMARK    5  A    between atoms: C_13  and  N_14
REMARK    6  A    between atoms: C_19  and  C_20
REMARK    7  A    between atoms: C_20  and  N_21
REMARK                            x       y       z     vdW  Elec       q    Type
REMARK                         _______ _______ _______ _____ _____    ______ ____
ROOT
ATOM      1  C   UNL     1       1.690   7.212  20.393  0.00  0.00    +0.000 A 
ATOM      2  C   UNL     1       1.420   6.005  21.070  0.00  0.00    +0.000 A 
ATOM      3  C   UNL     1       2.181   4.857  20.861  0.00  0.00    +0.000 A 
ATOM      4  C   UNL     1       3.150   4.848  19.868  0.00  0.00    +0.000 A 
ATOM      5  C   UNL     1       3.225   5.927  18.977  0.00  0.00    +0.000 A 
ATOM      6  C   UNL     1       2.617   7.136  19.334  0.00  0.00    +0.000 A 
ENDROOT
BRANCH   5   7
ATOM      7  N   UNL     1       3.472   5.682  17.555  0.00  0.00    +0.000 N 
ATOM      8  C   UNL     1       4.354   4.492  17.408  0.00  0.00    +0.000 C 
ATOM      9  C   UNL     1       5.711   5.118  17.509  0.00  0.00    +0.000 A 
ATOM     10  C   UNL     1       6.774   4.744  18.313  0.00  0.00    +0.000 A 
ATOM     11  C   UNL     1       7.725   5.721  18.634  0.00  0.00    +0.000 A 
ATOM     12  C   UNL     1       7.632   7.041  18.125  0.00  0.00    +0.000 A 
ATOM     13  C   UNL     1       6.575   7.383  17.266  0.00  0.00    +0.000 A 
ATOM     14  C   UNL     1       5.615   6.417  17.014  0.00  0.00    +0.000 A 
ATOM     15  C   UNL     1       4.166   6.722  16.875  0.00  0.00    +0.000 C 
ATOM     16  O   UNL     1       3.725   7.781  16.467  0.00  0.00    +0.000 OA
BRANCH  12  17
ATOM     17  C   UNL     1       8.540   8.128  18.651  0.00  0.00    +0.000 C 
BRANCH  17  18
ATOM     18  N   UNL     1       8.230   9.437  18.073  0.00  0.00    +0.000 NA
ATOM     19  F   UNL     1       9.370  10.161  17.815  0.00  0.00    +0.000 F 
ATOM     20  H   UNL     1       7.619   9.946  18.710  0.00  0.00    +0.000 HD
ENDBRANCH  17  18
ENDBRANCH  12  17
ENDBRANCH   5   7
BRANCH   1  21
ATOM     21  C   UNL     1       1.008   8.593  20.824  0.00  0.00    +0.000 C 
ATOM     22  C   UNL     1      -0.391   8.444  21.498  0.00  0.00    +0.000 C 
ATOM     23  O   UNL     1       0.044   9.150  22.678  0.00  0.00    +0.000 OA
ATOM     24  C   UNL     1       1.411   9.139  22.217  0.00  0.00    +0.000 C 
BRANCH  21  25
ATOM     25  C   UNL     1       0.938   9.649  19.703  0.00  0.00    +0.000 C 
BRANCH  25  31
ATOM     26  C   UNL     1      -1.809  10.134  18.151  0.00  0.00    +0.000 C 
ATOM     27  N   UNL     1      -1.209  10.963  19.155  0.00  0.00    +0.000 N 
ATOM     28  C   UNL     1      -1.696  12.171  19.552  0.00  0.00    +0.000 A 
ATOM     29  N   UNL     1      -0.887  12.698  20.438  0.00  0.00    +0.000 NA
ATOM     30  N   UNL     1       0.156  11.829  20.609  0.00  0.00    +0.000 NA
ATOM     31  C   UNL     1      -0.041  10.767  19.851  0.00  0.00    +0.000 A 
ENDBRANCH  25  31
ENDBRANCH  21  25
ENDBRANCH   1  21
TORSDOF 6
ENDMDL
MODEL 5
REMARK VINA RESULT:      -7.9      4.588      7.125
REMARK  Name = 
REMARK  7 active torsions:
REMARK  status: ('A' for Active; 'I' for Inactive)
REMARK    1  A    between atoms: C_1  and  N_2
REMARK    2  A    between atoms: C_6  and  C_7
REMARK    3  A    between atoms: C_7  and  C_8
REMARK    4  A    between atoms: C_8  and  C_9
REMARK    5  A    between atoms: C_13  and  N_14
REMARK    6  A    between atoms: C_19  and  C_20
REMARK    7  A    between atoms: C_20  and  N_21
REMARK                            x       y       z     vdW  Elec       q    Type
REMARK                         _______ _______ _______ _____ _____    ______ ____
ROOT
ATOM      1  C   UNL     1       4.868   6.070  17.870  0.00  0.00    +0.000 A 
ATOM      2  C   UNL     1       4.420   7.329  17.418  0.00  0.00    +0.000 A 
ATOM      3  C   UNL     1       3.124   7.779  17.658  0.00  0.00    +0.000 A 
ATOM      4  C   UNL     1       2.198   6.925  18.240  0.00  0.00    +0.000 A 
ATOM      5  C   UNL     1       2.528   5.575  18.412  0.00  0.00    +0.000 A 
ATOM      6  C   UNL     1       3.878   5.203  18.372  0.00  0.00    +0.000 A 
ENDROOT
BRANCH   5   7
ATOM      7  N   UNL     1       1.528   4.540  18.143  0.00  0.00    +0.000 N 
ATOM      8  C   UNL     1       0.808   4.215  19.405  0.00  0.00    +0.000 C 
ATOM      9  C   UNL     1       1.700   3.164  19.990  0.00  0.00    +0.000 A 
ATOM     10  C   UNL     1       2.221   3.091  21.271  0.00  0.00    +0.000 A 
ATOM     11  C   UNL     1       3.396   2.353  21.457  0.00  0.00    +0.000 A 
ATOM     12  C   UNL     1       4.017   1.666  20.384  0.00  0.00    +0.000 A 
ATOM     13  C   UNL     1       3.440   1.707  19.104  0.00  0.00    +0.000 A 
ATOM     14  C   UNL     1       2.314   2.494  18.933  0.00  0.00    +0.000 A 
ATOM     15  C   UNL     1       2.053   3.292  17.705  0.00  0.00    +0.000 C 
ATOM     16  O   UNL     1       2.452   2.990  16.594  0.00  0.00    +0.000 OA
BRANCH  12  17
ATOM     17  C   UNL     1       5.389   1.057  20.558  0.00  0.00    +0.000 C 
BRANCH  17  18
ATOM     18  N   UNL     1       5.792   0.994  21.964  0.00  0.00    +0.000 NA
ATOM     19  F   UNL     1       6.495  -0.155  22.239  0.00  0.00    +0.000 F 
ATOM     20  H   UNL     1       4.962   1.055  22.552  0.00  0.00    +0.000 HD
ENDBRANCH  17  18
ENDBRANCH  12  17
ENDBRANCH   5   7
BRANCH   1  21
ATOM     21  C   UNL     1       6.415   5.664  17.842  0.00  0.00    +0.000 C 
ATOM     22  C   UNL     1       7.395   6.855  17.612  0.00  0.00    +0.000 C 
ATOM     23  O   UNL     1       8.110   6.572  18.832  0.00  0.00    +0.000 OA
ATOM     24  C   UNL     1       7.120   5.597  19.220  0.00  0.00    +0.000 C 
BRANCH  21  25
ATOM     25  C   UNL     1       6.756   4.512  16.876  0.00  0.00    +0.000 C 
BRANCH  25  31
ATOM     26  C   UNL     1       5.105   3.535  14.325  0.00  0.00    +0.000 C 
ATOM     27  N   UNL     1       6.254   4.392  14.353  0.00  0.00    +0.000 N 
ATOM     28  C   UNL     1       6.890   4.868  13.247  0.00  0.00    +0.000 A 
ATOM     29  N   UNL     1       7.935   5.570  13.612  0.00  0.00    +0.000 NA
ATOM     30  N   UNL     1       7.993   5.537  14.979  0.00  0.00    +0.000 NA
ATOM     31  C   UNL     1       6.969   4.842  15.436  0.00  0.00    +0.000 A 
ENDBRANCH  25  31
ENDBRANCH  21  25
ENDBRANCH   1  21
TORSDOF 6
ENDMDL
MODEL 6
REMARK VINA RESULT:      -7.8      2.403      6.989
REMARK  Name = 
REMARK  7 active torsions:
REMARK  status: ('A' for Active; 'I' for Inactive)
REMARK    1  A    between atoms: C_1  and  N_2
REMARK    2  A    between atoms: C_6  and  C_7
REMARK    3  A    between atoms: C_7  and  C_8
REMARK    4  A    between atoms: C_8  and  C_9
REMARK    5  A    between atoms: C_13  and  N_14
REMARK    6  A    between atoms: C_19  and  C_20
REMARK    7  A    between atoms: C_20  and  N_21
REMARK                            x       y       z     vdW  Elec       q    Type
REMARK                         _______ _______ _______ _____ _____    ______ ____
ROOT
ATOM      1  C   UNL     1       1.717   7.266  20.231  0.00  0.00    +0.000 A 
ATOM      2  C   UNL     1       1.446   6.092  20.963  0.00  0.00    +0.000 A 
ATOM      3  C   UNL     1       2.233   4.950  20.841  0.00  0.00    +0.000 A 
ATOM      4  C   UNL     1       3.234   4.906  19.881  0.00  0.00    +0.000 A 
ATOM      5  C   UNL     1       3.320   5.936  18.935  0.00  0.00    +0.000 A 
ATOM      6  C   UNL     1       2.679   7.151  19.207  0.00  0.00    +0.000 A 
ENDROOT
BRANCH   5   7
ATOM      7  N   UNL     1       3.617   5.620  17.537  0.00  0.00    +0.000 N 
ATOM      8  C   UNL     1       4.528   4.444  17.483  0.00  0.00    +0.000 C 
ATOM      9  C   UNL     1       5.867   5.106  17.592  0.00  0.00    +0.000 A 
ATOM     10  C   UNL     1       6.912   4.800  18.448  0.00  0.00    +0.000 A 
ATOM     11  C   UNL     1       7.831   5.814  18.744  0.00  0.00    +0.000 A 
ATOM     12  C   UNL     1       7.726   7.103  18.161  0.00  0.00    +0.000 A 
ATOM     13  C   UNL     1       6.691   7.373  17.251  0.00  0.00    +0.000 A 
ATOM     14  C   UNL     1       5.761   6.373  17.023  0.00  0.00    +0.000 A 
ATOM     15  C   UNL     1       4.310   6.637  16.823  0.00  0.00    +0.000 C 
ATOM     16  O   UNL     1       3.860   7.663  16.344  0.00  0.00    +0.000 OA
BRANCH  12  17
ATOM     17  C   UNL     1       8.594   8.237  18.653  0.00  0.00    +0.000 C 
BRANCH  17  18
ATOM     18  N   UNL     1       8.283   9.502  17.988  0.00  0.00    +0.000 NA
ATOM     19  F   UNL     1       8.759  10.580  18.697  0.00  0.00    +0.000 F 
ATOM     20  H   UNL     1       7.274   9.574  17.862  0.00  0.00    +0.000 HD
ENDBRANCH  17  18
ENDBRANCH  12  17
ENDBRANCH   5   7
BRANCH   1  21
ATOM     21  C   UNL     1       0.997   8.655  20.565  0.00  0.00    +0.000 C 
ATOM     22  C   UNL     1      -0.175   8.550  21.589  0.00  0.00    +0.000 C 
ATOM     23  O   UNL     1       0.440   9.511  22.471  0.00  0.00    +0.000 OA
ATOM     24  C   UNL     1       1.651   9.502  21.686  0.00  0.00    +0.000 C 
BRANCH  21  25
ATOM     25  C   UNL     1       0.539   9.452  19.327  0.00  0.00    +0.000 C 
BRANCH  25  31
ATOM     26  C   UNL     1      -0.227  12.394  20.301  0.00  0.00    +0.000 C 
ATOM     27  N   UNL     1       0.859  12.005  19.450  0.00  0.00    +0.000 N 
ATOM     28  C   UNL     1       1.710  12.873  18.836  0.00  0.00    +0.000 A 
ATOM     29  N   UNL     1       2.550  12.205  18.085  0.00  0.00    +0.000 NA
ATOM     30  N   UNL     1       2.231  10.879  18.194  0.00  0.00    +0.000 NA
ATOM     31  C   UNL     1       1.222  10.747  19.033  0.00  0.00    +0.000 A 
ENDBRANCH  25  31
ENDBRANCH  21  25
ENDBRANCH   1  21
TORSDOF 6
ENDMDL
MODEL 7
REMARK VINA RESULT:      -7.8      2.813      7.774
REMARK  Name = 
REMARK  7 active torsions:
REMARK  status: ('A' for Active; 'I' for Inactive)
REMARK    1  A    between atoms: C_1  and  N_2
REMARK    2  A    between atoms: C_6  and  C_7
REMARK    3  A    between atoms: C_7  and  C_8
REMARK    4  A    between atoms: C_8  and  C_9
REMARK    5  A    between atoms: C_13  and  N_14
REMARK    6  A    between atoms: C_19  and  C_20
REMARK    7  A    between atoms: C_20  and  N_21
REMARK                            x       y       z     vdW  Elec       q    Type
REMARK                         _______ _______ _______ _____ _____    ______ ____
ROOT
ATOM      1  C   UNL     1       1.735   8.148  19.680  0.00  0.00    +0.000 A 
ATOM      2  C   UNL     1       2.252   8.571  18.438  0.00  0.00    +0.000 A 
ATOM      3  C   UNL     1       2.633   7.665  17.452  0.00  0.00    +0.000 A 
ATOM      4  C   UNL     1       2.633   6.306  17.731  0.00  0.00    +0.000 A 
ATOM      5  C   UNL     1       2.423   5.880  19.050  0.00  0.00    +0.000 A 
ATOM      6  C   UNL     1       1.836   6.770  19.957  0.00  0.00    +0.000 A 
ENDROOT
BRANCH   5   7
ATOM      7  N   UNL     1       3.214   4.775  19.593  0.00  0.00    +0.000 N 
ATOM      8  C   UNL     1       4.586   5.261  19.904  0.00  0.00    +0.000 C 
ATOM      9  C   UNL     1       5.271   5.069  18.586  0.00  0.00    +0.000 A 
ATOM     10  C   UNL     1       6.033   5.977  17.870  0.00  0.00    +0.000 A 
ATOM     11  C   UNL     1       6.141   5.791  16.486  0.00  0.00    +0.000 A 
ATOM     12  C   UNL     1       5.527   4.690  15.836  0.00  0.00    +0.000 A 
ATOM     13  C   UNL     1       4.807   3.750  16.590  0.00  0.00    +0.000 A 
ATOM     14  C   UNL     1       4.663   3.990  17.947  0.00  0.00    +0.000 A 
ATOM     15  C   UNL     1       3.419   3.684  18.703  0.00  0.00    +0.000 C 
ATOM     16  O   UNL     1       2.642   2.792  18.412  0.00  0.00    +0.000 OA
BRANCH  12  17
ATOM     17  C   UNL     1       5.477   4.625  14.328  0.00  0.00    +0.000 C 
BRANCH  17  18
ATOM     18  N   UNL     1       6.284   3.528  13.793  0.00  0.00    +0.000 NA
ATOM     19  F   UNL     1       5.793   3.076  12.591  0.00  0.00    +0.000 F 
ATOM     20  H   UNL     1       6.313   2.771  14.475  0.00  0.00    +0.000 HD
ENDBRANCH  17  18
ENDBRANCH  12  17
ENDBRANCH   5   7
BRANCH   1  21
ATOM     21  C   UNL     1       1.044   9.169  20.700  0.00  0.00    +0.000 C 
ATOM     22  C   UNL     1      -0.312   8.678  21.292  0.00  0.00    +0.000 C 
ATOM     23  O   UNL     1       0.168   8.814  22.644  0.00  0.00    +0.000 OA
ATOM     24  C   UNL     1       1.509   9.067  22.175  0.00  0.00    +0.000 C 
BRANCH  21  25
ATOM     25  C   UNL     1       0.891  10.606  20.161  0.00  0.00    +0.000 C 
BRANCH  25  31
ATOM     26  C   UNL     1      -1.607  12.260  21.262  0.00  0.00    +0.000 C 
ATOM     27  N   UNL     1      -1.451  11.660  19.969  0.00  0.00    +0.000 N 
ATOM     28  C   UNL     1      -2.416  11.632  19.008  0.00  0.00    +0.000 A 
ATOM     29  N   UNL     1      -1.980  10.961  17.970  0.00  0.00    +0.000 NA
ATOM     30  N   UNL     1      -0.716  10.527  18.265  0.00  0.00    +0.000 NA
ATOM     31  C   UNL     1      -0.381  10.963  19.465  0.00  0.00    +0.000 A 
ENDBRANCH  25  31
ENDBRANCH  21  25
ENDBRANCH   1  21
TORSDOF 6
ENDMDL
MODEL 8
REMARK VINA RESULT:      -7.7      2.946      4.180
REMARK  Name = 
REMARK  7 active torsions:
REMARK  status: ('A' for Active; 'I' for Inactive)
REMARK    1  A    between atoms: C_1  and  N_2
REMARK    2  A    between atoms: C_6  and  C_7
REMARK    3  A    between atoms: C_7  and  C_8
REMARK    4  A    between atoms: C_8  and  C_9
REMARK    5  A    between atoms: C_13  and  N_14
REMARK    6  A    between atoms: C_19  and  C_20
REMARK    7  A    between atoms: C_20  and  N_21
REMARK                            x       y       z     vdW  Elec       q    Type
REMARK                         _______ _______ _______ _____ _____    ______ ____
ROOT
ATOM      1  C   UNL     1       2.058   7.446  19.592  0.00  0.00    +0.000 A 
ATOM      2  C   UNL     1       1.696   7.058  20.899  0.00  0.00    +0.000 A 
ATOM      3  C   UNL     1       0.848   7.830  21.688  0.00  0.00    +0.000 A 
ATOM      4  C   UNL     1       0.446   9.081  21.243  0.00  0.00    +0.000 A 
ATOM      5  C   UNL     1       1.039   9.620  20.094  0.00  0.00    +0.000 A 
ATOM      6  C   UNL     1       1.705   8.757  19.215  0.00  0.00    +0.000 A 
ENDROOT
BRANCH   5   7
ATOM      7  N   UNL     1       1.391  11.040  20.053  0.00  0.00    +0.000 N 
ATOM      8  C   UNL     1       0.498  11.794  20.975  0.00  0.00    +0.000 C 
ATOM      9  C   UNL     1      -0.669  12.084  20.081  0.00  0.00    +0.000 A 
ATOM     10  C   UNL     1      -2.015  11.869  20.324  0.00  0.00    +0.000 A 
ATOM     11  C   UNL     1      -2.863  11.722  19.219  0.00  0.00    +0.000 A 
ATOM     12  C   UNL     1      -2.375  11.829  17.892  0.00  0.00    +0.000 A 
ATOM     13  C   UNL     1      -1.016  12.104  17.670  0.00  0.00    +0.000 A 
ATOM     14  C   UNL     1      -0.188  12.183  18.777  0.00  0.00    +0.000 A 
ATOM     15  C   UNL     1       1.209  11.671  18.790  0.00  0.00    +0.000 C 
ATOM     16  O   UNL     1       1.927  11.614  17.808  0.00  0.00    +0.000 OA
BRANCH  12  17
ATOM     17  C   UNL     1      -3.257  11.459  16.722  0.00  0.00    +0.000 C 
BRANCH  17  18
ATOM     18  N   UNL     1      -2.485  11.200  15.506  0.00  0.00    +0.000 NA
ATOM     19  F   UNL     1      -3.210  10.479  14.588  0.00  0.00    +0.000 F 
ATOM     20  H   UNL     1      -1.628  10.707  15.753  0.00  0.00    +0.000 HD
ENDBRANCH  17  18
ENDBRANCH  12  17
ENDBRANCH   5   7
BRANCH   1  21
ATOM     21  C   UNL     1       2.798   6.445  18.588  0.00  0.00    +0.000 C 
ATOM     22  C   UNL     1       3.727   7.141  17.546  0.00  0.00    +0.000 C 
ATOM     23  O   UNL     1       4.870   6.372  17.972  0.00  0.00    +0.000 OA
ATOM     24  C   UNL     1       4.134   5.845  19.096  0.00  0.00    +0.000 C 
BRANCH  21  25
ATOM     25  C   UNL     1       1.864   5.450  17.873  0.00  0.00    +0.000 C 
BRANCH  25  31
ATOM     26  C   UNL     1       0.968   3.566  20.290  0.00  0.00    +0.000 C 
ATOM     27  N   UNL     1       1.730   3.205  19.130  0.00  0.00    +0.000 N 
ATOM     28  C   UNL     1       2.281   1.978  18.918  0.00  0.00    +0.000 A 
ATOM     29  N   UNL     1       2.961   1.992  17.798  0.00  0.00    +0.000 NA
ATOM     30  N   UNL     1       2.870   3.255  17.279  0.00  0.00    +0.000 NA
ATOM     31  C   UNL     1       2.110   3.990  18.069  0.00  0.00    +0.000 A 
ENDBRANCH  25  31
ENDBRANCH  21  25
ENDBRANCH   1  21
TORSDOF 6
ENDMDL
MODEL 9
REMARK VINA RESULT:      -7.6      2.320      7.467
REMARK  Name = 
REMARK  7 active torsions:
REMARK  status: ('A' for Active; 'I' for Inactive)
REMARK    1  A    between atoms: C_1  and  N_2
REMARK    2  A    between atoms: C_6  and  C_7
REMARK    3  A    between atoms: C_7  and  C_8
REMARK    4  A    between atoms: C_8  and  C_9
REMARK    5  A    between atoms: C_13  and  N_14
REMARK    6  A    between atoms: C_19  and  C_20
REMARK    7  A    between atoms: C_20  and  N_21
REMARK                            x       y       z     vdW  Elec       q    Type
REMARK                         _______ _______ _______ _____ _____    ______ ____
ROOT
ATOM      1  C   UNL     1       1.619   8.088  19.762  0.00  0.00    +0.000 A 
ATOM      2  C   UNL     1       2.496   8.451  18.719  0.00  0.00    +0.000 A 
ATOM      3  C   UNL     1       2.851   7.558  17.711  0.00  0.00    +0.000 A 
ATOM      4  C   UNL     1       2.445   6.235  17.793  0.00  0.00    +0.000 A 
ATOM      5  C   UNL     1       1.839   5.777  18.970  0.00  0.00    +0.000 A 
ATOM      6  C   UNL     1       1.304   6.718  19.859  0.00  0.00    +0.000 A 
ENDROOT
BRANCH   5   7
ATOM      7  N   UNL     1       2.180   4.456  19.501  0.00  0.00    +0.000 N 
ATOM      8  C   UNL     1       3.390   4.571  20.361  0.00  0.00    +0.000 C 
ATOM      9  C   UNL     1       4.484   4.420  19.350  0.00  0.00    +0.000 A 
ATOM     10  C   UNL     1       5.593   5.225  19.154  0.00  0.00    +0.000 A 
ATOM     11  C   UNL     1       6.189   5.220  17.886  0.00  0.00    +0.000 A 
ATOM     12  C   UNL     1       5.703   4.390  16.844  0.00  0.00    +0.000 A 
ATOM     13  C   UNL     1       4.613   3.539  17.082  0.00  0.00    +0.000 A 
ATOM     14  C   UNL     1       4.004   3.609  18.324  0.00  0.00    +0.000 A 
ATOM     15  C   UNL     1       2.534   3.486  18.521  0.00  0.00    +0.000 C 
ATOM     16  O   UNL     1       1.796   2.843  17.796  0.00  0.00    +0.000 OA
BRANCH  12  17
ATOM     17  C   UNL     1       6.220   4.555  15.434  0.00  0.00    +0.000 C 
BRANCH  17  18
ATOM     18  N   UNL     1       6.159   5.945  14.980  0.00  0.00    +0.000 NA
ATOM     19  F   UNL     1       4.949   6.524  15.280  0.00  0.00    +0.000 F 
ATOM     20  H   UNL     1       6.331   5.976  13.976  0.00  0.00    +0.000 HD
ENDBRANCH  17  18
ENDBRANCH  12  17
ENDBRANCH   5   7
BRANCH   1  21
ATOM     21  C   UNL     1       0.994   9.174  20.757  0.00  0.00    +0.000 C 
ATOM     22  C   UNL     1      -0.349   8.746  21.424  0.00  0.00    +0.000 C 
ATOM     23  O   UNL     1       0.188   8.934  22.749  0.00  0.00    +0.000 OA
ATOM     24  C   UNL     1       1.515   9.130  22.216  0.00  0.00    +0.000 C 
BRANCH  21  25
ATOM     25  C   UNL     1       0.853  10.586  20.156  0.00  0.00    +0.000 C 
BRANCH  25  31
ATOM     26  C   UNL     1      -1.120  10.067  17.701  0.00  0.00    +0.000 C 
ATOM     27  N   UNL     1      -1.345  10.895  18.850  0.00  0.00    +0.000 N 
ATOM     28  C   UNL     1      -2.442  11.681  19.033  0.00  0.00    +0.000 A 
ATOM     29  N   UNL     1      -2.316  12.353  20.151  0.00  0.00    +0.000 NA
ATOM     30  N   UNL     1      -1.108  12.015  20.698  0.00  0.00    +0.000 NA
ATOM     31  C   UNL     1      -0.523  11.118  19.927  0.00  0.00    +0.000 A 
ENDBRANCH  25  31
ENDBRANCH  21  25
ENDBRANCH   1  21
TORSDOF 6
ENDMDL
