MODEL 1
REMARK VINA RESULT:      -8.7      0.000      0.000
REMARK  Name = 
REMARK  6 active torsions:
REMARK  status: ('A' for Active; 'I' for Inactive)
REMARK    1  A    between atoms: C_1  and  C_2
REMARK    2  A    between atoms: C_4  and  C_5
REMARK    3  A    between atoms: C_8  and  C_9
REMARK    4  A    between atoms: C_9  and  C_10
REMARK    5  A    between atoms: C_10  and  C_11
REMARK    6  A    between atoms: C_21  and  C_22
REMARK                            x       y       z     vdW  Elec       q    Type
REMARK                         _______ _______ _______ _____ _____    ______ ____
ROOT
ATOM      1  C   UNL     1       1.987   8.648  18.588  0.00  0.00    +0.000 C 
ATOM      2  O   UNL     1       2.188   8.988  17.424  0.00  0.00    +0.000 OA
ATOM      3  N   UNL     1       2.205   7.349  19.036  0.00  0.00    +0.000 N 
ATOM      4  C   UNL     1       1.935   6.911  20.406  0.00  0.00    +0.000 C 
ATOM      5  C   UNL     1       2.579   5.586  20.800  0.00  0.00    +0.000 C 
ATOM      6  C   UNL     1       2.261   4.518  19.785  0.00  0.00    +0.000 A 
ATOM      7  C   UNL     1       2.238   4.926  18.431  0.00  0.00    +0.000 A 
ATOM      8  C   UNL     1       1.954   3.993  17.425  0.00  0.00    +0.000 A 
ATOM      9  C   UNL     1       1.687   2.667  17.753  0.00  0.00    +0.000 A 
ATOM     10  C   UNL     1       1.727   2.253  19.084  0.00  0.00    +0.000 A 
ATOM     11  C   UNL     1       2.017   3.166  20.113  0.00  0.00    +0.000 A 
ATOM     12  C   UNL     1       2.613   6.344  18.057  0.00  0.00    +0.000 C 
ENDROOT
BRANCH  11  13
ATOM     13  C   UNL     1       2.124   2.663  21.518  0.00  0.00    +0.000 C 
ATOM     14  N   UNL     1       0.976   2.618  22.266  0.00  0.00    +0.000 N 
ATOM     15  O   UNL     1       3.183   2.298  22.009  0.00  0.00    +0.000 OA
ATOM     16  H   UNL     1       0.094   3.009  21.970  0.00  0.00    +0.000 HD
ATOM     17  H   UNL     1       1.070   2.325  23.228  0.00  0.00    +0.000 HD
ENDBRANCH  11  13
BRANCH   1  18
ATOM     18  C   UNL     1       1.529   9.655  19.626  0.00  0.00    +0.000 C 
BRANCH  18  19
ATOM     19  C   UNL     1       0.023   9.888  19.582  0.00  0.00    +0.000 C 
BRANCH  19  23
ATOM     20  C   UNL     1      -1.173  11.557  22.495  0.00  0.00    +0.000 A 
ATOM     21  N   UNL     1      -0.390  10.636  23.082  0.00  0.00    +0.000 NA
ATOM     22  O   UNL     1       0.108   9.891  22.012  0.00  0.00    +0.000 OA
ATOM     23  C   UNL     1      -0.426  10.434  20.883  0.00  0.00    +0.000 A 
ATOM     24  N   UNL     1      -1.219  11.452  21.120  0.00  0.00    +0.000 NA
BRANCH  20  28
ATOM     25  C   UNL     1      -1.176  16.103  24.593  0.00  0.00    +0.000 C 
ATOM     26  C   UNL     1      -1.880  14.828  24.241  0.00  0.00    +0.000 A 
ATOM     27  C   UNL     1      -1.226  13.809  23.535  0.00  0.00    +0.000 A 
ATOM     28  C   UNL     1      -1.888  12.610  23.208  0.00  0.00    +0.000 A 
ATOM     29  C   UNL     1      -3.226  12.449  23.597  0.00  0.00    +0.000 A 
ATOM     30  C   UNL     1      -3.883  13.458  24.305  0.00  0.00    +0.000 A 
ATOM     31  C   UNL     1      -3.208  14.632  24.622  0.00  0.00    +0.000 A 
ATOM     32  F   UNL     1      -3.853  15.587  25.307  0.00  0.00    +0.000 F 
ENDBRANCH  20  28
ENDBRANCH  19  23
ENDBRANCH  18  19
ENDBRANCH   1  18
TORSDOF 5
ENDMDL
MODEL 2
REMARK VINA RESULT:      -8.6      0.374      1.327
REMARK  Name = 
REMARK  6 active torsions:
REMARK  status: ('A' for Active; 'I' for Inactive)
REMARK    1  A    between atoms: C_1  and  C_2
REMARK    2  A    between atoms: C_4  and  C_5
REMARK    3  A    between atoms: C_8  and  C_9
REMARK    4  A    between atoms: C_9  and  C_10
REMARK    5  A    between atoms: C_10  and  C_11
REMARK    6  A    between atoms: C_21  and  C_22
REMARK                            x       y       z     vdW  Elec       q    Type
REMARK                         _______ _______ _______ _____ _____    ______ ____
ROOT
ATOM      1  C   UNL     1       2.071   8.550  18.492  0.00  0.00    +0.000 C 
ATOM      2  O   UNL     1       2.265   8.868  17.320  0.00  0.00    +0.000 OA
ATOM      3  N   UNL     1       2.270   7.254  18.958  0.00  0.00    +0.000 N 
ATOM      4  C   UNL     1       2.008   6.843  20.337  0.00  0.00    +0.000 C 
ATOM      5  C   UNL     1       2.631   5.512  20.746  0.00  0.00    +0.000 C 
ATOM      6  C   UNL     1       2.281   4.434  19.752  0.00  0.00    +0.000 A 
ATOM      7  C   UNL     1       2.249   4.822  18.392  0.00  0.00    +0.000 A 
ATOM      8  C   UNL     1       1.934   3.879  17.405  0.00  0.00    +0.000 A 
ATOM      9  C   UNL     1       1.646   2.563  17.757  0.00  0.00    +0.000 A 
ATOM     10  C   UNL     1       1.695   2.170  19.094  0.00  0.00    +0.000 A 
ATOM     11  C   UNL     1       2.015   3.093  20.105  0.00  0.00    +0.000 A 
ATOM     12  C   UNL     1       2.646   6.225  17.991  0.00  0.00    +0.000 C 
ENDROOT
BRANCH  11  13
ATOM     13  C   UNL     1       2.129   2.611  21.517  0.00  0.00    +0.000 C 
ATOM     14  N   UNL     1       0.985   2.577  22.271  0.00  0.00    +0.000 N 
ATOM     15  O   UNL     1       3.191   2.252  22.007  0.00  0.00    +0.000 OA
ATOM     16  H   UNL     1       0.101   2.964  21.974  0.00  0.00    +0.000 HD
ATOM     17  H   UNL     1       1.083   2.298  23.236  0.00  0.00    +0.000 HD
ENDBRANCH  11  13
BRANCH   1  18
ATOM     18  C   UNL     1       1.646   9.582  19.518  0.00  0.00    +0.000 C 
BRANCH  18  19
ATOM     19  C   UNL     1       0.155   9.892  19.444  0.00  0.00    +0.000 C 
BRANCH  19  23
ATOM     20  C   UNL     1      -1.093  11.522  22.357  0.00  0.00    +0.000 A 
ATOM     21  N   UNL     1      -0.207  10.693  22.938  0.00  0.00    +0.000 NA
ATOM     22  O   UNL     1       0.321   9.969  21.869  0.00  0.00    +0.000 OA
ATOM     23  C   UNL     1      -0.299  10.429  20.747  0.00  0.00    +0.000 A 
ATOM     24  N   UNL     1      -1.175  11.376  20.989  0.00  0.00    +0.000 NA
BRANCH  20  28
ATOM     25  C   UNL     1      -5.471  12.989  24.293  0.00  0.00    +0.000 C 
ATOM     26  C   UNL     1      -4.022  13.240  24.005  0.00  0.00    +0.000 A 
ATOM     27  C   UNL     1      -3.237  12.285  23.343  0.00  0.00    +0.000 A 
ATOM     28  C   UNL     1      -1.878  12.524  23.071  0.00  0.00    +0.000 A 
ATOM     29  C   UNL     1      -1.309  13.740  23.479  0.00  0.00    +0.000 A 
ATOM     30  C   UNL     1      -2.085  14.698  24.135  0.00  0.00    +0.000 A 
ATOM     31  C   UNL     1      -3.429  14.444  24.389  0.00  0.00    +0.000 A 
ATOM     32  F   UNL     1      -4.160  15.377  25.014  0.00  0.00    +0.000 F 
ENDBRANCH  20  28
ENDBRANCH  19  23
ENDBRANCH  18  19
ENDBRANCH   1  18
TORSDOF 5
ENDMDL
MODEL 3
REMARK VINA RESULT:      -8.6      5.153     10.694
REMARK  Name = 
REMARK  6 active torsions:
REMARK  status: ('A' for Active; 'I' for Inactive)
REMARK    1  A    between atoms: C_1  and  C_2
REMARK    2  A    between atoms: C_4  and  C_5
REMARK    3  A    between atoms: C_8  and  C_9
REMARK    4  A    between atoms: C_9  and  C_10
REMARK    5  A    between atoms: C_10  and  C_11
REMARK    6  A    between atoms: C_21  and  C_22
REMARK                            x       y       z     vdW  Elec       q    Type
REMARK                         _______ _______ _______ _____ _____    ______ ____
ROOT
ATOM      1  C   UNL     1       1.380   3.608  20.410  0.00  0.00    +0.000 C 
ATOM      2  O   UNL     1       1.188   3.210  21.557  0.00  0.00    +0.000 OA
ATOM      3  N   UNL     1       1.642   4.943  20.116  0.00  0.00    +0.000 N 
ATOM      4  C   UNL     1       1.834   5.447  18.756  0.00  0.00    +0.000 C 
ATOM      5  C   UNL     1       2.472   6.830  18.663  0.00  0.00    +0.000 C 
ATOM      6  C   UNL     1       1.740   7.814  19.539  0.00  0.00    +0.000 A 
ATOM      7  C   UNL     1       1.276   7.322  20.782  0.00  0.00    +0.000 A 
ATOM      8  C   UNL     1       0.588   8.174  21.656  0.00  0.00    +0.000 A 
ATOM      9  C   UNL     1       0.352   9.500  21.304  0.00  0.00    +0.000 A 
ATOM     10  C   UNL     1       0.823   9.996  20.089  0.00  0.00    +0.000 A 
ATOM     11  C   UNL     1       1.523   9.166  19.196  0.00  0.00    +0.000 A 
ATOM     12  C   UNL     1       1.604   5.909  21.212  0.00  0.00    +0.000 C 
ENDROOT
BRANCH  11  13
ATOM     13  C   UNL     1       2.075   9.760  17.938  0.00  0.00    +0.000 C 
ATOM     14  N   UNL     1       2.084  11.126  17.831  0.00  0.00    +0.000 N 
ATOM     15  O   UNL     1       2.510   9.076  17.022  0.00  0.00    +0.000 OA
ATOM     16  H   UNL     1       1.640  11.747  18.491  0.00  0.00    +0.000 HD
ATOM     17  H   UNL     1       2.412  11.513  16.958  0.00  0.00    +0.000 HD
ENDBRANCH  11  13
BRANCH   1  18
ATOM     18  C   UNL     1       1.392   2.642  19.241  0.00  0.00    +0.000 C 
BRANCH  18  19
ATOM     19  C   UNL     1       2.691   1.846  19.161  0.00  0.00    +0.000 C 
BRANCH  19  23
ATOM     20  C   UNL     1       5.173   3.702  17.402  0.00  0.00    +0.000 A 
ATOM     21  N   UNL     1       5.600   3.911  18.660  0.00  0.00    +0.000 NA
ATOM     22  O   UNL     1       4.659   3.246  19.446  0.00  0.00    +0.000 OA
ATOM     23  C   UNL     1       3.754   2.701  18.586  0.00  0.00    +0.000 A 
ATOM     24  N   UNL     1       4.018   2.952  17.326  0.00  0.00    +0.000 NA
BRANCH  20  28
ATOM     25  C   UNL     1       5.971   3.353  12.472  0.00  0.00    +0.000 C 
ATOM     26  C   UNL     1       6.258   3.987  13.798  0.00  0.00    +0.000 A 
ATOM     27  C   UNL     1       5.591   3.575  14.960  0.00  0.00    +0.000 A 
ATOM     28  C   UNL     1       5.865   4.170  16.206  0.00  0.00    +0.000 A 
ATOM     29  C   UNL     1       6.820   5.196  16.271  0.00  0.00    +0.000 A 
ATOM     30  C   UNL     1       7.492   5.609  15.118  0.00  0.00    +0.000 A 
ATOM     31  C   UNL     1       7.210   5.004  13.898  0.00  0.00    +0.000 A 
ATOM     32  F   UNL     1       7.869   5.409  12.804  0.00  0.00    +0.000 F 
ENDBRANCH  20  28
ENDBRANCH  19  23
ENDBRANCH  18  19
ENDBRANCH   1  18
TORSDOF 5
ENDMDL
MODEL 4
REMARK VINA RESULT:      -8.5      7.837     11.426
REMARK  Name = 
REMARK  6 active torsions:
REMARK  status: ('A' for Active; 'I' for Inactive)
REMARK    1  A    between atoms: C_1  and  C_2
REMARK    2  A    between atoms: C_4  and  C_5
REMARK    3  A    between atoms: C_8  and  C_9
REMARK    4  A    between atoms: C_9  and  C_10
REMARK    5  A    between atoms: C_10  and  C_11
REMARK    6  A    between atoms: C_21  and  C_22
REMARK                            x       y       z     vdW  Elec       q    Type
REMARK                         _______ _______ _______ _____ _____    ______ ____
ROOT
ATOM      1  C   UNL     1       8.333   8.752  18.436  0.00  0.00    +0.000 C 
ATOM      2  O   UNL     1       8.895   7.907  19.130  0.00  0.00    +0.000 OA
ATOM      3  N   UNL     1       8.688  10.097  18.460  0.00  0.00    +0.000 N 
ATOM      4  C   UNL     1       8.008  11.126  17.674  0.00  0.00    +0.000 C 
ATOM      5  C   UNL     1       8.764  12.445  17.543  0.00  0.00    +0.000 C 
ATOM      6  C   UNL     1       9.192  12.950  18.897  0.00  0.00    +0.000 A 
ATOM      7  C   UNL     1       9.618  11.971  19.825  0.00  0.00    +0.000 A 
ATOM      8  C   UNL     1      10.034  12.358  21.106  0.00  0.00    +0.000 A 
ATOM      9  C   UNL     1      10.024  13.701  21.472  0.00  0.00    +0.000 A 
ATOM     10  C   UNL     1       9.624  14.673  20.555  0.00  0.00    +0.000 A 
ATOM     11  C   UNL     1       9.208  14.314  19.261  0.00  0.00    +0.000 A 
ATOM     12  C   UNL     1       9.716  10.519  19.409  0.00  0.00    +0.000 C 
ENDROOT
BRANCH  11  13
ATOM     13  C   UNL     1       8.859  15.395  18.287  0.00  0.00    +0.000 C 
ATOM     14  N   UNL     1       7.536  15.727  18.153  0.00  0.00    +0.000 N 
ATOM     15  O   UNL     1       9.703  15.979  17.621  0.00  0.00    +0.000 OA
ATOM     16  H   UNL     1       6.779  15.213  18.580  0.00  0.00    +0.000 HD
ATOM     17  H   UNL     1       7.309  16.422  17.457  0.00  0.00    +0.000 HD
ENDBRANCH  11  13
BRANCH   1  18
ATOM     18  C   UNL     1       7.237   8.358  17.464  0.00  0.00    +0.000 C 
BRANCH  18  19
ATOM     19  C   UNL     1       7.481   6.988  16.840  0.00  0.00    +0.000 C 
BRANCH  19  23
ATOM     20  C   UNL     1       5.120   4.807  18.379  0.00  0.00    +0.000 A 
ATOM     21  N   UNL     1       6.230   4.415  19.030  0.00  0.00    +0.000 NA
ATOM     22  O   UNL     1       7.240   5.195  18.466  0.00  0.00    +0.000 OA
ATOM     23  C   UNL     1       6.641   5.981  17.528  0.00  0.00    +0.000 A 
ATOM     24  N   UNL     1       5.348   5.781  17.430  0.00  0.00    +0.000 NA
BRANCH  20  28
ATOM     25  C   UNL     1       1.827   2.862  21.610  0.00  0.00    +0.000 C 
ATOM     26  C   UNL     1       2.178   3.342  20.235  0.00  0.00    +0.000 A 
ATOM     27  C   UNL     1       3.450   3.855  19.947  0.00  0.00    +0.000 A 
ATOM     28  C   UNL     1       3.779   4.302  18.654  0.00  0.00    +0.000 A 
ATOM     29  C   UNL     1       2.805   4.234  17.646  0.00  0.00    +0.000 A 
ATOM     30  C   UNL     1       1.536   3.721  17.924  0.00  0.00    +0.000 A 
ATOM     31  C   UNL     1       1.235   3.279  19.208  0.00  0.00    +0.000 A 
ATOM     32  F   UNL     1       0.013   2.783  19.454  0.00  0.00    +0.000 F 
ENDBRANCH  20  28
ENDBRANCH  19  23
ENDBRANCH  18  19
ENDBRANCH   1  18
TORSDOF 5
ENDMDL
MODEL 5
REMARK VINA RESULT:      -8.4      1.717      2.241
REMARK  Name = 
REMARK  6 active torsions:
REMARK  status: ('A' for Active; 'I' for Inactive)
REMARK    1  A    between atoms: C_1  and  C_2
REMARK    2  A    between atoms: C_4  and  C_5
REMARK    3  A    between atoms: C_8  and  C_9
REMARK    4  A    between atoms: C_9  and  C_10
REMARK    5  A    between atoms: C_10  and  C_11
REMARK    6  A    between atoms: C_21  and  C_22
REMARK                            x       y       z     vdW  Elec       q    Type
REMARK                         _______ _______ _______ _____ _____    ______ ____
ROOT
ATOM      1  C   UNL     1       2.046   8.453  18.328  0.00  0.00    +0.000 C 
ATOM      2  O   UNL     1       2.412   8.787  17.203  0.00  0.00    +0.000 OA
ATOM      3  N   UNL     1       2.296   7.188  18.851  0.00  0.00    +0.000 N 
ATOM      4  C   UNL     1       1.836   6.754  20.169  0.00  0.00    +0.000 C 
ATOM      5  C   UNL     1       2.516   5.501  20.712  0.00  0.00    +0.000 C 
ATOM      6  C   UNL     1       2.470   4.388  19.696  0.00  0.00    +0.000 A 
ATOM      7  C   UNL     1       2.642   4.767  18.344  0.00  0.00    +0.000 A 
ATOM      8  C   UNL     1       2.615   3.792  17.337  0.00  0.00    +0.000 A 
ATOM      9  C   UNL     1       2.412   2.454  17.661  0.00  0.00    +0.000 A 
ATOM     10  C   UNL     1       2.261   2.071  18.994  0.00  0.00    +0.000 A 
ATOM     11  C   UNL     1       2.292   3.027  20.025  0.00  0.00    +0.000 A 
ATOM     12  C   UNL     1       2.950   6.205  17.989  0.00  0.00    +0.000 C 
ENDROOT
BRANCH  11  13
ATOM     13  C   UNL     1       2.201   2.563  21.444  0.00  0.00    +0.000 C 
ATOM     14  N   UNL     1       0.969   2.593  22.045  0.00  0.00    +0.000 N 
ATOM     15  O   UNL     1       3.173   2.165  22.071  0.00  0.00    +0.000 OA
ATOM     16  H   UNL     1       0.150   3.014  21.632  0.00  0.00    +0.000 HD
ATOM     17  H   UNL     1       0.930   2.325  23.018  0.00  0.00    +0.000 HD
ENDBRANCH  11  13
BRANCH   1  18
ATOM     18  C   UNL     1       1.333   9.433  19.238  0.00  0.00    +0.000 C 
BRANCH  18  19
ATOM     19  C   UNL     1       1.272  10.837  18.644  0.00  0.00    +0.000 C 
BRANCH  19  23
ATOM     20  C   UNL     1      -1.197  12.469  20.630  0.00  0.00    +0.000 A 
ATOM     21  N   UNL     1      -0.684  13.541  20.001  0.00  0.00    +0.000 NA
ATOM     22  O   UNL     1       0.335  13.008  19.211  0.00  0.00    +0.000 OA
ATOM     23  C   UNL     1       0.340  11.666  19.442  0.00  0.00    +0.000 A 
ATOM     24  N   UNL     1      -0.572  11.283  20.303  0.00  0.00    +0.000 NA
BRANCH  20  28
ATOM     25  C   UNL     1      -6.090  13.204  21.389  0.00  0.00    +0.000 C 
ATOM     26  C   UNL     1      -4.723  12.882  21.910  0.00  0.00    +0.000 A 
ATOM     27  C   UNL     1      -3.617  12.810  21.052  0.00  0.00    +0.000 A 
ATOM     28  C   UNL     1      -2.333  12.512  21.544  0.00  0.00    +0.000 A 
ATOM     29  C   UNL     1      -2.172  12.278  22.918  0.00  0.00    +0.000 A 
ATOM     30  C   UNL     1      -3.269  12.353  23.781  0.00  0.00    +0.000 A 
ATOM     31  C   UNL     1      -4.528  12.655  23.273  0.00  0.00    +0.000 A 
ATOM     32  F   UNL     1      -5.567  12.729  24.117  0.00  0.00    +0.000 F 
ENDBRANCH  20  28
ENDBRANCH  19  23
ENDBRANCH  18  19
ENDBRANCH   1  18
TORSDOF 5
ENDMDL
MODEL 6
REMARK VINA RESULT:      -8.4      4.147      6.891
REMARK  Name = 
REMARK  6 active torsions:
REMARK  status: ('A' for Active; 'I' for Inactive)
REMARK    1  A    between atoms: C_1  and  C_2
REMARK    2  A    between atoms: C_4  and  C_5
REMARK    3  A    between atoms: C_8  and  C_9
REMARK    4  A    between atoms: C_9  and  C_10
REMARK    5  A    between atoms: C_10  and  C_11
REMARK    6  A    between atoms: C_21  and  C_22
REMARK                            x       y       z     vdW  Elec       q    Type
REMARK                         _______ _______ _______ _____ _____    ______ ____
ROOT
ATOM      1  C   UNL     1       2.708   2.323  18.171  0.00  0.00    +0.000 C 
ATOM      2  O   UNL     1       2.022   1.784  17.304  0.00  0.00    +0.000 OA
ATOM      3  N   UNL     1       3.604   3.349  17.884  0.00  0.00    +0.000 N 
ATOM      4  C   UNL     1       4.460   3.978  18.890  0.00  0.00    +0.000 C 
ATOM      5  C   UNL     1       5.081   5.307  18.472  0.00  0.00    +0.000 C 
ATOM      6  C   UNL     1       5.770   5.175  17.138  0.00  0.00    +0.000 A 
ATOM      7  C   UNL     1       5.132   4.352  16.181  0.00  0.00    +0.000 A 
ATOM      8  C   UNL     1       5.705   4.178  14.915  0.00  0.00    +0.000 A 
ATOM      9  C   UNL     1       6.906   4.808  14.596  0.00  0.00    +0.000 A 
ATOM     10  C   UNL     1       7.531   5.636  15.527  0.00  0.00    +0.000 A 
ATOM     11  C   UNL     1       6.973   5.834  16.803  0.00  0.00    +0.000 A 
ATOM     12  C   UNL     1       3.784   3.734  16.486  0.00  0.00    +0.000 C 
ENDROOT
BRANCH  11  13
ATOM     13  C   UNL     1       7.638   6.790  17.743  0.00  0.00    +0.000 C 
ATOM     14  N   UNL     1       7.684   8.111  17.378  0.00  0.00    +0.000 N 
ATOM     15  O   UNL     1       8.131   6.435  18.804  0.00  0.00    +0.000 OA
ATOM     16  H   UNL     1       7.404   8.456  16.472  0.00  0.00    +0.000 HD
ATOM     17  H   UNL     1       8.179   8.737  17.996  0.00  0.00    +0.000 HD
ENDBRANCH  11  13
BRANCH   1  18
ATOM     18  C   UNL     1       2.576   1.926  19.628  0.00  0.00    +0.000 C 
BRANCH  18  19
ATOM     19  C   UNL     1       1.345   2.539  20.286  0.00  0.00    +0.000 C 
BRANCH  19  23
ATOM     20  C   UNL     1       1.795   6.074  20.339  0.00  0.00    +0.000 A 
ATOM     21  N   UNL     1       2.450   5.758  21.470  0.00  0.00    +0.000 NA
ATOM     22  O   UNL     1       2.300   4.374  21.566  0.00  0.00    +0.000 OA
ATOM     23  C   UNL     1       1.567   3.990  20.484  0.00  0.00    +0.000 A 
ATOM     24  N   UNL     1       1.229   4.989  19.704  0.00  0.00    +0.000 NA
BRANCH  20  28
ATOM     25  C   UNL     1       0.429  10.865  20.840  0.00  0.00    +0.000 C 
ATOM     26  C   UNL     1       1.030   9.757  20.029  0.00  0.00    +0.000 A 
ATOM     27  C   UNL     1       1.148   8.460  20.547  0.00  0.00    +0.000 A 
ATOM     28  C   UNL     1       1.709   7.420  19.783  0.00  0.00    +0.000 A 
ATOM     29  C   UNL     1       2.160   7.702  18.484  0.00  0.00    +0.000 A 
ATOM     30  C   UNL     1       2.042   8.992  17.959  0.00  0.00    +0.000 A 
ATOM     31  C   UNL     1       1.478  10.003  18.731  0.00  0.00    +0.000 A 
ATOM     32  F   UNL     1       1.367  11.233  18.209  0.00  0.00    +0.000 F 
ENDBRANCH  20  28
ENDBRANCH  19  23
ENDBRANCH  18  19
ENDBRANCH   1  18
TORSDOF 5
ENDMDL
MODEL 7
REMARK VINA RESULT:      -8.3      3.847     10.444
REMARK  Name = 
REMARK  6 active torsions:
REMARK  status: ('A' for Active; 'I' for Inactive)
REMARK    1  A    between atoms: C_1  and  C_2
REMARK    2  A    between atoms: C_4  and  C_5
REMARK    3  A    between atoms: C_8  and  C_9
REMARK    4  A    between atoms: C_9  and  C_10
REMARK    5  A    between atoms: C_10  and  C_11
REMARK    6  A    between atoms: C_21  and  C_22
REMARK                            x       y       z     vdW  Elec       q    Type
REMARK                         _______ _______ _______ _____ _____    ______ ____
ROOT
ATOM      1  C   UNL     1       0.907  12.139  21.127  0.00  0.00    +0.000 C 
ATOM      2  O   UNL     1       1.914  12.835  21.015  0.00  0.00    +0.000 OA
ATOM      3  N   UNL     1      -0.266  12.609  21.710  0.00  0.00    +0.000 N 
ATOM      4  C   UNL     1      -1.463  11.788  21.890  0.00  0.00    +0.000 C 
ATOM      5  C   UNL     1      -2.741  12.564  22.191  0.00  0.00    +0.000 C 
ATOM      6  C   UNL     1      -2.525  13.520  23.336  0.00  0.00    +0.000 A 
ATOM      7  C   UNL     1      -1.268  14.165  23.386  0.00  0.00    +0.000 A 
ATOM      8  C   UNL     1      -0.988  15.070  24.418  0.00  0.00    +0.000 A 
ATOM      9  C   UNL     1      -1.941  15.333  25.400  0.00  0.00    +0.000 A 
ATOM     10  C   UNL     1      -3.189  14.714  25.346  0.00  0.00    +0.000 A 
ATOM     11  C   UNL     1      -3.500  13.807  24.317  0.00  0.00    +0.000 A 
ATOM     12  C   UNL     1      -0.260  13.955  22.277  0.00  0.00    +0.000 C 
ENDROOT
BRANCH  11  13
ATOM     13  C   UNL     1      -4.877  13.226  24.256  0.00  0.00    +0.000 C 
ATOM     14  N   UNL     1      -5.093  12.036  24.902  0.00  0.00    +0.000 N 
ATOM     15  O   UNL     1      -5.796  13.769  23.660  0.00  0.00    +0.000 OA
ATOM     16  H   UNL     1      -4.361  11.475  25.313  0.00  0.00    +0.000 HD
ATOM     17  H   UNL     1      -6.013  11.629  24.812  0.00  0.00    +0.000 HD
ENDBRANCH  11  13
BRANCH   1  18
ATOM     18  C   UNL     1       0.873  10.724  20.581  0.00  0.00    +0.000 C 
BRANCH  18  19
ATOM     19  C   UNL     1       0.934  10.689  19.058  0.00  0.00    +0.000 C 
BRANCH  19  23
ATOM     20  C   UNL     1       2.422   7.512  18.429  0.00  0.00    +0.000 A 
ATOM     21  N   UNL     1       2.754   8.135  17.284  0.00  0.00    +0.000 NA
ATOM     22  O   UNL     1       2.177   9.399  17.413  0.00  0.00    +0.000 OA
ATOM     23  C   UNL     1       1.551   9.415  18.623  0.00  0.00    +0.000 A 
ATOM     24  N   UNL     1       1.665   8.287  19.282  0.00  0.00    +0.000 NA
BRANCH  20  28
ATOM     25  C   UNL     1       2.168   3.605  21.550  0.00  0.00    +0.000 C 
ATOM     26  C   UNL     1       2.721   4.260  20.320  0.00  0.00    +0.000 A 
ATOM     27  C   UNL     1       2.318   5.547  19.939  0.00  0.00    +0.000 A 
ATOM     28  C   UNL     1       2.841   6.161  18.786  0.00  0.00    +0.000 A 
ATOM     29  C   UNL     1       3.777   5.460  18.011  0.00  0.00    +0.000 A 
ATOM     30  C   UNL     1       4.187   4.178  18.387  0.00  0.00    +0.000 A 
ATOM     31  C   UNL     1       3.661   3.593  19.534  0.00  0.00    +0.000 A 
ATOM     32  F   UNL     1       4.071   2.365  19.882  0.00  0.00    +0.000 F 
ENDBRANCH  20  28
ENDBRANCH  19  23
ENDBRANCH  18  19
ENDBRANCH   1  18
TORSDOF 5
ENDMDL
MODEL 8
REMARK VINA RESULT:      -8.3      1.759      2.127
REMARK  Name = 
REMARK  6 active torsions:
REMARK  status: ('A' for Active; 'I' for Inactive)
REMARK    1  A    between atoms: C_1  and  C_2
REMARK    2  A    between atoms: C_4  and  C_5
REMARK    3  A    between atoms: C_8  and  C_9
REMARK    4  A    between atoms: C_9  and  C_10
REMARK    5  A    between atoms: C_10  and  C_11
REMARK    6  A    between atoms: C_21  and  C_22
REMARK                            x       y       z     vdW  Elec       q    Type
REMARK                         _______ _______ _______ _____ _____    ______ ____
ROOT
ATOM      1  C   UNL     1       1.815   8.654  18.567  0.00  0.00    +0.000 C 
ATOM      2  O   UNL     1       2.144   9.044  17.448  0.00  0.00    +0.000 OA
ATOM      3  N   UNL     1       2.111   7.375  19.030  0.00  0.00    +0.000 N 
ATOM      4  C   UNL     1       1.697   6.876  20.341  0.00  0.00    +0.000 C 
ATOM      5  C   UNL     1       2.421   5.619  20.813  0.00  0.00    +0.000 C 
ATOM      6  C   UNL     1       2.376   4.549  19.753  0.00  0.00    +0.000 A 
ATOM      7  C   UNL     1       2.503   4.987  18.414  0.00  0.00    +0.000 A 
ATOM      8  C   UNL     1       2.473   4.054  17.369  0.00  0.00    +0.000 A 
ATOM      9  C   UNL     1       2.312   2.698  17.642  0.00  0.00    +0.000 A 
ATOM     10  C   UNL     1       2.206   2.258  18.961  0.00  0.00    +0.000 A 
ATOM     11  C   UNL     1       2.240   3.171  20.029  0.00  0.00    +0.000 A 
ATOM     12  C   UNL     1       2.766   6.446  18.112  0.00  0.00    +0.000 C 
ENDROOT
BRANCH  11  13
ATOM     13  C   UNL     1       2.198   2.647  21.430  0.00  0.00    +0.000 C 
ATOM     14  N   UNL     1       0.985   2.635  22.068  0.00  0.00    +0.000 N 
ATOM     15  O   UNL     1       3.194   2.237  22.011  0.00  0.00    +0.000 OA
ATOM     16  H   UNL     1       0.148   3.061  21.698  0.00  0.00    +0.000 HD
ATOM     17  H   UNL     1       0.979   2.326  23.030  0.00  0.00    +0.000 HD
ENDBRANCH  11  13
BRANCH   1  18
ATOM     18  C   UNL     1       1.103   9.578  19.535  0.00  0.00    +0.000 C 
BRANCH  18  19
ATOM     19  C   UNL     1       1.004  11.005  19.008  0.00  0.00    +0.000 C 
BRANCH  19  23
ATOM     20  C   UNL     1      -2.142  12.296  20.074  0.00  0.00    +0.000 A 
ATOM     21  N   UNL     1      -2.514  11.777  18.890  0.00  0.00    +0.000 NA
ATOM     22  O   UNL     1      -1.327  11.269  18.362  0.00  0.00    +0.000 OA
ATOM     23  C   UNL     1      -0.353  11.533  19.278  0.00  0.00    +0.000 A 
ATOM     24  N   UNL     1      -0.796  12.163  20.340  0.00  0.00    +0.000 NA
BRANCH  20  28
ATOM     25  C   UNL     1      -4.146  12.409  24.661  0.00  0.00    +0.000 C 
ATOM     26  C   UNL     1      -4.040  12.955  23.269  0.00  0.00    +0.000 A 
ATOM     27  C   UNL     1      -3.152  12.400  22.337  0.00  0.00    +0.000 A 
ATOM     28  C   UNL     1      -3.057  12.911  21.030  0.00  0.00    +0.000 A 
ATOM     29  C   UNL     1      -3.865  14.000  20.668  0.00  0.00    +0.000 A 
ATOM     30  C   UNL     1      -4.756  14.556  21.591  0.00  0.00    +0.000 A 
ATOM     31  C   UNL     1      -4.837  14.030  22.875  0.00  0.00    +0.000 A 
ATOM     32  F   UNL     1      -5.702  14.572  23.745  0.00  0.00    +0.000 F 
ENDBRANCH  20  28
ENDBRANCH  19  23
ENDBRANCH  18  19
ENDBRANCH   1  18
TORSDOF 5
ENDMDL
MODEL 9
REMARK VINA RESULT:      -8.3      1.996      2.633
REMARK  Name = 
REMARK  6 active torsions:
REMARK  status: ('A' for Active; 'I' for Inactive)
REMARK    1  A    between atoms: C_1  and  C_2
REMARK    2  A    between atoms: C_4  and  C_5
REMARK    3  A    between atoms: C_8  and  C_9
REMARK    4  A    between atoms: C_9  and  C_10
REMARK    5  A    between atoms: C_10  and  C_11
REMARK    6  A    between atoms: C_21  and  C_22
REMARK                            x       y       z     vdW  Elec       q    Type
REMARK                         _______ _______ _______ _____ _____    ______ ____
ROOT
ATOM      1  C   UNL     1       1.990   9.096  18.104  0.00  0.00    +0.000 C 
ATOM      2  O   UNL     1       2.400  10.042  17.434  0.00  0.00    +0.000 OA
ATOM      3  N   UNL     1       2.700   7.906  18.231  0.00  0.00    +0.000 N 
ATOM      4  C   UNL     1       2.214   6.753  18.989  0.00  0.00    +0.000 C 
ATOM      5  C   UNL     1       3.272   5.706  19.324  0.00  0.00    +0.000 C 
ATOM      6  C   UNL     1       4.027   5.299  18.085  0.00  0.00    +0.000 A 
ATOM      7  C   UNL     1       4.308   6.327  17.155  0.00  0.00    +0.000 A 
ATOM      8  C   UNL     1       5.009   6.032  15.978  0.00  0.00    +0.000 A 
ATOM      9  C   UNL     1       5.425   4.729  15.717  0.00  0.00    +0.000 A 
ATOM     10  C   UNL     1       5.168   3.714  16.638  0.00  0.00    +0.000 A 
ATOM     11  C   UNL     1       4.474   3.983  17.831  0.00  0.00    +0.000 A 
ATOM     12  C   UNL     1       3.939   7.760  17.470  0.00  0.00    +0.000 C 
ENDROOT
BRANCH  11  13
ATOM     13  C   UNL     1       4.287   2.880  18.824  0.00  0.00    +0.000 C 
ATOM     14  N   UNL     1       3.299   1.963  18.577  0.00  0.00    +0.000 N 
ATOM     15  O   UNL     1       4.976   2.775  19.829  0.00  0.00    +0.000 OA
ATOM     16  H   UNL     1       2.620   2.050  17.835  0.00  0.00    +0.000 HD
ATOM     17  H   UNL     1       3.150   1.253  19.279  0.00  0.00    +0.000 HD
ENDBRANCH  11  13
BRANCH   1  18
ATOM     18  C   UNL     1       0.691   9.196  18.879  0.00  0.00    +0.000 C 
BRANCH  18  19
ATOM     19  C   UNL     1      -0.017  10.528  18.654  0.00  0.00    +0.000 C 
BRANCH  19  23
ATOM     20  C   UNL     1      -0.452  12.447  21.625  0.00  0.00    +0.000 A 
ATOM     21  N   UNL     1       0.881  12.559  21.491  0.00  0.00    +0.000 NA
ATOM     22  O   UNL     1       1.167  11.798  20.357  0.00  0.00    +0.000 OA
ATOM     23  C   UNL     1      -0.022  11.299  19.918  0.00  0.00    +0.000 A 
ATOM     24  N   UNL     1      -1.043  11.661  20.658  0.00  0.00    +0.000 NA
BRANCH  20  28
ATOM     25  C   UNL     1      -4.465  12.515  24.617  0.00  0.00    +0.000 C 
ATOM     26  C   UNL     1      -3.206  13.148  24.109  0.00  0.00    +0.000 A 
ATOM     27  C   UNL     1      -2.418  12.518  23.136  0.00  0.00    +0.000 A 
ATOM     28  C   UNL     1      -1.238  13.115  22.657  0.00  0.00    +0.000 A 
ATOM     29  C   UNL     1      -0.851  14.361  23.175  0.00  0.00    +0.000 A 
ATOM     30  C   UNL     1      -1.633  14.997  24.142  0.00  0.00    +0.000 A 
ATOM     31  C   UNL     1      -2.799  14.391  24.597  0.00  0.00    +0.000 A 
ATOM     32  F   UNL     1      -3.540  15.020  25.520  0.00  0.00    +0.000 F 
ENDBRANCH  20  28
ENDBRANCH  19  23
ENDBRANCH  18  19
ENDBRANCH   1  18
TORSDOF 5
ENDMDL
