MODEL 1
REMARK VINA RESULT:      -7.9      0.000      0.000
REMARK  Name = 
REMARK  6 active torsions:
REMARK  status: ('A' for Active; 'I' for Inactive)
REMARK    1  A    between atoms: C_1  and  C_2
REMARK    2  A    between atoms: C_2  and  N_3
REMARK    3  A    between atoms: C_4  and  S_5
REMARK    4  A    between atoms: S_5  and  C_6
REMARK    5  A    between atoms: C_14  and  C_15
REMARK    6  A    between atoms: C_17  and  C_18
REMARK                            x       y       z     vdW  Elec       q    Type
REMARK                         _______ _______ _______ _____ _____    ______ ____
ROOT
ATOM      1  C   UNL     1       0.444  10.952  18.679  0.00  0.00    +0.000 A 
ATOM      2  C   UNL     1      -0.940  10.873  18.868  0.00  0.00    +0.000 A 
ATOM      3  C   UNL     1      -1.716  12.012  19.039  0.00  0.00    +0.000 A 
ATOM      4  N   UNL     1      -1.139  13.228  19.127  0.00  0.00    +0.000 NA
ATOM      5  C   UNL     1       0.193  13.335  19.023  0.00  0.00    +0.000 A 
ATOM      6  C   UNL     1       0.745  14.595  19.213  0.00  0.00    +0.000 A 
ATOM      7  C   UNL     1       2.115  14.828  19.100  0.00  0.00    +0.000 A 
ATOM      8  C   UNL     1       2.956  13.784  18.753  0.00  0.00    +0.000 A 
ATOM      9  C   UNL     1       2.428  12.506  18.572  0.00  0.00    +0.000 A 
ATOM     10  C   UNL     1       1.045  12.239  18.747  0.00  0.00    +0.000 A 
ENDROOT
BRANCH   3  11
ATOM     11  C   UNL     1      -3.196  11.982  19.112  0.00  0.00    +0.000 A 
ATOM     12  C   UNL     1      -3.916  12.612  20.146  0.00  0.00    +0.000 A 
ATOM     13  C   UNL     1      -5.312  12.546  20.213  0.00  0.00    +0.000 A 
ATOM     14  C   UNL     1      -6.028  11.854  19.242  0.00  0.00    +0.000 A 
ATOM     15  C   UNL     1      -5.348  11.225  18.205  0.00  0.00    +0.000 A 
ATOM     16  C   UNL     1      -3.950  11.289  18.144  0.00  0.00    +0.000 A 
ENDBRANCH   3  11
BRANCH   1  21
ATOM     17  N   UNL     1       1.412   8.668  19.437  0.00  0.00    +0.000 N 
ATOM     18  C   UNL     1       2.257   7.769  18.822  0.00  0.00    +0.000 A 
ATOM     19  N   UNL     1       2.569   8.197  17.627  0.00  0.00    +0.000 NA
ATOM     20  N   UNL     1       1.950   9.405  17.449  0.00  0.00    +0.000 NA
ATOM     21  C   UNL     1       1.238   9.707  18.526  0.00  0.00    +0.000 A 
BRANCH  17  23
ATOM     22  C   UNL     1       1.368   9.205  21.886  0.00  0.00    +0.000 C 
ATOM     23  C   UNL     1       0.738   8.467  20.708  0.00  0.00    +0.000 C 
ENDBRANCH  17  23
BRANCH  18  24
ATOM     24  S   UNL     1       2.843   6.317  19.556  0.00  0.00    +0.000 S 
BRANCH  24  25
ATOM     25  C   UNL     1       2.124   4.993  18.517  0.00  0.00    +0.000 C 
ATOM     26  C   UNL     1       3.140   4.217  17.704  0.00  0.00    +0.000 C 
ATOM     27  C   UNL     1       2.737   2.770  17.855  0.00  0.00    +0.000 C 
ATOM     28  O   UNL     1       1.914   2.684  19.011  0.00  0.00    +0.000 OA
ATOM     29  C   UNL     1       1.526   3.930  19.412  0.00  0.00    +0.000 C 
ATOM     30  O   UNL     1       0.763   4.117  20.348  0.00  0.00    +0.000 OA
ENDBRANCH  24  25
ENDBRANCH  18  24
ENDBRANCH   1  21
TORSDOF 5
ENDMDL
MODEL 2
REMARK VINA RESULT:      -7.8      1.549      4.511
REMARK  Name = 
REMARK  6 active torsions:
REMARK  status: ('A' for Active; 'I' for Inactive)
REMARK    1  A    between atoms: C_1  and  C_2
REMARK    2  A    between atoms: C_2  and  N_3
REMARK    3  A    between atoms: C_4  and  S_5
REMARK    4  A    between atoms: S_5  and  C_6
REMARK    5  A    between atoms: C_14  and  C_15
REMARK    6  A    between atoms: C_17  and  C_18
REMARK                            x       y       z     vdW  Elec       q    Type
REMARK                         _______ _______ _______ _____ _____    ______ ____
ROOT
ATOM      1  C   UNL     1       0.988  10.430  18.633  0.00  0.00    +0.000 A 
ATOM      2  C   UNL     1       1.811  11.556  18.752  0.00  0.00    +0.000 A 
ATOM      3  C   UNL     1       1.288  12.842  18.746  0.00  0.00    +0.000 A 
ATOM      4  N   UNL     1      -0.027  13.047  18.523  0.00  0.00    +0.000 NA
ATOM      5  C   UNL     1      -0.835  11.995  18.332  0.00  0.00    +0.000 A 
ATOM      6  C   UNL     1      -2.160  12.263  18.015  0.00  0.00    +0.000 A 
ATOM      7  C   UNL     1      -3.096  11.247  17.824  0.00  0.00    +0.000 A 
ATOM      8  C   UNL     1      -2.709   9.928  17.986  0.00  0.00    +0.000 A 
ATOM      9  C   UNL     1      -1.380   9.632  18.289  0.00  0.00    +0.000 A 
ATOM     10  C   UNL     1      -0.402  10.651  18.424  0.00  0.00    +0.000 A 
ENDROOT
BRANCH   3  11
ATOM     11  C   UNL     1       2.106  14.052  19.000  0.00  0.00    +0.000 A 
ATOM     12  C   UNL     1       1.880  14.901  20.100  0.00  0.00    +0.000 A 
ATOM     13  C   UNL     1       2.645  16.056  20.304  0.00  0.00    +0.000 A 
ATOM     14  C   UNL     1       3.663  16.387  19.417  0.00  0.00    +0.000 A 
ATOM     15  C   UNL     1       3.915  15.567  18.322  0.00  0.00    +0.000 A 
ATOM     16  C   UNL     1       3.144  14.416  18.119  0.00  0.00    +0.000 A 
ENDBRANCH   3  11
BRANCH   1  21
ATOM     17  N   UNL     1       1.818   8.211  19.688  0.00  0.00    +0.000 N 
ATOM     18  C   UNL     1       2.423   7.096  19.147  0.00  0.00    +0.000 A 
ATOM     19  N   UNL     1       2.545   7.240  17.854  0.00  0.00    +0.000 NA
ATOM     20  N   UNL     1       2.045   8.472  17.529  0.00  0.00    +0.000 NA
ATOM     21  C   UNL     1       1.592   9.074  18.619  0.00  0.00    +0.000 A 
BRANCH  17  23
ATOM     22  C   UNL     1      -0.115   8.159  21.285  0.00  0.00    +0.000 C 
ATOM     23  C   UNL     1       1.383   8.356  21.067  0.00  0.00    +0.000 C 
ENDBRANCH  17  23
BRANCH  18  24
ATOM     24  S   UNL     1       2.970   5.737  20.066  0.00  0.00    +0.000 S 
BRANCH  24  25
ATOM     25  C   UNL     1       1.561   4.572  19.986  0.00  0.00    +0.000 C 
ATOM     26  C   UNL     1       1.378   3.906  18.638  0.00  0.00    +0.000 C 
ATOM     27  C   UNL     1       1.106   2.455  18.953  0.00  0.00    +0.000 C 
ATOM     28  O   UNL     1       1.578   2.219  20.274  0.00  0.00    +0.000 OA
ATOM     29  C   UNL     1       1.832   3.402  20.907  0.00  0.00    +0.000 C 
ATOM     30  O   UNL     1       2.190   3.466  22.073  0.00  0.00    +0.000 OA
ENDBRANCH  24  25
ENDBRANCH  18  24
ENDBRANCH   1  21
TORSDOF 5
ENDMDL
MODEL 3
REMARK VINA RESULT:      -7.8      0.852      1.227
REMARK  Name = 
REMARK  6 active torsions:
REMARK  status: ('A' for Active; 'I' for Inactive)
REMARK    1  A    between atoms: C_1  and  C_2
REMARK    2  A    between atoms: C_2  and  N_3
REMARK    3  A    between atoms: C_4  and  S_5
REMARK    4  A    between atoms: S_5  and  C_6
REMARK    5  A    between atoms: C_14  and  C_15
REMARK    6  A    between atoms: C_17  and  C_18
REMARK                            x       y       z     vdW  Elec       q    Type
REMARK                         _______ _______ _______ _____ _____    ______ ____
ROOT
ATOM      1  C   UNL     1       0.210  10.893  19.047  0.00  0.00    +0.000 A 
ATOM      2  C   UNL     1      -1.164  10.806  18.797  0.00  0.00    +0.000 A 
ATOM      3  C   UNL     1      -2.021  11.860  19.083  0.00  0.00    +0.000 A 
ATOM      4  N   UNL     1      -1.566  12.966  19.706  0.00  0.00    +0.000 NA
ATOM      5  C   UNL     1      -0.268  13.054  20.027  0.00  0.00    +0.000 A 
ATOM      6  C   UNL     1       0.132  14.171  20.749  0.00  0.00    +0.000 A 
ATOM      7  C   UNL     1       1.461  14.382  21.112  0.00  0.00    +0.000 A 
ATOM      8  C   UNL     1       2.426  13.471  20.715  0.00  0.00    +0.000 A 
ATOM      9  C   UNL     1       2.048  12.333  20.003  0.00  0.00    +0.000 A 
ATOM     10  C   UNL     1       0.690  12.072  19.682  0.00  0.00    +0.000 A 
ENDROOT
BRANCH   3  11
ATOM     11  C   UNL     1      -3.458  11.859  18.715  0.00  0.00    +0.000 A 
ATOM     12  C   UNL     1      -3.916  11.423  17.456  0.00  0.00    +0.000 A 
ATOM     13  C   UNL     1      -5.274  11.459  17.118  0.00  0.00    +0.000 A 
ATOM     14  C   UNL     1      -6.211  11.926  18.033  0.00  0.00    +0.000 A 
ATOM     15  C   UNL     1      -5.792  12.359  19.286  0.00  0.00    +0.000 A 
ATOM     16  C   UNL     1      -4.432  12.326  19.619  0.00  0.00    +0.000 A 
ENDBRANCH   3  11
BRANCH   1  21
ATOM     17  N   UNL     1       1.385   8.638  19.557  0.00  0.00    +0.000 N 
ATOM     18  C   UNL     1       2.264   7.864  18.829  0.00  0.00    +0.000 A 
ATOM     19  N   UNL     1       2.482   8.415  17.664  0.00  0.00    +0.000 NA
ATOM     20  N   UNL     1       1.766   9.581  17.622  0.00  0.00    +0.000 NA
ATOM     21  C   UNL     1       1.088   9.733  18.751  0.00  0.00    +0.000 A 
BRANCH  17  23
ATOM     22  C   UNL     1       1.330   9.059  22.029  0.00  0.00    +0.000 C 
ATOM     23  C   UNL     1       0.793   8.276  20.834  0.00  0.00    +0.000 C 
ENDBRANCH  17  23
BRANCH  18  24
ATOM     24  S   UNL     1       2.994   6.406  19.406  0.00  0.00    +0.000 S 
BRANCH  24  25
ATOM     25  C   UNL     1       2.143   5.096  18.453  0.00  0.00    +0.000 C 
ATOM     26  C   UNL     1       3.061   4.255  17.590  0.00  0.00    +0.000 C 
ATOM     27  C   UNL     1       2.604   2.833  17.804  0.00  0.00    +0.000 C 
ATOM     28  O   UNL     1       1.861   2.811  19.017  0.00  0.00    +0.000 OA
ATOM     29  C   UNL     1       1.561   4.082  19.413  0.00  0.00    +0.000 C 
ATOM     30  O   UNL     1       0.876   4.325  20.395  0.00  0.00    +0.000 OA
ENDBRANCH  24  25
ENDBRANCH  18  24
ENDBRANCH   1  21
TORSDOF 5
ENDMDL
MODEL 4
REMARK VINA RESULT:      -7.7      0.815      1.236
REMARK  Name = 
REMARK  6 active torsions:
REMARK  status: ('A' for Active; 'I' for Inactive)
REMARK    1  A    between atoms: C_1  and  C_2
REMARK    2  A    between atoms: C_2  and  N_3
REMARK    3  A    between atoms: C_4  and  S_5
REMARK    4  A    between atoms: S_5  and  C_6
REMARK    5  A    between atoms: C_14  and  C_15
REMARK    6  A    between atoms: C_17  and  C_18
REMARK                            x       y       z     vdW  Elec       q    Type
REMARK                         _______ _______ _______ _____ _____    ______ ____
ROOT
ATOM      1  C   UNL     1       0.429  10.914  18.672  0.00  0.00    +0.000 A 
ATOM      2  C   UNL     1      -0.957  10.835  18.847  0.00  0.00    +0.000 A 
ATOM      3  C   UNL     1      -1.732  11.973  19.024  0.00  0.00    +0.000 A 
ATOM      4  N   UNL     1      -1.155  13.187  19.131  0.00  0.00    +0.000 NA
ATOM      5  C   UNL     1       0.178  13.293  19.041  0.00  0.00    +0.000 A 
ATOM      6  C   UNL     1       0.730  14.551  19.251  0.00  0.00    +0.000 A 
ATOM      7  C   UNL     1       2.101  14.784  19.154  0.00  0.00    +0.000 A 
ATOM      8  C   UNL     1       2.944  13.743  18.803  0.00  0.00    +0.000 A 
ATOM      9  C   UNL     1       2.416  12.467  18.603  0.00  0.00    +0.000 A 
ATOM     10  C   UNL     1       1.031  12.200  18.761  0.00  0.00    +0.000 A 
ENDROOT
BRANCH   3  11
ATOM     11  C   UNL     1      -3.214  11.944  19.082  0.00  0.00    +0.000 A 
ATOM     12  C   UNL     1      -3.996  11.274  18.121  0.00  0.00    +0.000 A 
ATOM     13  C   UNL     1      -5.394  11.286  18.178  0.00  0.00    +0.000 A 
ATOM     14  C   UNL     1      -6.048  11.960  19.203  0.00  0.00    +0.000 A 
ATOM     15  C   UNL     1      -5.305  12.628  20.170  0.00  0.00    +0.000 A 
ATOM     16  C   UNL     1      -3.906  12.619  20.107  0.00  0.00    +0.000 A 
ENDBRANCH   3  11
BRANCH   1  21
ATOM     17  N   UNL     1       1.405   8.631  19.421  0.00  0.00    +0.000 N 
ATOM     18  C   UNL     1       2.247   7.733  18.799  0.00  0.00    +0.000 A 
ATOM     19  N   UNL     1       2.549   8.162  17.602  0.00  0.00    +0.000 NA
ATOM     20  N   UNL     1       1.928   9.370  17.430  0.00  0.00    +0.000 NA
ATOM     21  C   UNL     1       1.223   9.670  18.512  0.00  0.00    +0.000 A 
BRANCH  17  23
ATOM     22  C   UNL     1       1.344   9.211  21.860  0.00  0.00    +0.000 C 
ATOM     23  C   UNL     1       0.741   8.428  20.697  0.00  0.00    +0.000 C 
ENDBRANCH  17  23
BRANCH  18  24
ATOM     24  S   UNL     1       2.839   6.281  19.528  0.00  0.00    +0.000 S 
BRANCH  24  25
ATOM     25  C   UNL     1       3.430   5.297  18.102  0.00  0.00    +0.000 C 
ATOM     26  C   UNL     1       4.612   4.400  18.409  0.00  0.00    +0.000 C 
ATOM     27  C   UNL     1       4.286   3.085  17.745  0.00  0.00    +0.000 C 
ATOM     28  O   UNL     1       2.881   3.065  17.523  0.00  0.00    +0.000 OA
ATOM     29  C   UNL     1       2.355   4.313  17.699  0.00  0.00    +0.000 C 
ATOM     30  O   UNL     1       1.176   4.567  17.506  0.00  0.00    +0.000 OA
ENDBRANCH  24  25
ENDBRANCH  18  24
ENDBRANCH   1  21
TORSDOF 5
ENDMDL
MODEL 5
REMARK VINA RESULT:      -7.7      1.248      4.235
REMARK  Name = 
REMARK  6 active torsions:
REMARK  status: ('A' for Active; 'I' for Inactive)
REMARK    1  A    between atoms: C_1  and  C_2
REMARK    2  A    between atoms: C_2  and  N_3
REMARK    3  A    between atoms: C_4  and  S_5
REMARK    4  A    between atoms: S_5  and  C_6
REMARK    5  A    between atoms: C_14  and  C_15
REMARK    6  A    between atoms: C_17  and  C_18
REMARK                            x       y       z     vdW  Elec       q    Type
REMARK                         _______ _______ _______ _____ _____    ______ ____
ROOT
ATOM      1  C   UNL     1       0.742  10.631  18.774  0.00  0.00    +0.000 A 
ATOM      2  C   UNL     1       1.394  11.794  19.198  0.00  0.00    +0.000 A 
ATOM      3  C   UNL     1       0.706  12.986  19.381  0.00  0.00    +0.000 A 
ATOM      4  N   UNL     1      -0.600  13.082  19.057  0.00  0.00    +0.000 NA
ATOM      5  C   UNL     1      -1.241  12.007  18.579  0.00  0.00    +0.000 A 
ATOM      6  C   UNL     1      -2.557  12.181  18.174  0.00  0.00    +0.000 A 
ATOM      7  C   UNL     1      -3.329  11.127  17.687  0.00  0.00    +0.000 A 
ATOM      8  C   UNL     1      -2.785   9.855  17.635  0.00  0.00    +0.000 A 
ATOM      9  C   UNL     1      -1.459   9.656  18.022  0.00  0.00    +0.000 A 
ATOM     10  C   UNL     1      -0.642  10.730  18.458  0.00  0.00    +0.000 A 
ENDROOT
BRANCH   3  11
ATOM     11  C   UNL     1       1.330  14.204  19.952  0.00  0.00    +0.000 A 
ATOM     12  C   UNL     1       1.534  15.376  19.197  0.00  0.00    +0.000 A 
ATOM     13  C   UNL     1       2.153  16.504  19.747  0.00  0.00    +0.000 A 
ATOM     14  C   UNL     1       2.579  16.494  21.071  0.00  0.00    +0.000 A 
ATOM     15  C   UNL     1       2.388  15.354  21.845  0.00  0.00    +0.000 A 
ATOM     16  C   UNL     1       1.773  14.226  21.290  0.00  0.00    +0.000 A 
ENDBRANCH   3  11
BRANCH   1  21
ATOM     17  N   UNL     1       1.662   8.294  19.422  0.00  0.00    +0.000 N 
ATOM     18  C   UNL     1       2.506   7.417  18.773  0.00  0.00    +0.000 A 
ATOM     19  N   UNL     1       2.846   7.906  17.609  0.00  0.00    +0.000 NA
ATOM     20  N   UNL     1       2.248   9.132  17.489  0.00  0.00    +0.000 NA
ATOM     21  C   UNL     1       1.521   9.385  18.567  0.00  0.00    +0.000 A 
BRANCH  17  23
ATOM     22  C   UNL     1       1.395   8.913  21.837  0.00  0.00    +0.000 C 
ATOM     23  C   UNL     1       0.962   8.033  20.667  0.00  0.00    +0.000 C 
ENDBRANCH  17  23
BRANCH  18  24
ATOM     24  S   UNL     1       3.057   5.918  19.436  0.00  0.00    +0.000 S 
BRANCH  24  25
ATOM     25  C   UNL     1       2.191   4.661  18.426  0.00  0.00    +0.000 C 
ATOM     26  C   UNL     1       3.112   3.761  17.628  0.00  0.00    +0.000 C 
ATOM     27  C   UNL     1       2.552   2.371  17.809  0.00  0.00    +0.000 C 
ATOM     28  O   UNL     1       1.728   2.400  18.968  0.00  0.00    +0.000 OA
ATOM     29  C   UNL     1       1.482   3.689  19.344  0.00  0.00    +0.000 C 
ATOM     30  O   UNL     1       0.748   3.979  20.277  0.00  0.00    +0.000 OA
ENDBRANCH  24  25
ENDBRANCH  18  24
ENDBRANCH   1  21
TORSDOF 5
ENDMDL
MODEL 6
REMARK VINA RESULT:      -7.6      1.484      4.401
REMARK  Name = 
REMARK  6 active torsions:
REMARK  status: ('A' for Active; 'I' for Inactive)
REMARK    1  A    between atoms: C_1  and  C_2
REMARK    2  A    between atoms: C_2  and  N_3
REMARK    3  A    between atoms: C_4  and  S_5
REMARK    4  A    between atoms: S_5  and  C_6
REMARK    5  A    between atoms: C_14  and  C_15
REMARK    6  A    between atoms: C_17  and  C_18
REMARK                            x       y       z     vdW  Elec       q    Type
REMARK                         _______ _______ _______ _____ _____    ______ ____
ROOT
ATOM      1  C   UNL     1       0.910  10.513  18.589  0.00  0.00    +0.000 A 
ATOM      2  C   UNL     1       1.639  11.686  18.814  0.00  0.00    +0.000 A 
ATOM      3  C   UNL     1       1.016  12.925  18.892  0.00  0.00    +0.000 A 
ATOM      4  N   UNL     1      -0.306  13.045  18.651  0.00  0.00    +0.000 NA
ATOM      5  C   UNL     1      -1.024  11.951  18.360  0.00  0.00    +0.000 A 
ATOM      6  C   UNL     1      -2.360  12.140  18.030  0.00  0.00    +0.000 A 
ATOM      7  C   UNL     1      -3.208  11.073  17.737  0.00  0.00    +0.000 A 
ATOM      8  C   UNL     1      -2.722   9.779  17.809  0.00  0.00    +0.000 A 
ATOM      9  C   UNL     1      -1.380   9.564  18.123  0.00  0.00    +0.000 A 
ATOM     10  C   UNL     1      -0.488  10.642  18.361  0.00  0.00    +0.000 A 
ENDROOT
BRANCH   3  11
ATOM     11  C   UNL     1       1.731  14.171  19.258  0.00  0.00    +0.000 A 
ATOM     12  C   UNL     1       1.061  15.389  19.488  0.00  0.00    +0.000 A 
ATOM     13  C   UNL     1       1.758  16.561  19.803  0.00  0.00    +0.000 A 
ATOM     14  C   UNL     1       3.145  16.545  19.904  0.00  0.00    +0.000 A 
ATOM     15  C   UNL     1       3.836  15.358  19.688  0.00  0.00    +0.000 A 
ATOM     16  C   UNL     1       3.136  14.189  19.368  0.00  0.00    +0.000 A 
ENDBRANCH   3  11
BRANCH   1  21
ATOM     17  N   UNL     1       1.689   8.185  19.423  0.00  0.00    +0.000 N 
ATOM     18  C   UNL     1       2.489   7.216  18.855  0.00  0.00    +0.000 A 
ATOM     19  N   UNL     1       2.870   7.595  17.664  0.00  0.00    +0.000 NA
ATOM     20  N   UNL     1       2.344   8.840  17.442  0.00  0.00    +0.000 NA
ATOM     21  C   UNL     1       1.619   9.214  18.487  0.00  0.00    +0.000 A 
BRANCH  17  23
ATOM     22  C   UNL     1       1.431   8.994  21.782  0.00  0.00    +0.000 C 
ATOM     23  C   UNL     1       0.960   8.058  20.673  0.00  0.00    +0.000 C 
ENDBRANCH  17  23
BRANCH  18  24
ATOM     24  S   UNL     1       2.946   5.742  19.637  0.00  0.00    +0.000 S 
BRANCH  24  25
ATOM     25  C   UNL     1       3.417   4.649  18.246  0.00  0.00    +0.000 C 
ATOM     26  C   UNL     1       4.332   3.506  18.633  0.00  0.00    +0.000 C 
ATOM     27  C   UNL     1       3.773   2.300  17.919  0.00  0.00    +0.000 C 
ATOM     28  O   UNL     1       2.425   2.602  17.581  0.00  0.00    +0.000 OA
ATOM     29  C   UNL     1       2.184   3.937  17.736  0.00  0.00    +0.000 C 
ATOM     30  O   UNL     1       1.115   4.454  17.450  0.00  0.00    +0.000 OA
ENDBRANCH  24  25
ENDBRANCH  18  24
ENDBRANCH   1  21
TORSDOF 5
ENDMDL
MODEL 7
REMARK VINA RESULT:      -7.6      1.218      1.436
REMARK  Name = 
REMARK  6 active torsions:
REMARK  status: ('A' for Active; 'I' for Inactive)
REMARK    1  A    between atoms: C_1  and  C_2
REMARK    2  A    between atoms: C_2  and  N_3
REMARK    3  A    between atoms: C_4  and  S_5
REMARK    4  A    between atoms: S_5  and  C_6
REMARK    5  A    between atoms: C_14  and  C_15
REMARK    6  A    between atoms: C_17  and  C_18
REMARK                            x       y       z     vdW  Elec       q    Type
REMARK                         _______ _______ _______ _____ _____    ______ ____
ROOT
ATOM      1  C   UNL     1       0.345  10.777  18.641  0.00  0.00    +0.000 A 
ATOM      2  C   UNL     1      -1.039  10.760  18.846  0.00  0.00    +0.000 A 
ATOM      3  C   UNL     1      -1.776  11.934  18.922  0.00  0.00    +0.000 A 
ATOM      4  N   UNL     1      -1.161  13.134  18.901  0.00  0.00    +0.000 NA
ATOM      5  C   UNL     1       0.172  13.188  18.779  0.00  0.00    +0.000 A 
ATOM      6  C   UNL     1       0.765  14.442  18.855  0.00  0.00    +0.000 A 
ATOM      7  C   UNL     1       2.141  14.621  18.713  0.00  0.00    +0.000 A 
ATOM      8  C   UNL     1       2.945  13.524  18.453  0.00  0.00    +0.000 A 
ATOM      9  C   UNL     1       2.376  12.252  18.387  0.00  0.00    +0.000 A 
ATOM     10  C   UNL     1       0.987  12.046  18.593  0.00  0.00    +0.000 A 
ENDROOT
BRANCH   3  11
ATOM     11  C   UNL     1      -3.257  11.957  19.007  0.00  0.00    +0.000 A 
ATOM     12  C   UNL     1      -3.945  12.621  20.042  0.00  0.00    +0.000 A 
ATOM     13  C   UNL     1      -5.342  12.606  20.120  0.00  0.00    +0.000 A 
ATOM     14  C   UNL     1      -6.090  11.932  19.161  0.00  0.00    +0.000 A 
ATOM     15  C   UNL     1      -5.441  11.270  18.124  0.00  0.00    +0.000 A 
ATOM     16  C   UNL     1      -4.043  11.284  18.052  0.00  0.00    +0.000 A 
ENDBRANCH   3  11
BRANCH   1  21
ATOM     17  N   UNL     1       1.496   8.682  19.647  0.00  0.00    +0.000 N 
ATOM     18  C   UNL     1       2.186   7.636  19.070  0.00  0.00    +0.000 A 
ATOM     19  N   UNL     1       2.202   7.776  17.771  0.00  0.00    +0.000 NA
ATOM     20  N   UNL     1       1.543   8.939  17.476  0.00  0.00    +0.000 NA
ATOM     21  C   UNL     1       1.099   9.499  18.592  0.00  0.00    +0.000 A 
BRANCH  17  23
ATOM     22  C   UNL     1      -0.264   8.306  21.394  0.00  0.00    +0.000 C 
ATOM     23  C   UNL     1       1.142   8.793  21.051  0.00  0.00    +0.000 C 
ENDBRANCH  17  23
BRANCH  18  24
ATOM     24  S   UNL     1       2.948   6.361  19.956  0.00  0.00    +0.000 S 
BRANCH  24  25
ATOM     25  C   UNL     1       3.816   5.402  18.661  0.00  0.00    +0.000 C 
ATOM     26  C   UNL     1       5.146   5.990  18.235  0.00  0.00    +0.000 C 
ATOM     27  C   UNL     1       6.086   4.812  18.155  0.00  0.00    +0.000 C 
ATOM     28  O   UNL     1       5.510   3.765  18.926  0.00  0.00    +0.000 OA
ATOM     29  C   UNL     1       4.208   4.053  19.221  0.00  0.00    +0.000 C 
ATOM     30  O   UNL     1       3.479   3.279  19.823  0.00  0.00    +0.000 OA
ENDBRANCH  24  25
ENDBRANCH  18  24
ENDBRANCH   1  21
TORSDOF 5
ENDMDL
MODEL 8
REMARK VINA RESULT:      -7.6      4.062      7.756
REMARK  Name = 
REMARK  6 active torsions:
REMARK  status: ('A' for Active; 'I' for Inactive)
REMARK    1  A    between atoms: C_1  and  C_2
REMARK    2  A    between atoms: C_2  and  N_3
REMARK    3  A    between atoms: C_4  and  S_5
REMARK    4  A    between atoms: S_5  and  C_6
REMARK    5  A    between atoms: C_14  and  C_15
REMARK    6  A    between atoms: C_17  and  C_18
REMARK                            x       y       z     vdW  Elec       q    Type
REMARK                         _______ _______ _______ _____ _____    ______ ____
ROOT
ATOM      1  C   UNL     1      -0.841  11.656  18.902  0.00  0.00    +0.000 A 
ATOM      2  C   UNL     1      -0.330  10.354  18.886  0.00  0.00    +0.000 A 
ATOM      3  C   UNL     1       1.036  10.109  18.920  0.00  0.00    +0.000 A 
ATOM      4  N   UNL     1       1.918  11.129  18.867  0.00  0.00    +0.000 NA
ATOM      5  C   UNL     1       1.465  12.389  18.808  0.00  0.00    +0.000 A 
ATOM      6  C   UNL     1       2.410  13.396  18.661  0.00  0.00    +0.000 A 
ATOM      7  C   UNL     1       2.055  14.743  18.617  0.00  0.00    +0.000 A 
ATOM      8  C   UNL     1       0.725  15.101  18.757  0.00  0.00    +0.000 A 
ATOM      9  C   UNL     1      -0.245  14.107  18.889  0.00  0.00    +0.000 A 
ATOM     10  C   UNL     1       0.093  12.729  18.872  0.00  0.00    +0.000 A 
ENDROOT
BRANCH   3  11
ATOM     11  C   UNL     1       1.615   8.749  19.037  0.00  0.00    +0.000 A 
ATOM     12  C   UNL     1       1.549   7.998  20.227  0.00  0.00    +0.000 A 
ATOM     13  C   UNL     1       2.128   6.728  20.325  0.00  0.00    +0.000 A 
ATOM     14  C   UNL     1       2.782   6.170  19.232  0.00  0.00    +0.000 A 
ATOM     15  C   UNL     1       2.861   6.883  18.041  0.00  0.00    +0.000 A 
ATOM     16  C   UNL     1       2.285   8.156  17.948  0.00  0.00    +0.000 A 
ENDBRANCH   3  11
BRANCH   1  21
ATOM     17  N   UNL     1      -3.156  11.771  17.739  0.00  0.00    +0.000 N 
ATOM     18  C   UNL     1      -4.413  12.096  18.205  0.00  0.00    +0.000 A 
ATOM     19  N   UNL     1      -4.359  12.357  19.485  0.00  0.00    +0.000 NA
ATOM     20  N   UNL     1      -3.052  12.235  19.874  0.00  0.00    +0.000 NA
ATOM     21  C   UNL     1      -2.308  11.873  18.839  0.00  0.00    +0.000 A 
BRANCH  17  23
ATOM     22  C   UNL     1      -2.932   9.764  16.253  0.00  0.00    +0.000 C 
ATOM     23  C   UNL     1      -2.845  11.280  16.408  0.00  0.00    +0.000 C 
ENDBRANCH  17  23
BRANCH  18  24
ATOM     24  S   UNL     1      -5.830  12.182  17.218  0.00  0.00    +0.000 S 
BRANCH  24  25
ATOM     25  C   UNL     1      -7.112  11.367  18.239  0.00  0.00    +0.000 C 
ATOM     26  C   UNL     1      -6.630  10.137  18.981  0.00  0.00    +0.000 C 
ATOM     27  C   UNL     1      -7.205  10.269  20.370  0.00  0.00    +0.000 C 
ATOM     28  O   UNL     1      -7.543  11.639  20.555  0.00  0.00    +0.000 OA
ATOM     29  C   UNL     1      -7.520  12.299  19.360  0.00  0.00    +0.000 C 
ATOM     30  O   UNL     1      -7.833  13.474  19.246  0.00  0.00    +0.000 OA
ENDBRANCH  24  25
ENDBRANCH  18  24
ENDBRANCH   1  21
TORSDOF 5
ENDMDL
MODEL 9
REMARK VINA RESULT:      -7.6      4.336      7.115
REMARK  Name = 
REMARK  6 active torsions:
REMARK  status: ('A' for Active; 'I' for Inactive)
REMARK    1  A    between atoms: C_1  and  C_2
REMARK    2  A    between atoms: C_2  and  N_3
REMARK    3  A    between atoms: C_4  and  S_5
REMARK    4  A    between atoms: S_5  and  C_6
REMARK    5  A    between atoms: C_14  and  C_15
REMARK    6  A    between atoms: C_17  and  C_18
REMARK                            x       y       z     vdW  Elec       q    Type
REMARK                         _______ _______ _______ _____ _____    ______ ____
ROOT
ATOM      1  C   UNL     1       3.081   6.279  19.002  0.00  0.00    +0.000 A 
ATOM      2  C   UNL     1       2.445   7.433  19.473  0.00  0.00    +0.000 A 
ATOM      3  C   UNL     1       1.482   7.375  20.472  0.00  0.00    +0.000 A 
ATOM      4  N   UNL     1       1.059   6.187  20.950  0.00  0.00    +0.000 NA
ATOM      5  C   UNL     1       1.594   5.056  20.470  0.00  0.00    +0.000 A 
ATOM      6  C   UNL     1       1.058   3.858  20.926  0.00  0.00    +0.000 A 
ATOM      7  C   UNL     1       1.555   2.621  20.517  0.00  0.00    +0.000 A 
ATOM      8  C   UNL     1       2.638   2.575  19.655  0.00  0.00    +0.000 A 
ATOM      9  C   UNL     1       3.184   3.764  19.170  0.00  0.00    +0.000 A 
ATOM     10  C   UNL     1       2.648   5.029  19.527  0.00  0.00    +0.000 A 
ENDROOT
BRANCH   3  11
ATOM     11  C   UNL     1       0.880   8.582  21.090  0.00  0.00    +0.000 A 
ATOM     12  C   UNL     1       0.388   8.591  22.410  0.00  0.00    +0.000 A 
ATOM     13  C   UNL     1      -0.204   9.732  22.963  0.00  0.00    +0.000 A 
ATOM     14  C   UNL     1      -0.313  10.898  22.214  0.00  0.00    +0.000 A 
ATOM     15  C   UNL     1       0.167  10.923  20.909  0.00  0.00    +0.000 A 
ATOM     16  C   UNL     1       0.754   9.778  20.357  0.00  0.00    +0.000 A 
ENDBRANCH   3  11
BRANCH   1  21
ATOM     17  N   UNL     1       5.401   5.927  17.899  0.00  0.00    +0.000 N 
ATOM     18  C   UNL     1       5.910   6.297  16.671  0.00  0.00    +0.000 A 
ATOM     19  N   UNL     1       4.990   6.911  15.975  0.00  0.00    +0.000 NA
ATOM     20  N   UNL     1       3.865   6.980  16.752  0.00  0.00    +0.000 NA
ATOM     21  C   UNL     1       4.085   6.384  17.915  0.00  0.00    +0.000 A 
BRANCH  17  23
ATOM     22  C   UNL     1       7.310   5.739  19.514  0.00  0.00    +0.000 C 
ATOM     23  C   UNL     1       6.076   5.099  18.883  0.00  0.00    +0.000 C 
ENDBRANCH  17  23
BRANCH  18  24
ATOM     24  S   UNL     1       7.540   6.018  16.164  0.00  0.00    +0.000 S 
BRANCH  24  25
ATOM     25  C   UNL     1       7.396   4.586  15.034  0.00  0.00    +0.000 C 
ATOM     26  C   UNL     1       6.015   3.964  14.987  0.00  0.00    +0.000 C 
ATOM     27  C   UNL     1       5.749   3.716  13.522  0.00  0.00    +0.000 C 
ATOM     28  O   UNL     1       6.637   4.551  12.789  0.00  0.00    +0.000 OA
ATOM     29  C   UNL     1       7.604   5.054  13.611  0.00  0.00    +0.000 C 
ATOM     30  O   UNL     1       8.521   5.751  13.204  0.00  0.00    +0.000 OA
ENDBRANCH  24  25
ENDBRANCH  18  24
ENDBRANCH   1  21
TORSDOF 5
ENDMDL
