MODEL 1
REMARK VINA RESULT:      -8.6      0.000      0.000
REMARK  Name = 
REMARK  7 active torsions:
REMARK  status: ('A' for Active; 'I' for Inactive)
REMARK    1  A    between atoms: C_1  and  C_2
REMARK    2  A    between atoms: C_5  and  N_6
REMARK    3  A    between atoms: C_7  and  C_9
REMARK    4  A    between atoms: C_13  and  C_14
REMARK    5  A    between atoms: C_19  and  N_20
REMARK    6  A    between atoms: N_20  and  S_21
REMARK    7  A    between atoms: S_21  and  C_24
REMARK                            x       y       z     vdW  Elec       q    Type
REMARK                         _______ _______ _______ _____ _____    ______ ____
ROOT
ATOM      1  C   UNL     1       6.710   4.454  15.972  0.00  0.00    +0.000 C 
ATOM      2  C   UNL     1       5.671   5.261  16.694  0.00  0.00    +0.000 A 
ATOM      3  C   UNL     1       5.621   6.640  16.462  0.00  0.00    +0.000 A 
ATOM      4  C   UNL     1       4.685   7.451  17.108  0.00  0.00    +0.000 A 
ATOM      5  C   UNL     1       3.766   6.912  18.006  0.00  0.00    +0.000 A 
ATOM      6  C   UNL     1       3.805   5.532  18.243  0.00  0.00    +0.000 A 
ATOM      7  C   UNL     1       4.754   4.713  17.599  0.00  0.00    +0.000 A 
ENDROOT
BRANCH   5   8
ATOM      8  N   UNL     1       2.792   7.697  18.679  0.00  0.00    +0.000 N 
ATOM      9  C   UNL     1       2.161   8.823  18.161  0.00  0.00    +0.000 C 
ATOM     10  O   UNL     1       2.421   9.371  17.096  0.00  0.00    +0.000 OA
ATOM     11  H   UNL     1       2.621   7.464  19.649  0.00  0.00    +0.000 HD
BRANCH   9  12
ATOM     12  C   UNL     1       1.102   9.451  19.001  0.00  0.00    +0.000 A 
ATOM     13  C   UNL     1      -0.014   9.988  18.340  0.00  0.00    +0.000 A 
ATOM     14  C   UNL     1      -1.061  10.552  19.064  0.00  0.00    +0.000 A 
ATOM     15  C   UNL     1      -1.008  10.563  20.456  0.00  0.00    +0.000 A 
ATOM     16  C   UNL     1       0.085  10.000  21.137  0.00  0.00    +0.000 A 
ATOM     17  C   UNL     1       1.148   9.446  20.403  0.00  0.00    +0.000 A 
BRANCH  16  18
ATOM     18  C   UNL     1       0.033  10.020  22.629  0.00  0.00    +0.000 C 
ATOM     19  N   UNL     1      -1.087  10.505  23.244  0.00  0.00    +0.000 N 
ATOM     20  O   UNL     1       0.973   9.619  23.307  0.00  0.00    +0.000 OA
ATOM     21  H   UNL     1      -1.871  10.938  22.786  0.00  0.00    +0.000 HD
ATOM     22  H   UNL     1      -1.056  10.542  24.256  0.00  0.00    +0.000 HD
ENDBRANCH  16  18
ENDBRANCH   9  12
ENDBRANCH   5   8
BRANCH   7  23
ATOM     23  N   UNL     1       4.812   3.340  17.958  0.00  0.00    +0.000 N 
ATOM     24  H   UNL     1       5.712   2.876  18.053  0.00  0.00    +0.000 HD
BRANCH  23  25
ATOM     25  S   UNL     1       3.474   2.338  17.840  0.00  0.00    +0.000 S 
ATOM     26  O   UNL     1       2.655   2.886  16.775  0.00  0.00    +0.000 OA
ATOM     27  O   UNL     1       3.896   0.954  17.812  0.00  0.00    +0.000 OA
BRANCH  25  28
ATOM     28  C   UNL     1       2.603   2.625  19.363  0.00  0.00    +0.000 A 
ATOM     29  C   UNL     1       1.241   2.953  19.320  0.00  0.00    +0.000 A 
ATOM     30  C   UNL     1       0.545   3.166  20.511  0.00  0.00    +0.000 A 
ATOM     31  C   UNL     1       1.203   3.045  21.734  0.00  0.00    +0.000 A 
ATOM     32  C   UNL     1       2.558   2.701  21.773  0.00  0.00    +0.000 A 
ATOM     33  C   UNL     1       3.261   2.481  20.587  0.00  0.00    +0.000 A 
ENDBRANCH  25  28
ENDBRANCH  23  25
ENDBRANCH   7  23
TORSDOF 6
ENDMDL
MODEL 2
REMARK VINA RESULT:      -8.5      1.819      2.269
REMARK  Name = 
REMARK  7 active torsions:
REMARK  status: ('A' for Active; 'I' for Inactive)
REMARK    1  A    between atoms: C_1  and  C_2
REMARK    2  A    between atoms: C_5  and  N_6
REMARK    3  A    between atoms: C_7  and  C_9
REMARK    4  A    between atoms: C_13  and  C_14
REMARK    5  A    between atoms: C_19  and  N_20
REMARK    6  A    between atoms: N_20  and  S_21
REMARK    7  A    between atoms: S_21  and  C_24
REMARK                            x       y       z     vdW  Elec       q    Type
REMARK                         _______ _______ _______ _____ _____    ______ ____
ROOT
ATOM      1  C   UNL     1       6.598   4.026  16.408  0.00  0.00    +0.000 C 
ATOM      2  C   UNL     1       5.569   4.900  17.065  0.00  0.00    +0.000 A 
ATOM      3  C   UNL     1       5.158   6.058  16.398  0.00  0.00    +0.000 A 
ATOM      4  C   UNL     1       4.211   6.920  16.957  0.00  0.00    +0.000 A 
ATOM      5  C   UNL     1       3.641   6.653  18.201  0.00  0.00    +0.000 A 
ATOM      6  C   UNL     1       4.044   5.493  18.875  0.00  0.00    +0.000 A 
ATOM      7  C   UNL     1       5.005   4.627  18.318  0.00  0.00    +0.000 A 
ENDROOT
BRANCH   5   8
ATOM      8  N   UNL     1       2.670   7.496  18.803  0.00  0.00    +0.000 N 
ATOM      9  C   UNL     1       2.076   8.602  18.205  0.00  0.00    +0.000 C 
ATOM     10  O   UNL     1       2.371   9.080  17.115  0.00  0.00    +0.000 OA
ATOM     11  H   UNL     1       2.473   7.325  19.781  0.00  0.00    +0.000 HD
BRANCH   9  12
ATOM     12  C   UNL     1       1.012   9.300  18.982  0.00  0.00    +0.000 A 
ATOM     13  C   UNL     1       1.024   9.147  20.378  0.00  0.00    +0.000 A 
ATOM     14  C   UNL     1       0.086   9.804  21.169  0.00  0.00    +0.000 A 
ATOM     15  C   UNL     1      -0.859  10.635  20.571  0.00  0.00    +0.000 A 
ATOM     16  C   UNL     1      -0.866  10.827  19.178  0.00  0.00    +0.000 A 
ATOM     17  C   UNL     1       0.073  10.150  18.381  0.00  0.00    +0.000 A 
BRANCH  16  18
ATOM     18  C   UNL     1      -1.888  11.769  18.633  0.00  0.00    +0.000 C 
ATOM     19  N   UNL     1      -1.591  12.488  17.510  0.00  0.00    +0.000 N 
ATOM     20  O   UNL     1      -2.978  11.913  19.176  0.00  0.00    +0.000 OA
ATOM     21  H   UNL     1      -0.699  12.511  17.043  0.00  0.00    +0.000 HD
ATOM     22  H   UNL     1      -2.296  13.148  17.206  0.00  0.00    +0.000 HD
ENDBRANCH  16  18
ENDBRANCH   9  12
ENDBRANCH   5   8
BRANCH   7  23
ATOM     23  N   UNL     1       5.449   3.523  19.095  0.00  0.00    +0.000 N 
ATOM     24  H   UNL     1       6.408   3.490  19.430  0.00  0.00    +0.000 HD
BRANCH  23  25
ATOM     25  S   UNL     1       4.596   2.082  19.150  0.00  0.00    +0.000 S 
ATOM     26  O   UNL     1       4.461   1.643  17.774  0.00  0.00    +0.000 OA
ATOM     27  O   UNL     1       5.169   1.209  20.153  0.00  0.00    +0.000 OA
BRANCH  25  28
ATOM     28  C   UNL     1       2.979   2.575  19.698  0.00  0.00    +0.000 A 
ATOM     29  C   UNL     1       1.919   2.581  18.781  0.00  0.00    +0.000 A 
ATOM     30  C   UNL     1       0.642   2.954  19.204  0.00  0.00    +0.000 A 
ATOM     31  C   UNL     1       0.426   3.310  20.535  0.00  0.00    +0.000 A 
ATOM     32  C   UNL     1       1.482   3.285  21.451  0.00  0.00    +0.000 A 
ATOM     33  C   UNL     1       2.762   2.909  21.037  0.00  0.00    +0.000 A 
ENDBRANCH  25  28
ENDBRANCH  23  25
ENDBRANCH   7  23
TORSDOF 6
ENDMDL
MODEL 3
REMARK VINA RESULT:      -8.4      1.394      1.744
REMARK  Name = 
REMARK  7 active torsions:
REMARK  status: ('A' for Active; 'I' for Inactive)
REMARK    1  A    between atoms: C_1  and  C_2
REMARK    2  A    between atoms: C_5  and  N_6
REMARK    3  A    between atoms: C_7  and  C_9
REMARK    4  A    between atoms: C_13  and  C_14
REMARK    5  A    between atoms: C_19  and  N_20
REMARK    6  A    between atoms: N_20  and  S_21
REMARK    7  A    between atoms: S_21  and  C_24
REMARK                            x       y       z     vdW  Elec       q    Type
REMARK                         _______ _______ _______ _____ _____    ______ ____
ROOT
ATOM      1  C   UNL     1       6.115   4.451  15.370  0.00  0.00    +0.000 C 
ATOM      2  C   UNL     1       5.240   5.243  16.297  0.00  0.00    +0.000 A 
ATOM      3  C   UNL     1       5.109   6.618  16.074  0.00  0.00    +0.000 A 
ATOM      4  C   UNL     1       4.319   7.416  16.905  0.00  0.00    +0.000 A 
ATOM      5  C   UNL     1       3.631   6.868  17.985  0.00  0.00    +0.000 A 
ATOM      6  C   UNL     1       3.752   5.491  18.215  0.00  0.00    +0.000 A 
ATOM      7  C   UNL     1       4.556   4.686  17.384  0.00  0.00    +0.000 A 
ENDROOT
BRANCH   5   8
ATOM      8  N   UNL     1       2.810   7.638  18.851  0.00  0.00    +0.000 N 
ATOM      9  C   UNL     1       1.877   8.588  18.448  0.00  0.00    +0.000 C 
ATOM     10  O   UNL     1       1.694   8.980  17.301  0.00  0.00    +0.000 OA
ATOM     11  H   UNL     1       2.995   7.550  19.842  0.00  0.00    +0.000 HD
BRANCH   9  12
ATOM     12  C   UNL     1       1.054   9.223  19.517  0.00  0.00    +0.000 A 
ATOM     13  C   UNL     1       1.089   8.638  20.793  0.00  0.00    +0.000 A 
ATOM     14  C   UNL     1       0.378   9.202  21.849  0.00  0.00    +0.000 A 
ATOM     15  C   UNL     1      -0.356  10.367  21.640  0.00  0.00    +0.000 A 
ATOM     16  C   UNL     1      -0.376  10.986  20.378  0.00  0.00    +0.000 A 
ATOM     17  C   UNL     1       0.330  10.405  19.310  0.00  0.00    +0.000 A 
BRANCH  16  18
ATOM     18  C   UNL     1      -1.155  12.254  20.262  0.00  0.00    +0.000 C 
ATOM     19  N   UNL     1      -0.754  13.195  19.355  0.00  0.00    +0.000 N 
ATOM     20  O   UNL     1      -2.137  12.469  20.965  0.00  0.00    +0.000 OA
ATOM     21  H   UNL     1       0.083  13.157  18.797  0.00  0.00    +0.000 HD
ATOM     22  H   UNL     1      -1.285  14.057  19.346  0.00  0.00    +0.000 HD
ENDBRANCH  16  18
ENDBRANCH   9  12
ENDBRANCH   5   8
BRANCH   7  23
ATOM     23  N   UNL     1       4.722   3.318  17.730  0.00  0.00    +0.000 N 
ATOM     24  H   UNL     1       5.650   2.901  17.725  0.00  0.00    +0.000 HD
BRANCH  23  25
ATOM     25  S   UNL     1       3.432   2.249  17.751  0.00  0.00    +0.000 S 
ATOM     26  O   UNL     1       2.530   2.687  16.704  0.00  0.00    +0.000 OA
ATOM     27  O   UNL     1       3.921   0.887  17.785  0.00  0.00    +0.000 OA
BRANCH  25  28
ATOM     28  C   UNL     1       2.633   2.593  19.301  0.00  0.00    +0.000 A 
ATOM     29  C   UNL     1       1.285   2.982  19.304  0.00  0.00    +0.000 A 
ATOM     30  C   UNL     1       0.645   3.241  20.517  0.00  0.00    +0.000 A 
ATOM     31  C   UNL     1       1.343   3.104  21.716  0.00  0.00    +0.000 A 
ATOM     32  C   UNL     1       2.680   2.699  21.710  0.00  0.00    +0.000 A 
ATOM     33  C   UNL     1       3.329   2.433  20.502  0.00  0.00    +0.000 A 
ENDBRANCH  25  28
ENDBRANCH  23  25
ENDBRANCH   7  23
TORSDOF 6
ENDMDL
MODEL 4
REMARK VINA RESULT:      -8.3      2.986      8.581
REMARK  Name = 
REMARK  7 active torsions:
REMARK  status: ('A' for Active; 'I' for Inactive)
REMARK    1  A    between atoms: C_1  and  C_2
REMARK    2  A    between atoms: C_5  and  N_6
REMARK    3  A    between atoms: C_7  and  C_9
REMARK    4  A    between atoms: C_13  and  C_14
REMARK    5  A    between atoms: C_19  and  N_20
REMARK    6  A    between atoms: N_20  and  S_21
REMARK    7  A    between atoms: S_21  and  C_24
REMARK                            x       y       z     vdW  Elec       q    Type
REMARK                         _______ _______ _______ _____ _____    ______ ____
ROOT
ATOM      1  C   UNL     1      -1.285  11.577  22.899  0.00  0.00    +0.000 C 
ATOM      2  C   UNL     1      -0.436  10.588  22.154  0.00  0.00    +0.000 A 
ATOM      3  C   UNL     1      -0.496   9.243  22.533  0.00  0.00    +0.000 A 
ATOM      4  C   UNL     1       0.274   8.272  21.889  0.00  0.00    +0.000 A 
ATOM      5  C   UNL     1       1.131   8.612  20.844  0.00  0.00    +0.000 A 
ATOM      6  C   UNL     1       1.197   9.956  20.455  0.00  0.00    +0.000 A 
ATOM      7  C   UNL     1       0.427  10.938  21.108  0.00  0.00    +0.000 A 
ENDROOT
BRANCH   5   8
ATOM      8  N   UNL     1       1.927   7.658  20.155  0.00  0.00    +0.000 N 
ATOM      9  C   UNL     1       2.226   7.682  18.797  0.00  0.00    +0.000 C 
ATOM     10  O   UNL     1       1.767   8.463  17.970  0.00  0.00    +0.000 OA
ATOM     11  H   UNL     1       2.215   6.847  20.688  0.00  0.00    +0.000 HD
BRANCH   9  12
ATOM     12  C   UNL     1       3.154   6.632  18.290  0.00  0.00    +0.000 A 
ATOM     13  C   UNL     1       4.137   7.027  17.369  0.00  0.00    +0.000 A 
ATOM     14  C   UNL     1       5.064   6.108  16.886  0.00  0.00    +0.000 A 
ATOM     15  C   UNL     1       5.027   4.791  17.338  0.00  0.00    +0.000 A 
ATOM     16  C   UNL     1       4.072   4.383  18.285  0.00  0.00    +0.000 A 
ATOM     17  C   UNL     1       3.127   5.310  18.759  0.00  0.00    +0.000 A 
BRANCH  16  18
ATOM     18  C   UNL     1       4.138   2.964  18.742  0.00  0.00    +0.000 C 
ATOM     19  N   UNL     1       5.053   2.618  19.695  0.00  0.00    +0.000 N 
ATOM     20  O   UNL     1       3.394   2.107  18.275  0.00  0.00    +0.000 OA
ATOM     21  H   UNL     1       5.765   3.220  20.075  0.00  0.00    +0.000 HD
ATOM     22  H   UNL     1       5.092   1.636  19.937  0.00  0.00    +0.000 HD
ENDBRANCH  16  18
ENDBRANCH   9  12
ENDBRANCH   5   8
BRANCH   7  23
ATOM     23  N   UNL     1       0.615  12.297  20.738  0.00  0.00    +0.000 N 
ATOM     24  H   UNL     1       0.665  13.017  21.454  0.00  0.00    +0.000 HD
BRANCH  23  25
ATOM     25  S   UNL     1       0.354  12.830  19.171  0.00  0.00    +0.000 S 
ATOM     26  O   UNL     1      -0.039  14.222  19.280  0.00  0.00    +0.000 OA
ATOM     27  O   UNL     1       1.463  12.437  18.327  0.00  0.00    +0.000 OA
BRANCH  25  28
ATOM     28  C   UNL     1      -1.086  11.924  18.657  0.00  0.00    +0.000 A 
ATOM     29  C   UNL     1      -0.928  10.794  17.842  0.00  0.00    +0.000 A 
ATOM     30  C   UNL     1      -2.052  10.067  17.445  0.00  0.00    +0.000 A 
ATOM     31  C   UNL     1      -3.321  10.462  17.866  0.00  0.00    +0.000 A 
ATOM     32  C   UNL     1      -3.473  11.578  18.693  0.00  0.00    +0.000 A 
ATOM     33  C   UNL     1      -2.354  12.309  19.100  0.00  0.00    +0.000 A 
ENDBRANCH  25  28
ENDBRANCH  23  25
ENDBRANCH   7  23
TORSDOF 6
ENDMDL
MODEL 5
REMARK VINA RESULT:      -8.3      3.680      8.944
REMARK  Name = 
REMARK  7 active torsions:
REMARK  status: ('A' for Active; 'I' for Inactive)
REMARK    1  A    between atoms: C_1  and  C_2
REMARK    2  A    between atoms: C_5  and  N_6
REMARK    3  A    between atoms: C_7  and  C_9
REMARK    4  A    between atoms: C_13  and  C_14
REMARK    5  A    between atoms: C_19  and  N_20
REMARK    6  A    between atoms: N_20  and  S_21
REMARK    7  A    between atoms: S_21  and  C_24
REMARK                            x       y       z     vdW  Elec       q    Type
REMARK                         _______ _______ _______ _____ _____    ______ ____
ROOT
ATOM      1  C   UNL     1      -0.656  13.507  19.318  0.00  0.00    +0.000 C 
ATOM      2  C   UNL     1       0.098  12.266  18.935  0.00  0.00    +0.000 A 
ATOM      3  C   UNL     1       1.459  12.382  18.636  0.00  0.00    +0.000 A 
ATOM      4  C   UNL     1       2.218  11.269  18.264  0.00  0.00    +0.000 A 
ATOM      5  C   UNL     1       1.642  10.003  18.179  0.00  0.00    +0.000 A 
ATOM      6  C   UNL     1       0.280   9.876  18.479  0.00  0.00    +0.000 A 
ATOM      7  C   UNL     1      -0.490  10.998  18.847  0.00  0.00    +0.000 A 
ENDROOT
BRANCH   5   8
ATOM      8  N   UNL     1       2.375   8.843  17.813  0.00  0.00    +0.000 N 
ATOM      9  C   UNL     1       2.554   7.715  18.606  0.00  0.00    +0.000 C 
ATOM     10  O   UNL     1       2.201   7.589  19.773  0.00  0.00    +0.000 OA
ATOM     11  H   UNL     1       2.884   8.892  16.939  0.00  0.00    +0.000 HD
BRANCH   9  12
ATOM     12  C   UNL     1       3.286   6.569  17.995  0.00  0.00    +0.000 A 
ATOM     13  C   UNL     1       4.198   6.857  16.967  0.00  0.00    +0.000 A 
ATOM     14  C   UNL     1       4.947   5.841  16.380  0.00  0.00    +0.000 A 
ATOM     15  C   UNL     1       4.802   4.531  16.832  0.00  0.00    +0.000 A 
ATOM     16  C   UNL     1       3.919   4.227  17.882  0.00  0.00    +0.000 A 
ATOM     17  C   UNL     1       3.153   5.253  18.462  0.00  0.00    +0.000 A 
BRANCH  16  18
ATOM     18  C   UNL     1       3.864   2.803  18.326  0.00  0.00    +0.000 C 
ATOM     19  N   UNL     1       4.776   2.361  19.243  0.00  0.00    +0.000 N 
ATOM     20  O   UNL     1       3.026   2.026  17.881  0.00  0.00    +0.000 OA
ATOM     21  H   UNL     1       5.555   2.888  19.601  0.00  0.00    +0.000 HD
ATOM     22  H   UNL     1       4.729   1.378  19.477  0.00  0.00    +0.000 HD
ENDBRANCH  16  18
ENDBRANCH   9  12
ENDBRANCH   5   8
BRANCH   7  23
ATOM     23  N   UNL     1      -1.887  10.823  19.038  0.00  0.00    +0.000 N 
ATOM     24  H   UNL     1      -2.244  10.530  19.943  0.00  0.00    +0.000 HD
BRANCH  23  25
ATOM     25  S   UNL     1      -2.944  10.683  17.745  0.00  0.00    +0.000 S 
ATOM     26  O   UNL     1      -2.388  11.497  16.681  0.00  0.00    +0.000 OA
ATOM     27  O   UNL     1      -3.266   9.290  17.522  0.00  0.00    +0.000 OA
BRANCH  25  28
ATOM     28  C   UNL     1      -4.411  11.510  18.316  0.00  0.00    +0.000 A 
ATOM     29  C   UNL     1      -5.626  11.278  17.657  0.00  0.00    +0.000 A 
ATOM     30  C   UNL     1      -6.786  11.912  18.106  0.00  0.00    +0.000 A 
ATOM     31  C   UNL     1      -6.733  12.762  19.210  0.00  0.00    +0.000 A 
ATOM     32  C   UNL     1      -5.522  12.976  19.876  0.00  0.00    +0.000 A 
ATOM     33  C   UNL     1      -4.357  12.343  19.437  0.00  0.00    +0.000 A 
ENDBRANCH  25  28
ENDBRANCH  23  25
ENDBRANCH   7  23
TORSDOF 6
ENDMDL
MODEL 6
REMARK VINA RESULT:      -8.2      3.787      9.153
REMARK  Name = 
REMARK  7 active torsions:
REMARK  status: ('A' for Active; 'I' for Inactive)
REMARK    1  A    between atoms: C_1  and  C_2
REMARK    2  A    between atoms: C_5  and  N_6
REMARK    3  A    between atoms: C_7  and  C_9
REMARK    4  A    between atoms: C_13  and  C_14
REMARK    5  A    between atoms: C_19  and  N_20
REMARK    6  A    between atoms: N_20  and  S_21
REMARK    7  A    between atoms: S_21  and  C_24
REMARK                            x       y       z     vdW  Elec       q    Type
REMARK                         _______ _______ _______ _____ _____    ______ ____
ROOT
ATOM      1  C   UNL     1      -1.313  13.238  20.196  0.00  0.00    +0.000 C 
ATOM      2  C   UNL     1      -0.570  11.974  19.875  0.00  0.00    +0.000 A 
ATOM      3  C   UNL     1       0.341  11.481  20.815  0.00  0.00    +0.000 A 
ATOM      4  C   UNL     1       1.073  10.315  20.575  0.00  0.00    +0.000 A 
ATOM      5  C   UNL     1       0.918   9.601  19.388  0.00  0.00    +0.000 A 
ATOM      6  C   UNL     1       0.006  10.085  18.441  0.00  0.00    +0.000 A 
ATOM      7  C   UNL     1      -0.727  11.265  18.677  0.00  0.00    +0.000 A 
ENDROOT
BRANCH   5   8
ATOM      8  N   UNL     1       1.634   8.408  19.105  0.00  0.00    +0.000 N 
ATOM      9  C   UNL     1       2.478   8.209  18.017  0.00  0.00    +0.000 C 
ATOM     10  O   UNL     1       2.651   8.987  17.085  0.00  0.00    +0.000 OA
ATOM     11  H   UNL     1       1.432   7.612  19.697  0.00  0.00    +0.000 HD
BRANCH   9  12
ATOM     12  C   UNL     1       3.204   6.909  17.954  0.00  0.00    +0.000 A 
ATOM     13  C   UNL     1       2.452   5.738  18.141  0.00  0.00    +0.000 A 
ATOM     14  C   UNL     1       3.057   4.488  18.054  0.00  0.00    +0.000 A 
ATOM     15  C   UNL     1       4.416   4.400  17.758  0.00  0.00    +0.000 A 
ATOM     16  C   UNL     1       5.179   5.559  17.534  0.00  0.00    +0.000 A 
ATOM     17  C   UNL     1       4.568   6.821  17.638  0.00  0.00    +0.000 A 
BRANCH  16  18
ATOM     18  C   UNL     1       6.616   5.363  17.180  0.00  0.00    +0.000 C 
ATOM     19  N   UNL     1       7.317   4.365  17.794  0.00  0.00    +0.000 N 
ATOM     20  O   UNL     1       7.175   6.082  16.359  0.00  0.00    +0.000 OA
ATOM     21  H   UNL     1       6.980   3.781  18.542  0.00  0.00    +0.000 HD
ATOM     22  H   UNL     1       8.299   4.301  17.557  0.00  0.00    +0.000 HD
ENDBRANCH  16  18
ENDBRANCH   9  12
ENDBRANCH   5   8
BRANCH   7  23
ATOM     23  N   UNL     1      -1.558  11.761  17.637  0.00  0.00    +0.000 N 
ATOM     24  H   UNL     1      -1.573  12.756  17.428  0.00  0.00    +0.000 HD
BRANCH  23  25
ATOM     25  S   UNL     1      -2.816  10.854  17.004  0.00  0.00    +0.000 S 
ATOM     26  O   UNL     1      -2.786  11.071  15.570  0.00  0.00    +0.000 OA
ATOM     27  O   UNL     1      -2.781   9.514  17.551  0.00  0.00    +0.000 OA
BRANCH  25  28
ATOM     28  C   UNL     1      -4.270  11.670  17.621  0.00  0.00    +0.000 A 
ATOM     29  C   UNL     1      -4.368  11.947  18.992  0.00  0.00    +0.000 A 
ATOM     30  C   UNL     1      -5.499  12.601  19.484  0.00  0.00    +0.000 A 
ATOM     31  C   UNL     1      -6.518  12.981  18.612  0.00  0.00    +0.000 A 
ATOM     32  C   UNL     1      -6.409  12.719  17.244  0.00  0.00    +0.000 A 
ATOM     33  C   UNL     1      -5.279  12.069  16.741  0.00  0.00    +0.000 A 
ENDBRANCH  25  28
ENDBRANCH  23  25
ENDBRANCH   7  23
TORSDOF 6
ENDMDL
MODEL 7
REMARK VINA RESULT:      -8.2      2.557      4.624
REMARK  Name = 
REMARK  7 active torsions:
REMARK  status: ('A' for Active; 'I' for Inactive)
REMARK    1  A    between atoms: C_1  and  C_2
REMARK    2  A    between atoms: C_5  and  N_6
REMARK    3  A    between atoms: C_7  and  C_9
REMARK    4  A    between atoms: C_13  and  C_14
REMARK    5  A    between atoms: C_19  and  N_20
REMARK    6  A    between atoms: N_20  and  S_21
REMARK    7  A    between atoms: S_21  and  C_24
REMARK                            x       y       z     vdW  Elec       q    Type
REMARK                         _______ _______ _______ _____ _____    ______ ____
ROOT
ATOM      1  C   UNL     1       3.763   1.398  18.313  0.00  0.00    +0.000 C 
ATOM      2  C   UNL     1       3.262   2.680  18.913  0.00  0.00    +0.000 A 
ATOM      3  C   UNL     1       1.882   2.846  19.068  0.00  0.00    +0.000 A 
ATOM      4  C   UNL     1       1.349   4.017  19.611  0.00  0.00    +0.000 A 
ATOM      5  C   UNL     1       2.176   5.062  20.019  0.00  0.00    +0.000 A 
ATOM      6  C   UNL     1       3.560   4.904  19.871  0.00  0.00    +0.000 A 
ATOM      7  C   UNL     1       4.100   3.727  19.315  0.00  0.00    +0.000 A 
ENDROOT
BRANCH   5   8
ATOM      8  N   UNL     1       1.679   6.267  20.583  0.00  0.00    +0.000 N 
ATOM      9  C   UNL     1       1.775   7.530  20.008  0.00  0.00    +0.000 C 
ATOM     10  O   UNL     1       2.391   7.813  18.986  0.00  0.00    +0.000 OA
ATOM     11  H   UNL     1       1.311   6.203  21.523  0.00  0.00    +0.000 HD
BRANCH   9  12
ATOM     12  C   UNL     1       1.107   8.652  20.726  0.00  0.00    +0.000 A 
ATOM     13  C   UNL     1       0.940   8.524  22.114  0.00  0.00    +0.000 A 
ATOM     14  C   UNL     1       0.362   9.551  22.854  0.00  0.00    +0.000 A 
ATOM     15  C   UNL     1      -0.035  10.722  22.213  0.00  0.00    +0.000 A 
ATOM     16  C   UNL     1       0.154  10.883  20.830  0.00  0.00    +0.000 A 
ATOM     17  C   UNL     1       0.724   9.838  20.083  0.00  0.00    +0.000 A 
BRANCH  16  18
ATOM     18  C   UNL     1      -0.263  12.190  20.240  0.00  0.00    +0.000 C 
ATOM     19  N   UNL     1      -1.370  12.230  19.440  0.00  0.00    +0.000 N 
ATOM     20  O   UNL     1       0.370  13.218  20.453  0.00  0.00    +0.000 OA
ATOM     21  H   UNL     1      -1.904  11.435  19.131  0.00  0.00    +0.000 HD
ATOM     22  H   UNL     1      -1.585  13.128  19.025  0.00  0.00    +0.000 HD
ENDBRANCH  16  18
ENDBRANCH   9  12
ENDBRANCH   5   8
BRANCH   7  23
ATOM     23  N   UNL     1       5.503   3.669  19.095  0.00  0.00    +0.000 N 
ATOM     24  H   UNL     1       6.062   2.960  19.563  0.00  0.00    +0.000 HD
BRANCH  23  25
ATOM     25  S   UNL     1       6.346   4.952  18.423  0.00  0.00    +0.000 S 
ATOM     26  O   UNL     1       5.547   6.135  18.679  0.00  0.00    +0.000 OA
ATOM     27  O   UNL     1       7.734   4.893  18.827  0.00  0.00    +0.000 OA
BRANCH  25  28
ATOM     28  C   UNL     1       6.259   4.637  16.676  0.00  0.00    +0.000 A 
ATOM     29  C   UNL     1       5.104   4.046  16.144  0.00  0.00    +0.000 A 
ATOM     30  C   UNL     1       5.021   3.807  14.771  0.00  0.00    +0.000 A 
ATOM     31  C   UNL     1       6.080   4.164  13.937  0.00  0.00    +0.000 A 
ATOM     32  C   UNL     1       7.222   4.769  14.468  0.00  0.00    +0.000 A 
ATOM     33  C   UNL     1       7.313   5.016  15.840  0.00  0.00    +0.000 A 
ENDBRANCH  25  28
ENDBRANCH  23  25
ENDBRANCH   7  23
TORSDOF 6
ENDMDL
MODEL 8
REMARK VINA RESULT:      -8.2      2.930      4.759
REMARK  Name = 
REMARK  7 active torsions:
REMARK  status: ('A' for Active; 'I' for Inactive)
REMARK    1  A    between atoms: C_1  and  C_2
REMARK    2  A    between atoms: C_5  and  N_6
REMARK    3  A    between atoms: C_7  and  C_9
REMARK    4  A    between atoms: C_13  and  C_14
REMARK    5  A    between atoms: C_19  and  N_20
REMARK    6  A    between atoms: N_20  and  S_21
REMARK    7  A    between atoms: S_21  and  C_24
REMARK                            x       y       z     vdW  Elec       q    Type
REMARK                         _______ _______ _______ _____ _____    ______ ____
ROOT
ATOM      1  C   UNL     1       4.212   2.314  17.944  0.00  0.00    +0.000 C 
ATOM      2  C   UNL     1       3.697   3.694  18.235  0.00  0.00    +0.000 A 
ATOM      3  C   UNL     1       2.394   4.014  17.840  0.00  0.00    +0.000 A 
ATOM      4  C   UNL     1       1.856   5.282  18.072  0.00  0.00    +0.000 A 
ATOM      5  C   UNL     1       2.601   6.274  18.708  0.00  0.00    +0.000 A 
ATOM      6  C   UNL     1       3.906   5.962  19.110  0.00  0.00    +0.000 A 
ATOM      7  C   UNL     1       4.455   4.687  18.869  0.00  0.00    +0.000 A 
ENDROOT
BRANCH   5   8
ATOM      8  N   UNL     1       2.093   7.573  18.971  0.00  0.00    +0.000 N 
ATOM      9  C   UNL     1       1.499   7.984  20.159  0.00  0.00    +0.000 C 
ATOM     10  O   UNL     1       1.227   7.268  21.117  0.00  0.00    +0.000 OA
ATOM     11  H   UNL     1       2.082   8.217  18.190  0.00  0.00    +0.000 HD
BRANCH   9  12
ATOM     12  C   UNL     1       1.113   9.421  20.260  0.00  0.00    +0.000 A 
ATOM     13  C   UNL     1       0.484   9.840  21.444  0.00  0.00    +0.000 A 
ATOM     14  C   UNL     1       0.134  11.175  21.624  0.00  0.00    +0.000 A 
ATOM     15  C   UNL     1       0.430  12.104  20.629  0.00  0.00    +0.000 A 
ATOM     16  C   UNL     1       1.089  11.711  19.452  0.00  0.00    +0.000 A 
ATOM     17  C   UNL     1       1.427  10.359  19.266  0.00  0.00    +0.000 A 
BRANCH  16  18
ATOM     18  C   UNL     1       1.402  12.784  18.463  0.00  0.00    +0.000 C 
ATOM     19  N   UNL     1       2.428  12.591  17.581  0.00  0.00    +0.000 N 
ATOM     20  O   UNL     1       0.764  13.831  18.433  0.00  0.00    +0.000 OA
ATOM     21  H   UNL     1       3.066  11.813  17.580  0.00  0.00    +0.000 HD
ATOM     22  H   UNL     1       2.632  13.366  16.962  0.00  0.00    +0.000 HD
ENDBRANCH  16  18
ENDBRANCH   9  12
ENDBRANCH   5   8
BRANCH   7  23
ATOM     23  N   UNL     1       5.817   4.464  19.206  0.00  0.00    +0.000 N 
ATOM     24  H   UNL     1       6.063   4.123  20.132  0.00  0.00    +0.000 HD
BRANCH  23  25
ATOM     25  S   UNL     1       7.068   5.116  18.302  0.00  0.00    +0.000 S 
ATOM     26  O   UNL     1       7.136   6.519  18.663  0.00  0.00    +0.000 OA
ATOM     27  O   UNL     1       8.238   4.268  18.399  0.00  0.00    +0.000 OA
BRANCH  25  28
ATOM     28  C   UNL     1       6.460   5.038  16.634  0.00  0.00    +0.000 A 
ATOM     29  C   UNL     1       6.716   3.894  15.865  0.00  0.00    +0.000 A 
ATOM     30  C   UNL     1       6.231   3.818  14.558  0.00  0.00    +0.000 A 
ATOM     31  C   UNL     1       5.489   4.873  14.028  0.00  0.00    +0.000 A 
ATOM     32  C   UNL     1       5.220   6.004  14.804  0.00  0.00    +0.000 A 
ATOM     33  C   UNL     1       5.697   6.088  16.114  0.00  0.00    +0.000 A 
ENDBRANCH  25  28
ENDBRANCH  23  25
ENDBRANCH   7  23
TORSDOF 6
ENDMDL
MODEL 9
REMARK VINA RESULT:      -8.2      2.840      4.582
REMARK  Name = 
REMARK  7 active torsions:
REMARK  status: ('A' for Active; 'I' for Inactive)
REMARK    1  A    between atoms: C_1  and  C_2
REMARK    2  A    between atoms: C_5  and  N_6
REMARK    3  A    between atoms: C_7  and  C_9
REMARK    4  A    between atoms: C_13  and  C_14
REMARK    5  A    between atoms: C_19  and  N_20
REMARK    6  A    between atoms: N_20  and  S_21
REMARK    7  A    between atoms: S_21  and  C_24
REMARK                            x       y       z     vdW  Elec       q    Type
REMARK                         _______ _______ _______ _____ _____    ______ ____
ROOT
ATOM      1  C   UNL     1       4.122   2.088  17.803  0.00  0.00    +0.000 C 
ATOM      2  C   UNL     1       3.658   3.431  18.287  0.00  0.00    +0.000 A 
ATOM      3  C   UNL     1       2.332   3.803  18.043  0.00  0.00    +0.000 A 
ATOM      4  C   UNL     1       1.838   5.042  18.458  0.00  0.00    +0.000 A 
ATOM      5  C   UNL     1       2.652   5.951  19.132  0.00  0.00    +0.000 A 
ATOM      6  C   UNL     1       3.981   5.586  19.384  0.00  0.00    +0.000 A 
ATOM      7  C   UNL     1       4.484   4.341  18.959  0.00  0.00    +0.000 A 
ENDROOT
BRANCH   5   8
ATOM      8  N   UNL     1       2.191   7.218  19.579  0.00  0.00    +0.000 N 
ATOM      9  C   UNL     1       1.838   8.285  18.760  0.00  0.00    +0.000 C 
ATOM     10  O   UNL     1       1.968   8.336  17.542  0.00  0.00    +0.000 OA
ATOM     11  H   UNL     1       2.216   7.377  20.578  0.00  0.00    +0.000 HD
BRANCH   9  12
ATOM     12  C   UNL     1       1.293   9.500  19.431  0.00  0.00    +0.000 A 
ATOM     13  C   UNL     1       0.957   9.393  20.790  0.00  0.00    +0.000 A 
ATOM     14  C   UNL     1       0.482  10.498  21.490  0.00  0.00    +0.000 A 
ATOM     15  C   UNL     1       0.359  11.724  20.840  0.00  0.00    +0.000 A 
ATOM     16  C   UNL     1       0.721  11.860  19.489  0.00  0.00    +0.000 A 
ATOM     17  C   UNL     1       1.186  10.738  18.780  0.00  0.00    +0.000 A 
BRANCH  16  18
ATOM     18  C   UNL     1       0.596  13.221  18.890  0.00  0.00    +0.000 C 
ATOM     19  N   UNL     1       1.598  14.127  19.094  0.00  0.00    +0.000 N 
ATOM     20  O   UNL     1      -0.387  13.541  18.229  0.00  0.00    +0.000 OA
ATOM     21  H   UNL     1       2.398  13.997  19.691  0.00  0.00    +0.000 HD
ATOM     22  H   UNL     1       1.446  15.051  18.709  0.00  0.00    +0.000 HD
ENDBRANCH  16  18
ENDBRANCH   9  12
ENDBRANCH   5   8
BRANCH   7  23
ATOM     23  N   UNL     1       5.865   4.071  19.152  0.00  0.00    +0.000 N 
ATOM     24  H   UNL     1       6.176   3.572  19.982  0.00  0.00    +0.000 HD
BRANCH  23  25
ATOM     25  S   UNL     1       7.052   4.882  18.291  0.00  0.00    +0.000 S 
ATOM     26  O   UNL     1       7.037   6.249  18.775  0.00  0.00    +0.000 OA
ATOM     27  O   UNL     1       8.276   4.109  18.293  0.00  0.00    +0.000 OA
BRANCH  25  28
ATOM     28  C   UNL     1       6.415   4.912  16.632  0.00  0.00    +0.000 A 
ATOM     29  C   UNL     1       5.718   6.045  16.188  0.00  0.00    +0.000 A 
ATOM     30  C   UNL     1       5.225   6.084  14.882  0.00  0.00    +0.000 A 
ATOM     31  C   UNL     1       5.435   5.004  14.026  0.00  0.00    +0.000 A 
ATOM     32  C   UNL     1       6.146   3.884  14.466  0.00  0.00    +0.000 A 
ATOM     33  C   UNL     1       6.647   3.838  15.769  0.00  0.00    +0.000 A 
ENDBRANCH  25  28
ENDBRANCH  23  25
ENDBRANCH   7  23
TORSDOF 6
ENDMDL
