MODEL 1
REMARK VINA RESULT:      -8.6      0.000      0.000
REMARK  Name = 
REMARK  2 active torsions:
REMARK  status: ('A' for Active; 'I' for Inactive)
REMARK    1  A    between atoms: C_7  and  S_8
REMARK    2  A    between atoms: S_8  and  N_11
REMARK                            x       y       z     vdW  Elec       q    Type
REMARK                         _______ _______ _______ _____ _____    ______ ____
ROOT
ATOM      1  S   UNL     1       3.192   3.411  17.710  0.00  0.00    +0.000 S 
ATOM      2  O   UNL     1       3.603   2.473  18.734  0.00  0.00    +0.000 OA
ATOM      3  O   UNL     1       2.200   3.054  16.716  0.00  0.00    +0.000 OA
ENDROOT
BRANCH   1   4
ATOM      4  N   UNL     1       4.611   3.947  16.901  0.00  0.00    +0.000 N 
ATOM      5  C   UNL     1       4.399   4.852  15.715  0.00  0.00    +0.000 C 
ATOM      6  C   UNL     1       5.351   4.485  14.573  0.00  0.00    +0.000 C 
ATOM      7  C   UNL     1       6.804   4.658  14.979  0.00  0.00    +0.000 C 
ATOM      8  O   UNL     1       7.520   5.541  14.522  0.00  0.00    +0.000 OA
ATOM      9  N   UNL     1       7.202   3.770  15.980  0.00  0.00    +0.000 N 
ATOM     10  C   UNL     1       7.011   4.320  17.279  0.00  0.00    +0.000 A 
ATOM     11  C   UNL     1       8.102   4.814  17.988  0.00  0.00    +0.000 A 
ATOM     12  C   UNL     1       7.870   5.439  19.205  0.00  0.00    +0.000 A 
ATOM     13  F   UNL     1       8.904   5.910  19.914  0.00  0.00    +0.000 F 
ATOM     14  C   UNL     1       6.575   5.611  19.688  0.00  0.00    +0.000 A 
ATOM     15  C   UNL     1       5.482   5.118  18.966  0.00  0.00    +0.000 A 
ATOM     16  C   UNL     1       5.692   4.410  17.779  0.00  0.00    +0.000 A 
ATOM     17  H   UNL     1       6.597   2.954  15.919  0.00  0.00    +0.000 HD
ENDBRANCH   1   4
BRANCH   1  24
ATOM     18  O   UNL     1       0.908  10.556  20.608  0.00  0.00    +0.000 OA
ATOM     19  C   UNL     1       1.191   9.558  19.947  0.00  0.00    +0.000 C 
ATOM     20  C   UNL     1       1.152   9.546  18.437  0.00  0.00    +0.000 C 
ATOM     21  C   UNL     1       2.199   8.610  17.854  0.00  0.00    +0.000 C 
ATOM     22  C   UNL     1       2.135   7.258  18.514  0.00  0.00    +0.000 A 
ATOM     23  C   UNL     1       2.520   6.093  17.835  0.00  0.00    +0.000 A 
ATOM     24  C   UNL     1       2.562   4.871  18.521  0.00  0.00    +0.000 A 
ATOM     25  C   UNL     1       2.255   4.811  19.885  0.00  0.00    +0.000 A 
ATOM     26  C   UNL     1       1.880   5.978  20.563  0.00  0.00    +0.000 A 
ATOM     27  C   UNL     1       1.810   7.189  19.875  0.00  0.00    +0.000 A 
ATOM     28  N   UNL     1       1.446   8.355  20.557  0.00  0.00    +0.000 N 
ATOM     29  H   UNL     1       1.348   8.351  21.564  0.00  0.00    +0.000 HD
ENDBRANCH   1  24
TORSDOF 2
ENDMDL
MODEL 2
REMARK VINA RESULT:      -8.5      4.765      9.490
REMARK  Name = 
REMARK  2 active torsions:
REMARK  status: ('A' for Active; 'I' for Inactive)
REMARK    1  A    between atoms: C_7  and  S_8
REMARK    2  A    between atoms: S_8  and  N_11
REMARK                            x       y       z     vdW  Elec       q    Type
REMARK                         _______ _______ _______ _____ _____    ______ ____
ROOT
ATOM      1  S   UNL     1       1.070  11.664  19.583  0.00  0.00    +0.000 S 
ATOM      2  O   UNL     1       1.472  11.909  20.953  0.00  0.00    +0.000 OA
ATOM      3  O   UNL     1       1.610  12.445  18.489  0.00  0.00    +0.000 OA
ENDROOT
BRANCH   1   4
ATOM      4  N   UNL     1      -0.646  11.752  19.525  0.00  0.00    +0.000 N 
ATOM      5  C   UNL     1      -1.333  10.755  18.628  0.00  0.00    +0.000 C 
ATOM      6  C   UNL     1      -2.485  11.414  17.863  0.00  0.00    +0.000 C 
ATOM      7  C   UNL     1      -3.554  11.939  18.805  0.00  0.00    +0.000 C 
ATOM      8  O   UNL     1      -4.667  11.432  18.894  0.00  0.00    +0.000 OA
ATOM      9  N   UNL     1      -3.108  12.988  19.609  0.00  0.00    +0.000 N 
ATOM     10  C   UNL     1      -2.575  12.517  20.843  0.00  0.00    +0.000 A 
ATOM     11  C   UNL     1      -3.332  12.619  22.006  0.00  0.00    +0.000 A 
ATOM     12  C   UNL     1      -2.830  12.056  23.171  0.00  0.00    +0.000 A 
ATOM     13  F   UNL     1      -3.532  12.153  24.307  0.00  0.00    +0.000 F 
ATOM     14  C   UNL     1      -1.620  11.366  23.172  0.00  0.00    +0.000 A 
ATOM     15  C   UNL     1      -0.868  11.261  21.995  0.00  0.00    +0.000 A 
ATOM     16  C   UNL     1      -1.309  11.891  20.827  0.00  0.00    +0.000 A 
ATOM     17  H   UNL     1      -2.342  13.442  19.117  0.00  0.00    +0.000 HD
ENDBRANCH   1   4
BRANCH   1  24
ATOM     18  O   UNL     1       2.875   3.857  18.917  0.00  0.00    +0.000 OA
ATOM     19  C   UNL     1       2.444   4.975  19.194  0.00  0.00    +0.000 C 
ATOM     20  C   UNL     1       1.516   5.221  20.361  0.00  0.00    +0.000 C 
ATOM     21  C   UNL     1       1.729   6.598  20.970  0.00  0.00    +0.000 C 
ATOM     22  C   UNL     1       1.726   7.661  19.904  0.00  0.00    +0.000 A 
ATOM     23  C   UNL     1       1.318   8.974  20.181  0.00  0.00    +0.000 A 
ATOM     24  C   UNL     1       1.443   9.963  19.195  0.00  0.00    +0.000 A 
ATOM     25  C   UNL     1       2.003   9.657  17.949  0.00  0.00    +0.000 A 
ATOM     26  C   UNL     1       2.417   8.347  17.679  0.00  0.00    +0.000 A 
ATOM     27  C   UNL     1       2.266   7.356  18.648  0.00  0.00    +0.000 A 
ATOM     28  N   UNL     1       2.691   6.051  18.379  0.00  0.00    +0.000 N 
ATOM     29  H   UNL     1       3.212   5.844  17.536  0.00  0.00    +0.000 HD
ENDBRANCH   1  24
TORSDOF 2
ENDMDL
MODEL 3
REMARK VINA RESULT:      -8.4      4.128      8.462
REMARK  Name = 
REMARK  2 active torsions:
REMARK  status: ('A' for Active; 'I' for Inactive)
REMARK    1  A    between atoms: C_7  and  S_8
REMARK    2  A    between atoms: S_8  and  N_11
REMARK                            x       y       z     vdW  Elec       q    Type
REMARK                         _______ _______ _______ _____ _____    ______ ____
ROOT
ATOM      1  S   UNL     1       0.491   8.849  21.775  0.00  0.00    +0.000 S 
ATOM      2  O   UNL     1      -0.786   8.245  22.099  0.00  0.00    +0.000 OA
ATOM      3  O   UNL     1       1.406   9.277  22.813  0.00  0.00    +0.000 OA
ENDROOT
BRANCH   1   4
ATOM      4  N   UNL     1       0.183  10.180  20.732  0.00  0.00    +0.000 N 
ATOM      5  C   UNL     1      -0.731   9.914  19.565  0.00  0.00    +0.000 C 
ATOM      6  C   UNL     1      -0.213  10.602  18.299  0.00  0.00    +0.000 C 
ATOM      7  C   UNL     1      -0.168  12.111  18.461  0.00  0.00    +0.000 C 
ATOM      8  O   UNL     1      -0.929  12.865  17.865  0.00  0.00    +0.000 OA
ATOM      9  N   UNL     1       0.760  12.531  19.415  0.00  0.00    +0.000 N 
ATOM     10  C   UNL     1       0.173  12.639  20.709  0.00  0.00    +0.000 A 
ATOM     11  C   UNL     1      -0.156  13.891  21.216  0.00  0.00    +0.000 A 
ATOM     12  C   UNL     1      -0.822  13.956  22.433  0.00  0.00    +0.000 A 
ATOM     13  F   UNL     1      -1.138  15.150  22.950  0.00  0.00    +0.000 F 
ATOM     14  C   UNL     1      -1.192  12.797  23.110  0.00  0.00    +0.000 A 
ATOM     15  C   UNL     1      -0.863  11.540  22.589  0.00  0.00    +0.000 A 
ATOM     16  C   UNL     1      -0.119  11.447  21.409  0.00  0.00    +0.000 A 
ATOM     17  H   UNL     1       1.475  11.811  19.480  0.00  0.00    +0.000 HD
ENDBRANCH   1   4
BRANCH   1  24
ATOM     18  O   UNL     1       4.541   4.398  16.442  0.00  0.00    +0.000 OA
ATOM     19  C   UNL     1       4.074   5.259  17.186  0.00  0.00    +0.000 C 
ATOM     20  C   UNL     1       4.496   6.708  17.117  0.00  0.00    +0.000 C 
ATOM     21  C   UNL     1       3.358   7.644  17.490  0.00  0.00    +0.000 C 
ATOM     22  C   UNL     1       2.715   7.218  18.784  0.00  0.00    +0.000 A 
ATOM     23  C   UNL     1       2.097   8.145  19.635  0.00  0.00    +0.000 A 
ATOM     24  C   UNL     1       1.406   7.694  20.768  0.00  0.00    +0.000 A 
ATOM     25  C   UNL     1       1.299   6.325  21.037  0.00  0.00    +0.000 A 
ATOM     26  C   UNL     1       1.909   5.401  20.180  0.00  0.00    +0.000 A 
ATOM     27  C   UNL     1       2.622   5.849  19.068  0.00  0.00    +0.000 A 
ATOM     28  N   UNL     1       3.221   4.923  18.208  0.00  0.00    +0.000 N 
ATOM     29  H   UNL     1       3.045   3.932  18.316  0.00  0.00    +0.000 HD
ENDBRANCH   1  24
TORSDOF 2
ENDMDL
MODEL 4
REMARK VINA RESULT:      -8.4      4.220      8.699
REMARK  Name = 
REMARK  2 active torsions:
REMARK  status: ('A' for Active; 'I' for Inactive)
REMARK    1  A    between atoms: C_7  and  S_8
REMARK    2  A    between atoms: S_8  and  N_11
REMARK                            x       y       z     vdW  Elec       q    Type
REMARK                         _______ _______ _______ _____ _____    ______ ____
ROOT
ATOM      1  S   UNL     1       0.555   8.902  21.741  0.00  0.00    +0.000 S 
ATOM      2  O   UNL     1      -0.718   8.361  22.172  0.00  0.00    +0.000 OA
ATOM      3  O   UNL     1       1.583   9.261  22.696  0.00  0.00    +0.000 OA
ENDROOT
BRANCH   1   4
ATOM      4  N   UNL     1       0.227  10.268  20.750  0.00  0.00    +0.000 N 
ATOM      5  C   UNL     1      -0.672  10.029  19.565  0.00  0.00    +0.000 C 
ATOM      6  C   UNL     1      -0.158  10.780  18.332  0.00  0.00    +0.000 C 
ATOM      7  C   UNL     1      -0.149  12.282  18.556  0.00  0.00    +0.000 C 
ATOM      8  O   UNL     1      -0.922  13.043  17.985  0.00  0.00    +0.000 OA
ATOM      9  N   UNL     1       0.761  12.683  19.535  0.00  0.00    +0.000 N 
ATOM     10  C   UNL     1       0.161  12.725  20.827  0.00  0.00    +0.000 A 
ATOM     11  C   UNL     1      -0.201  13.947  21.382  0.00  0.00    +0.000 A 
ATOM     12  C   UNL     1      -0.878  13.948  22.593  0.00  0.00    +0.000 A 
ATOM     13  F   UNL     1      -1.226  15.112  23.156  0.00  0.00    +0.000 F 
ATOM     14  C   UNL     1      -1.228  12.754  23.220  0.00  0.00    +0.000 A 
ATOM     15  C   UNL     1      -0.866  11.527  22.651  0.00  0.00    +0.000 A 
ATOM     16  C   UNL     1      -0.110  11.499  21.475  0.00  0.00    +0.000 A 
ATOM     17  H   UNL     1       1.492  11.978  19.578  0.00  0.00    +0.000 HD
ENDBRANCH   1   4
BRANCH   1  24
ATOM     18  O   UNL     1       4.048   2.930  17.645  0.00  0.00    +0.000 OA
ATOM     19  C   UNL     1       3.370   3.664  18.361  0.00  0.00    +0.000 C 
ATOM     20  C   UNL     1       2.352   3.129  19.341  0.00  0.00    +0.000 C 
ATOM     21  C   UNL     1       2.230   4.019  20.568  0.00  0.00    +0.000 C 
ATOM     22  C   UNL     1       2.049   5.459  20.169  0.00  0.00    +0.000 A 
ATOM     23  C   UNL     1       1.352   6.363  20.984  0.00  0.00    +0.000 A 
ATOM     24  C   UNL     1       1.310   7.721  20.637  0.00  0.00    +0.000 A 
ATOM     25  C   UNL     1       1.986   8.186  19.503  0.00  0.00    +0.000 A 
ATOM     26  C   UNL     1       2.688   7.283  18.696  0.00  0.00    +0.000 A 
ATOM     27  C   UNL     1       2.707   5.927  19.023  0.00  0.00    +0.000 A 
ATOM     28  N   UNL     1       3.420   5.029  18.222  0.00  0.00    +0.000 N 
ATOM     29  H   UNL     1       4.016   5.366  17.477  0.00  0.00    +0.000 HD
ENDBRANCH   1  24
TORSDOF 2
ENDMDL
MODEL 5
REMARK VINA RESULT:      -8.2      5.606     10.338
REMARK  Name = 
REMARK  2 active torsions:
REMARK  status: ('A' for Active; 'I' for Inactive)
REMARK    1  A    between atoms: C_7  and  S_8
REMARK    2  A    between atoms: S_8  and  N_11
REMARK                            x       y       z     vdW  Elec       q    Type
REMARK                         _______ _______ _______ _____ _____    ______ ____
ROOT
ATOM      1  S   UNL     1      -0.190  12.765  19.655  0.00  0.00    +0.000 S 
ATOM      2  O   UNL     1       0.011  13.536  20.865  0.00  0.00    +0.000 OA
ATOM      3  O   UNL     1       0.290  13.237  18.373  0.00  0.00    +0.000 OA
ENDROOT
BRANCH   1   4
ATOM      4  N   UNL     1      -1.873  12.438  19.525  0.00  0.00    +0.000 N 
ATOM      5  C   UNL     1      -2.252  11.187  18.776  0.00  0.00    +0.000 C 
ATOM      6  C   UNL     1      -3.466  11.437  17.876  0.00  0.00    +0.000 C 
ATOM      7  C   UNL     1      -4.690  11.829  18.685  0.00  0.00    +0.000 C 
ATOM      8  O   UNL     1      -5.662  11.094  18.815  0.00  0.00    +0.000 OA
ATOM      9  N   UNL     1      -4.550  13.061  19.326  0.00  0.00    +0.000 N 
ATOM     10  C   UNL     1      -4.013  12.914  20.638  0.00  0.00    +0.000 A 
ATOM     11  C   UNL     1      -4.853  13.005  21.743  0.00  0.00    +0.000 A 
ATOM     12  C   UNL     1      -4.320  12.753  22.999  0.00  0.00    +0.000 A 
ATOM     13  F   UNL     1      -5.104  12.849  24.081  0.00  0.00    +0.000 F 
ATOM     14  C   UNL     1      -2.989  12.374  23.151  0.00  0.00    +0.000 A 
ATOM     15  C   UNL     1      -2.151  12.277  22.033  0.00  0.00    +0.000 A 
ATOM     16  C   UNL     1      -2.640  12.607  20.765  0.00  0.00    +0.000 A 
ATOM     17  H   UNL     1      -3.874  13.604  18.796  0.00  0.00    +0.000 HD
ENDBRANCH   1   4
BRANCH   1  24
ATOM     18  O   UNL     1       2.981   5.375  19.663  0.00  0.00    +0.000 OA
ATOM     19  C   UNL     1       2.633   6.537  19.460  0.00  0.00    +0.000 C 
ATOM     20  C   UNL     1       3.030   7.298  18.216  0.00  0.00    +0.000 C 
ATOM     21  C   UNL     1       1.960   8.296  17.801  0.00  0.00    +0.000 C 
ATOM     22  C   UNL     1       1.536   9.144  18.971  0.00  0.00    +0.000 A 
ATOM     23  C   UNL     1       1.057  10.450  18.793  0.00  0.00    +0.000 A 
ATOM     24  C   UNL     1       0.559  11.162  19.893  0.00  0.00    +0.000 A 
ATOM     25  C   UNL     1       0.505  10.568  21.159  0.00  0.00    +0.000 A 
ATOM     26  C   UNL     1       0.975   9.261  21.332  0.00  0.00    +0.000 A 
ATOM     27  C   UNL     1       1.498   8.561  20.245  0.00  0.00    +0.000 A 
ATOM     28  N   UNL     1       1.957   7.251  20.418  0.00  0.00    +0.000 N 
ATOM     29  H   UNL     1       1.807   6.765  21.293  0.00  0.00    +0.000 HD
ENDBRANCH   1  24
TORSDOF 2
ENDMDL
MODEL 6
REMARK VINA RESULT:      -8.1      4.981      9.547
REMARK  Name = 
REMARK  2 active torsions:
REMARK  status: ('A' for Active; 'I' for Inactive)
REMARK    1  A    between atoms: C_7  and  S_8
REMARK    2  A    between atoms: S_8  and  N_11
REMARK                            x       y       z     vdW  Elec       q    Type
REMARK                         _______ _______ _______ _____ _____    ______ ____
ROOT
ATOM      1  S   UNL     1       0.680  11.680  19.443  0.00  0.00    +0.000 S 
ATOM      2  O   UNL     1       0.857  12.510  20.617  0.00  0.00    +0.000 OA
ATOM      3  O   UNL     1       1.334  11.998  18.191  0.00  0.00    +0.000 OA
ENDROOT
BRANCH   1   4
ATOM      4  N   UNL     1      -1.010  11.541  19.159  0.00  0.00    +0.000 N 
ATOM      5  C   UNL     1      -1.476  10.248  18.543  0.00  0.00    +0.000 C 
ATOM      6  C   UNL     1      -2.549  10.507  17.481  0.00  0.00    +0.000 C 
ATOM      7  C   UNL     1      -3.784  11.156  18.080  0.00  0.00    +0.000 C 
ATOM      8  O   UNL     1      -4.855  10.569  18.191  0.00  0.00    +0.000 OA
ATOM      9  N   UNL     1      -3.545  12.442  18.565  0.00  0.00    +0.000 N 
ATOM     10  C   UNL     1      -3.167  12.426  19.938  0.00  0.00    +0.000 A 
ATOM     11  C   UNL     1      -4.093  12.778  20.915  0.00  0.00    +0.000 A 
ATOM     12  C   UNL     1      -3.728  12.651  22.248  0.00  0.00    +0.000 A 
ATOM     13  F   UNL     1      -4.596  12.997  23.207  0.00  0.00    +0.000 F 
ATOM     14  C   UNL     1      -2.482  12.142  22.605  0.00  0.00    +0.000 A 
ATOM     15  C   UNL     1      -1.557  11.783  21.616  0.00  0.00    +0.000 A 
ATOM     16  C   UNL     1      -1.867  11.980  20.267  0.00  0.00    +0.000 A 
ATOM     17  H   UNL     1      -2.752  12.818  18.051  0.00  0.00    +0.000 HD
ENDBRANCH   1   4
BRANCH   1  24
ATOM     18  O   UNL     1       2.977   4.015  20.228  0.00  0.00    +0.000 OA
ATOM     19  C   UNL     1       2.795   5.193  19.930  0.00  0.00    +0.000 C 
ATOM     20  C   UNL     1       3.461   5.841  18.738  0.00  0.00    +0.000 C 
ATOM     21  C   UNL     1       2.585   6.920  18.122  0.00  0.00    +0.000 C 
ATOM     22  C   UNL     1       2.081   7.869  19.177  0.00  0.00    +0.000 A 
ATOM     23  C   UNL     1       1.782   9.206  18.877  0.00  0.00    +0.000 A 
ATOM     24  C   UNL     1       1.202  10.024  19.856  0.00  0.00    +0.000 A 
ATOM     25  C   UNL     1       0.887   9.508  21.118  0.00  0.00    +0.000 A 
ATOM     26  C   UNL     1       1.178   8.170  21.412  0.00  0.00    +0.000 A 
ATOM     27  C   UNL     1       1.783   7.362  20.449  0.00  0.00    +0.000 A 
ATOM     28  N   UNL     1       2.062   6.023  20.741  0.00  0.00    +0.000 N 
ATOM     29  H   UNL     1       1.725   5.604  21.598  0.00  0.00    +0.000 HD
ENDBRANCH   1  24
TORSDOF 2
ENDMDL
MODEL 7
REMARK VINA RESULT:      -8.0      4.666      9.261
REMARK  Name = 
REMARK  2 active torsions:
REMARK  status: ('A' for Active; 'I' for Inactive)
REMARK    1  A    between atoms: C_7  and  S_8
REMARK    2  A    between atoms: S_8  and  N_11
REMARK                            x       y       z     vdW  Elec       q    Type
REMARK                         _______ _______ _______ _____ _____    ______ ____
ROOT
ATOM      1  S   UNL     1       0.479   9.719  21.064  0.00  0.00    +0.000 S 
ATOM      2  O   UNL     1      -0.257   8.848  21.958  0.00  0.00    +0.000 OA
ATOM      3  O   UNL     1       1.447  10.671  21.567  0.00  0.00    +0.000 OA
ENDROOT
BRANCH   1   4
ATOM      4  N   UNL     1      -0.669  10.561  20.101  0.00  0.00    +0.000 N 
ATOM      5  C   UNL     1      -1.626   9.708  19.309  0.00  0.00    +0.000 C 
ATOM      6  C   UNL     1      -1.837  10.285  17.906  0.00  0.00    +0.000 C 
ATOM      7  C   UNL     1      -2.454  11.672  17.958  0.00  0.00    +0.000 C 
ATOM      8  O   UNL     1      -3.603  11.900  17.598  0.00  0.00    +0.000 OA
ATOM      9  N   UNL     1      -1.612  12.623  18.535  0.00  0.00    +0.000 N 
ATOM     10  C   UNL     1      -1.820  12.727  19.941  0.00  0.00    +0.000 A 
ATOM     11  C   UNL     1      -2.545  13.797  20.455  0.00  0.00    +0.000 A 
ATOM     12  C   UNL     1      -2.821  13.815  21.815  0.00  0.00    +0.000 A 
ATOM     13  F   UNL     1      -3.505  14.841  22.337  0.00  0.00    +0.000 F 
ATOM     14  C   UNL     1      -2.422  12.768  22.641  0.00  0.00    +0.000 A 
ATOM     15  C   UNL     1      -1.698  11.691  22.115  0.00  0.00    +0.000 A 
ATOM     16  C   UNL     1      -1.334  11.688  20.765  0.00  0.00    +0.000 A 
ATOM     17  H   UNL     1      -0.656  12.301  18.407  0.00  0.00    +0.000 HD
ENDBRANCH   1   4
BRANCH   1  24
ATOM     18  O   UNL     1       4.857   4.560  16.718  0.00  0.00    +0.000 OA
ATOM     19  C   UNL     1       4.109   5.146  17.499  0.00  0.00    +0.000 C 
ATOM     20  C   UNL     1       3.406   4.440  18.635  0.00  0.00    +0.000 C 
ATOM     21  C   UNL     1       3.215   5.356  19.834  0.00  0.00    +0.000 C 
ATOM     22  C   UNL     1       2.610   6.669  19.414  0.00  0.00    +0.000 A 
ATOM     23  C   UNL     1       1.812   7.420  20.289  0.00  0.00    +0.000 A 
ATOM     24  C   UNL     1       1.368   8.693  19.904  0.00  0.00    +0.000 A 
ATOM     25  C   UNL     1       1.742   9.232  18.668  0.00  0.00    +0.000 A 
ATOM     26  C   UNL     1       2.546   8.483  17.800  0.00  0.00    +0.000 A 
ATOM     27  C   UNL     1       2.965   7.205  18.169  0.00  0.00    +0.000 A 
ATOM     28  N   UNL     1       3.778   6.464  17.305  0.00  0.00    +0.000 N 
ATOM     29  H   UNL     1       4.160   6.888  16.470  0.00  0.00    +0.000 HD
ENDBRANCH   1  24
TORSDOF 2
ENDMDL
MODEL 8
REMARK VINA RESULT:      -7.9      5.347     10.178
REMARK  Name = 
REMARK  2 active torsions:
REMARK  status: ('A' for Active; 'I' for Inactive)
REMARK    1  A    between atoms: C_7  and  S_8
REMARK    2  A    between atoms: S_8  and  N_11
REMARK                            x       y       z     vdW  Elec       q    Type
REMARK                         _______ _______ _______ _____ _____    ______ ____
ROOT
ATOM      1  S   UNL     1       0.054  12.591  19.453  0.00  0.00    +0.000 S 
ATOM      2  O   UNL     1       0.498  13.058  20.751  0.00  0.00    +0.000 OA
ATOM      3  O   UNL     1       0.369  13.321  18.242  0.00  0.00    +0.000 OA
ENDROOT
BRANCH   1   4
ATOM      4  N   UNL     1      -1.650  12.376  19.537  0.00  0.00    +0.000 N 
ATOM      5  C   UNL     1      -2.221  11.259  18.703  0.00  0.00    +0.000 C 
ATOM      6  C   UNL     1      -3.529  11.693  18.035  0.00  0.00    +0.000 C 
ATOM      7  C   UNL     1      -4.594  12.038  19.061  0.00  0.00    +0.000 C 
ATOM      8  O   UNL     1      -5.589  11.346  19.242  0.00  0.00    +0.000 OA
ATOM      9  N   UNL     1      -4.275  13.163  19.823  0.00  0.00    +0.000 N 
ATOM     10  C   UNL     1      -3.569  12.812  21.010  0.00  0.00    +0.000 A 
ATOM     11  C   UNL     1      -4.235  12.799  22.231  0.00  0.00    +0.000 A 
ATOM     12  C   UNL     1      -3.549  12.352  23.352  0.00  0.00    +0.000 A 
ATOM     13  F   UNL     1      -4.162  12.344  24.542  0.00  0.00    +0.000 F 
ATOM     14  C   UNL     1      -2.241  11.885  23.253  0.00  0.00    +0.000 A 
ATOM     15  C   UNL     1      -1.580  11.894  22.019  0.00  0.00    +0.000 A 
ATOM     16  C   UNL     1      -2.218  12.418  20.890  0.00  0.00    +0.000 A 
ATOM     17  H   UNL     1      -3.643  13.736  19.269  0.00  0.00    +0.000 HD
ENDBRANCH   1   4
BRANCH   1  24
ATOM     18  O   UNL     1       3.064   5.135  19.447  0.00  0.00    +0.000 OA
ATOM     19  C   UNL     1       2.455   6.188  19.624  0.00  0.00    +0.000 C 
ATOM     20  C   UNL     1       1.452   6.369  20.739  0.00  0.00    +0.000 C 
ATOM     21  C   UNL     1       1.426   7.802  21.246  0.00  0.00    +0.000 C 
ATOM     22  C   UNL     1       1.303   8.773  20.102  0.00  0.00    +0.000 A 
ATOM     23  C   UNL     1       0.688  10.023  20.265  0.00  0.00    +0.000 A 
ATOM     24  C   UNL     1       0.701  10.945  19.210  0.00  0.00    +0.000 A 
ATOM     25  C   UNL     1       1.353  10.643  18.009  0.00  0.00    +0.000 A 
ATOM     26  C   UNL     1       1.974   9.398  17.852  0.00  0.00    +0.000 A 
ATOM     27  C   UNL     1       1.937   8.467  18.890  0.00  0.00    +0.000 A 
ATOM     28  N   UNL     1       2.568   7.228  18.735  0.00  0.00    +0.000 N 
ATOM     29  H   UNL     1       3.150   7.046  17.927  0.00  0.00    +0.000 HD
ENDBRANCH   1  24
TORSDOF 2
ENDMDL
MODEL 9
REMARK VINA RESULT:      -7.8      2.193      3.463
REMARK  Name = 
REMARK  2 active torsions:
REMARK  status: ('A' for Active; 'I' for Inactive)
REMARK    1  A    between atoms: C_7  and  S_8
REMARK    2  A    between atoms: S_8  and  N_11
REMARK                            x       y       z     vdW  Elec       q    Type
REMARK                         _______ _______ _______ _____ _____    ______ ____
ROOT
ATOM      1  S   UNL     1       2.901   5.135  18.629  0.00  0.00    +0.000 S 
ATOM      2  O   UNL     1       2.652   4.448  19.880  0.00  0.00    +0.000 OA
ATOM      3  O   UNL     1       2.275   4.705  17.396  0.00  0.00    +0.000 OA
ENDROOT
BRANCH   1   4
ATOM      4  N   UNL     1       4.604   5.178  18.394  0.00  0.00    +0.000 N 
ATOM      5  C   UNL     1       5.436   4.462  19.426  0.00  0.00    +0.000 C 
ATOM      6  C   UNL     1       6.685   5.276  19.777  0.00  0.00    +0.000 C 
ATOM      7  C   UNL     1       7.586   5.468  18.570  0.00  0.00    +0.000 C 
ATOM      8  O   UNL     1       8.677   4.920  18.463  0.00  0.00    +0.000 OA
ATOM      9  N   UNL     1       7.004   6.252  17.573  0.00  0.00    +0.000 N 
ATOM     10  C   UNL     1       6.291   5.460  16.628  0.00  0.00    +0.000 A 
ATOM     11  C   UNL     1       6.853   5.194  15.385  0.00  0.00    +0.000 A 
ATOM     12  C   UNL     1       6.182   4.333  14.527  0.00  0.00    +0.000 A 
ATOM     13  F   UNL     1       6.695   4.072  13.318  0.00  0.00    +0.000 F 
ATOM     14  C   UNL     1       4.996   3.714  14.915  0.00  0.00    +0.000 A 
ATOM     15  C   UNL     1       4.440   3.982  16.172  0.00  0.00    +0.000 A 
ATOM     16  C   UNL     1       5.051   4.909  17.022  0.00  0.00    +0.000 A 
ATOM     17  H   UNL     1       6.319   6.855  18.022  0.00  0.00    +0.000 HD
ENDBRANCH   1   4
BRANCH   1  24
ATOM     18  O   UNL     1       0.103  12.479  20.329  0.00  0.00    +0.000 OA
ATOM     19  C   UNL     1       0.549  11.333  20.314  0.00  0.00    +0.000 C 
ATOM     20  C   UNL     1       0.744  10.521  21.573  0.00  0.00    +0.000 C 
ATOM     21  C   UNL     1       0.540   9.035  21.321  0.00  0.00    +0.000 C 
ATOM     22  C   UNL     1       1.336   8.580  20.127  0.00  0.00    +0.000 A 
ATOM     23  C   UNL     1       1.804   7.262  20.018  0.00  0.00    +0.000 A 
ATOM     24  C   UNL     1       2.436   6.845  18.838  0.00  0.00    +0.000 A 
ATOM     25  C   UNL     1       2.572   7.723  17.757  0.00  0.00    +0.000 A 
ATOM     26  C   UNL     1       2.096   9.035  17.865  0.00  0.00    +0.000 A 
ATOM     27  C   UNL     1       1.493   9.461  19.049  0.00  0.00    +0.000 A 
ATOM     28  N   UNL     1       1.008  10.769  19.150  0.00  0.00    +0.000 N 
ATOM     29  H   UNL     1       0.984  11.372  18.338  0.00  0.00    +0.000 HD
ENDBRANCH   1  24
TORSDOF 2
ENDMDL
