MODEL 1
REMARK VINA RESULT:      -7.6      0.000      0.000
REMARK  Name = 
REMARK  10 active torsions:
REMARK  status: ('A' for Active; 'I' for Inactive)
REMARK    1  A    between atoms: C_1  and  N_2
REMARK    2  A    between atoms: C_6  and  C_7
REMARK    3  A    between atoms: C_7  and  C_8
REMARK    4  A    between atoms: C_8  and  C_9
REMARK    5  A    between atoms: C_11  and  C_12
REMARK    6  A    between atoms: C_12  and  C_13
REMARK    7  A    between atoms: C_13  and  C_14
REMARK    8  A    between atoms: C_14  and  O_15
REMARK    9  A    between atoms: C_17  and  N_18
REMARK   10  A    between atoms: C_25  and  C_26
REMARK                            x       y       z     vdW  Elec       q    Type
REMARK                         _______ _______ _______ _____ _____    ______ ____
ROOT
ATOM      1  C   UNL     1      -4.659  11.983  18.164  0.00  0.00    +0.000 A 
ATOM      2  C   UNL     1      -4.505  11.119  17.073  0.00  0.00    +0.000 A 
ATOM      3  C   UNL     1      -3.351  10.330  16.939  0.00  0.00    +0.000 A 
ATOM      4  C   UNL     1      -2.355  10.380  17.920  0.00  0.00    +0.000 A 
ATOM      5  C   UNL     1      -2.437  11.332  18.931  0.00  0.00    +0.000 A 
ATOM      6  C   UNL     1      -3.637  12.049  19.119  0.00  0.00    +0.000 A 
ENDROOT
BRANCH   5   7
ATOM      7  N   UNL     1      -1.174  11.916  19.330  0.00  0.00    +0.000 N 
ATOM      8  C   UNL     1       0.052  11.323  18.795  0.00  0.00    +0.000 C 
ATOM      9  C   UNL     1       0.471  10.360  19.863  0.00  0.00    +0.000 A 
ATOM     10  C   UNL     1      -0.171  10.709  21.053  0.00  0.00    +0.000 A 
ATOM     11  C   UNL     1      -0.220   9.876  22.147  0.00  0.00    +0.000 A 
ATOM     12  C   UNL     1       0.435   8.649  22.044  0.00  0.00    +0.000 A 
ATOM     13  C   UNL     1       1.141   8.310  20.872  0.00  0.00    +0.000 A 
ATOM     14  C   UNL     1       1.187   9.175  19.759  0.00  0.00    +0.000 A 
ATOM     15  C   UNL     1      -1.066  11.848  20.756  0.00  0.00    +0.000 C 
ATOM     16  O   UNL     1      -1.708  12.445  21.602  0.00  0.00    +0.000 OA
BRANCH  14  17
ATOM     17  C   UNL     1       1.899   8.762  18.500  0.00  0.00    +0.000 C 
ATOM     18  F   UNL     1       2.747   7.710  18.675  0.00  0.00    +0.000 F 
ATOM     19  F   UNL     1       1.037   8.375  17.517  0.00  0.00    +0.000 F 
ATOM     20  F   UNL     1       2.653   9.763  17.975  0.00  0.00    +0.000 F 
ENDBRANCH  14  17
ENDBRANCH   5   7
BRANCH   1  21
ATOM     21  C   UNL     1      -5.800  12.976  18.208  0.00  0.00    +0.000 C 
BRANCH  21  22
ATOM     22  C   UNL     1      -7.169  12.303  18.271  0.00  0.00    +0.000 C 
BRANCH  22  28
ATOM     23  C   UNL     1      -7.916  13.205  21.149  0.00  0.00    +0.000 C 
ATOM     24  N   UNL     1      -7.626  11.859  20.730  0.00  0.00    +0.000 N 
ATOM     25  C   UNL     1      -7.642  10.755  21.525  0.00  0.00    +0.000 A 
ATOM     26  N   UNL     1      -7.348   9.698  20.806  0.00  0.00    +0.000 NA
ATOM     27  N   UNL     1      -7.136  10.118  19.514  0.00  0.00    +0.000 NA
ATOM     28  C   UNL     1      -7.296  11.428  19.472  0.00  0.00    +0.000 A 
ENDBRANCH  22  28
ENDBRANCH  21  22
ENDBRANCH   1  21
BRANCH   3  29
ATOM     29  C   UNL     1      -3.018   9.671  15.626  0.00  0.00    +0.000 C 
BRANCH  29  30
ATOM     30  C   UNL     1      -3.332  10.501  14.394  0.00  0.00    +0.000 C 
BRANCH  30  31
ATOM     31  C   UNL     1      -3.794   9.585  13.270  0.00  0.00    +0.000 C 
BRANCH  31  32
ATOM     32  O   UNL     1      -5.208   9.605  13.169  0.00  0.00    +0.000 OA
ATOM     33  H   UNL     1      -5.540   8.790  13.582  0.00  0.00    +0.000 HD
ENDBRANCH  31  32
ENDBRANCH  30  31
ENDBRANCH  29  30
ENDBRANCH   3  29
TORSDOF 9
ENDMDL
MODEL 2
REMARK VINA RESULT:      -7.5      5.696      9.985
REMARK  Name = 
REMARK  10 active torsions:
REMARK  status: ('A' for Active; 'I' for Inactive)
REMARK    1  A    between atoms: C_1  and  N_2
REMARK    2  A    between atoms: C_6  and  C_7
REMARK    3  A    between atoms: C_7  and  C_8
REMARK    4  A    between atoms: C_8  and  C_9
REMARK    5  A    between atoms: C_11  and  C_12
REMARK    6  A    between atoms: C_12  and  C_13
REMARK    7  A    between atoms: C_13  and  C_14
REMARK    8  A    between atoms: C_14  and  O_15
REMARK    9  A    between atoms: C_17  and  N_18
REMARK   10  A    between atoms: C_25  and  C_26
REMARK                            x       y       z     vdW  Elec       q    Type
REMARK                         _______ _______ _______ _____ _____    ______ ____
ROOT
ATOM      1  C   UNL     1       2.199   4.177  17.947  0.00  0.00    +0.000 A 
ATOM      2  C   UNL     1       1.942   3.413  19.093  0.00  0.00    +0.000 A 
ATOM      3  C   UNL     1       1.581   4.031  20.301  0.00  0.00    +0.000 A 
ATOM      4  C   UNL     1       1.444   5.422  20.358  0.00  0.00    +0.000 A 
ATOM      5  C   UNL     1       1.829   6.194  19.267  0.00  0.00    +0.000 A 
ATOM      6  C   UNL     1       2.093   5.571  18.030  0.00  0.00    +0.000 A 
ENDROOT
BRANCH   5   7
ATOM      7  N   UNL     1       2.468   7.450  19.597  0.00  0.00    +0.000 N 
ATOM      8  C   UNL     1       1.985   8.174  20.773  0.00  0.00    +0.000 C 
ATOM      9  C   UNL     1       0.992   9.141  20.207  0.00  0.00    +0.000 A 
ATOM     10  C   UNL     1       1.231   9.274  18.837  0.00  0.00    +0.000 A 
ATOM     11  C   UNL     1       0.336   9.865  17.976  0.00  0.00    +0.000 A 
ATOM     12  C   UNL     1      -0.839  10.374  18.529  0.00  0.00    +0.000 A 
ATOM     13  C   UNL     1      -1.066  10.305  19.918  0.00  0.00    +0.000 A 
ATOM     14  C   UNL     1      -0.138   9.698  20.790  0.00  0.00    +0.000 A 
ATOM     15  C   UNL     1       2.326   8.343  18.487  0.00  0.00    +0.000 C 
ATOM     16  O   UNL     1       2.832   8.277  17.381  0.00  0.00    +0.000 OA
BRANCH  14  17
ATOM     17  C   UNL     1      -0.432   9.587  22.261  0.00  0.00    +0.000 C 
ATOM     18  F   UNL     1      -1.324  10.515  22.709  0.00  0.00    +0.000 F 
ATOM     19  F   UNL     1      -0.967   8.378  22.595  0.00  0.00    +0.000 F 
ATOM     20  F   UNL     1       0.678   9.739  23.029  0.00  0.00    +0.000 F 
ENDBRANCH  14  17
ENDBRANCH   5   7
BRANCH   1  21
ATOM     21  C   UNL     1       2.780   3.535  16.706  0.00  0.00    +0.000 C 
BRANCH  21  22
ATOM     22  C   UNL     1       4.258   3.180  16.859  0.00  0.00    +0.000 C 
BRANCH  22  28
ATOM     23  C   UNL     1       5.727   5.063  18.847  0.00  0.00    +0.000 C 
ATOM     24  N   UNL     1       5.771   5.145  17.411  0.00  0.00    +0.000 N 
ATOM     25  C   UNL     1       6.472   6.056  16.685  0.00  0.00    +0.000 A 
ATOM     26  N   UNL     1       6.296   5.822  15.407  0.00  0.00    +0.000 NA
ATOM     27  N   UNL     1       5.462   4.735  15.292  0.00  0.00    +0.000 NA
ATOM     28  C   UNL     1       5.137   4.332  16.508  0.00  0.00    +0.000 A 
ENDBRANCH  22  28
ENDBRANCH  21  22
ENDBRANCH   1  21
BRANCH   3  29
ATOM     29  C   UNL     1       1.639   3.272  21.601  0.00  0.00    +0.000 C 
BRANCH  29  30
ATOM     30  C   UNL     1       2.645   2.134  21.634  0.00  0.00    +0.000 C 
BRANCH  30  31
ATOM     31  C   UNL     1       3.893   2.538  20.861  0.00  0.00    +0.000 C 
BRANCH  31  32
ATOM     32  O   UNL     1       4.995   1.737  21.254  0.00  0.00    +0.000 OA
ATOM     33  H   UNL     1       5.447   1.448  20.443  0.00  0.00    +0.000 HD
ENDBRANCH  31  32
ENDBRANCH  30  31
ENDBRANCH  29  30
ENDBRANCH   3  29
TORSDOF 9
ENDMDL
MODEL 3
REMARK VINA RESULT:      -7.3      5.879      8.218
REMARK  Name = 
REMARK  10 active torsions:
REMARK  status: ('A' for Active; 'I' for Inactive)
REMARK    1  A    between atoms: C_1  and  N_2
REMARK    2  A    between atoms: C_6  and  C_7
REMARK    3  A    between atoms: C_7  and  C_8
REMARK    4  A    between atoms: C_8  and  C_9
REMARK    5  A    between atoms: C_11  and  C_12
REMARK    6  A    between atoms: C_12  and  C_13
REMARK    7  A    between atoms: C_13  and  C_14
REMARK    8  A    between atoms: C_14  and  O_15
REMARK    9  A    between atoms: C_17  and  N_18
REMARK   10  A    between atoms: C_25  and  C_26
REMARK                            x       y       z     vdW  Elec       q    Type
REMARK                         _______ _______ _______ _____ _____    ______ ____
ROOT
ATOM      1  C   UNL     1       1.943   9.727  18.551  0.00  0.00    +0.000 A 
ATOM      2  C   UNL     1       1.397   9.449  19.810  0.00  0.00    +0.000 A 
ATOM      3  C   UNL     1       1.522   8.172  20.380  0.00  0.00    +0.000 A 
ATOM      4  C   UNL     1       2.226   7.172  19.701  0.00  0.00    +0.000 A 
ATOM      5  C   UNL     1       2.650   7.398  18.396  0.00  0.00    +0.000 A 
ATOM      6  C   UNL     1       2.613   8.705  17.867  0.00  0.00    +0.000 A 
ENDROOT
BRANCH   5   7
ATOM      7  N   UNL     1       2.558   6.256  17.512  0.00  0.00    +0.000 N 
ATOM      8  C   UNL     1       1.720   5.133  17.932  0.00  0.00    +0.000 C 
ATOM      9  C   UNL     1       2.687   4.200  18.593  0.00  0.00    +0.000 A 
ATOM     10  C   UNL     1       3.979   4.532  18.178  0.00  0.00    +0.000 A 
ATOM     11  C   UNL     1       5.109   4.057  18.802  0.00  0.00    +0.000 A 
ATOM     12  C   UNL     1       4.925   3.182  19.873  0.00  0.00    +0.000 A 
ATOM     13  C   UNL     1       3.630   2.787  20.262  0.00  0.00    +0.000 A 
ATOM     14  C   UNL     1       2.479   3.280  19.611  0.00  0.00    +0.000 A 
ATOM     15  C   UNL     1       3.872   5.725  17.309  0.00  0.00    +0.000 C 
ATOM     16  O   UNL     1       4.814   6.217  16.716  0.00  0.00    +0.000 OA
BRANCH  14  17
ATOM     17  C   UNL     1       1.107   2.887  20.085  0.00  0.00    +0.000 C 
ATOM     18  F   UNL     1       0.331   3.949  20.443  0.00  0.00    +0.000 F 
ATOM     19  F   UNL     1       0.396   2.223  19.129  0.00  0.00    +0.000 F 
ATOM     20  F   UNL     1       1.143   2.072  21.170  0.00  0.00    +0.000 F 
ENDBRANCH  14  17
ENDBRANCH   5   7
BRANCH   1  21
ATOM     21  C   UNL     1       1.639  11.033  17.849  0.00  0.00    +0.000 C 
BRANCH  21  22
ATOM     22  C   UNL     1       1.165  12.124  18.807  0.00  0.00    +0.000 C 
BRANCH  22  28
ATOM     23  C   UNL     1       0.023  15.006  19.020  0.00  0.00    +0.000 C 
ATOM     24  N   UNL     1       1.382  14.653  18.708  0.00  0.00    +0.000 N 
ATOM     25  C   UNL     1       2.397  15.525  18.464  0.00  0.00    +0.000 A 
ATOM     26  N   UNL     1       3.500  14.855  18.234  0.00  0.00    +0.000 NA
ATOM     27  N   UNL     1       3.203  13.516  18.329  0.00  0.00    +0.000 NA
ATOM     28  C   UNL     1       1.917  13.396  18.608  0.00  0.00    +0.000 A 
ENDBRANCH  22  28
ENDBRANCH  21  22
ENDBRANCH   1  21
BRANCH   3  29
ATOM     29  C   UNL     1       0.663   7.764  21.549  0.00  0.00    +0.000 C 
BRANCH  29  30
ATOM     30  C   UNL     1      -0.408   8.768  21.938  0.00  0.00    +0.000 C 
BRANCH  30  31
ATOM     31  C   UNL     1       0.004   9.477  23.220  0.00  0.00    +0.000 C 
BRANCH  31  32
ATOM     32  O   UNL     1      -0.764  10.655  23.399  0.00  0.00    +0.000 OA
ATOM     33  H   UNL     1      -1.689  10.382  23.528  0.00  0.00    +0.000 HD
ENDBRANCH  31  32
ENDBRANCH  30  31
ENDBRANCH  29  30
ENDBRANCH   3  29
TORSDOF 9
ENDMDL
MODEL 4
REMARK VINA RESULT:      -7.2      4.841      7.132
REMARK  Name = 
REMARK  10 active torsions:
REMARK  status: ('A' for Active; 'I' for Inactive)
REMARK    1  A    between atoms: C_1  and  N_2
REMARK    2  A    between atoms: C_6  and  C_7
REMARK    3  A    between atoms: C_7  and  C_8
REMARK    4  A    between atoms: C_8  and  C_9
REMARK    5  A    between atoms: C_11  and  C_12
REMARK    6  A    between atoms: C_12  and  C_13
REMARK    7  A    between atoms: C_13  and  C_14
REMARK    8  A    between atoms: C_14  and  O_15
REMARK    9  A    between atoms: C_17  and  N_18
REMARK   10  A    between atoms: C_25  and  C_26
REMARK                            x       y       z     vdW  Elec       q    Type
REMARK                         _______ _______ _______ _____ _____    ______ ____
ROOT
ATOM      1  C   UNL     1       0.561   8.295  20.986  0.00  0.00    +0.000 A 
ATOM      2  C   UNL     1       0.841   9.183  19.940  0.00  0.00    +0.000 A 
ATOM      3  C   UNL     1       1.684   8.804  18.883  0.00  0.00    +0.000 A 
ATOM      4  C   UNL     1       2.228   7.516  18.853  0.00  0.00    +0.000 A 
ATOM      5  C   UNL     1       2.067   6.679  19.952  0.00  0.00    +0.000 A 
ATOM      6  C   UNL     1       1.142   7.021  20.961  0.00  0.00    +0.000 A 
ENDROOT
BRANCH   5   7
ATOM      7  N   UNL     1       3.212   5.852  20.270  0.00  0.00    +0.000 N 
ATOM      8  C   UNL     1       4.236   5.680  19.240  0.00  0.00    +0.000 C 
ATOM      9  C   UNL     1       3.844   4.402  18.564  0.00  0.00    +0.000 A 
ATOM     10  C   UNL     1       2.985   3.697  19.410  0.00  0.00    +0.000 A 
ATOM     11  C   UNL     1       2.232   2.627  18.986  0.00  0.00    +0.000 A 
ATOM     12  C   UNL     1       2.377   2.232  17.656  0.00  0.00    +0.000 A 
ATOM     13  C   UNL     1       3.287   2.893  16.808  0.00  0.00    +0.000 A 
ATOM     14  C   UNL     1       4.056   3.987  17.256  0.00  0.00    +0.000 A 
ATOM     15  C   UNL     1       2.751   4.538  20.604  0.00  0.00    +0.000 C 
ATOM     16  O   UNL     1       2.111   4.174  21.574  0.00  0.00    +0.000 OA
BRANCH  14  17
ATOM     17  C   UNL     1       4.977   4.711  16.313  0.00  0.00    +0.000 C 
ATOM     18  F   UNL     1       5.006   4.172  15.061  0.00  0.00    +0.000 F 
ATOM     19  F   UNL     1       4.623   6.016  16.138  0.00  0.00    +0.000 F 
ATOM     20  F   UNL     1       6.265   4.719  16.743  0.00  0.00    +0.000 F 
ENDBRANCH  14  17
ENDBRANCH   5   7
BRANCH   1  21
ATOM     21  C   UNL     1      -0.180   8.764  22.219  0.00  0.00    +0.000 C 
BRANCH  21  22
ATOM     22  C   UNL     1       0.327  10.108  22.739  0.00  0.00    +0.000 C 
BRANCH  22  28
ATOM     23  C   UNL     1       0.392  12.795  21.179  0.00  0.00    +0.000 C 
ATOM     24  N   UNL     1      -0.683  12.323  22.012  0.00  0.00    +0.000 N 
ATOM     25  C   UNL     1      -1.855  12.972  22.246  0.00  0.00    +0.000 A 
ATOM     26  N   UNL     1      -2.606  12.242  23.035  0.00  0.00    +0.000 NA
ATOM     27  N   UNL     1      -1.912  11.091  23.324  0.00  0.00    +0.000 NA
ATOM     28  C   UNL     1      -0.743  11.146  22.710  0.00  0.00    +0.000 A 
ENDBRANCH  22  28
ENDBRANCH  21  22
ENDBRANCH   1  21
BRANCH   3  29
ATOM     29  C   UNL     1       2.262   9.838  17.952  0.00  0.00    +0.000 C 
BRANCH  29  30
ATOM     30  C   UNL     1       1.624  11.212  18.045  0.00  0.00    +0.000 C 
BRANCH  30  31
ATOM     31  C   UNL     1       2.713  12.274  18.099  0.00  0.00    +0.000 C 
BRANCH  31  32
ATOM     32  O   UNL     1       2.332  13.409  17.339  0.00  0.00    +0.000 OA
ATOM     33  H   UNL     1       1.415  13.267  17.046  0.00  0.00    +0.000 HD
ENDBRANCH  31  32
ENDBRANCH  30  31
ENDBRANCH  29  30
ENDBRANCH   3  29
TORSDOF 9
ENDMDL
MODEL 5
REMARK VINA RESULT:      -7.2      5.545      8.803
REMARK  Name = 
REMARK  10 active torsions:
REMARK  status: ('A' for Active; 'I' for Inactive)
REMARK    1  A    between atoms: C_1  and  N_2
REMARK    2  A    between atoms: C_6  and  C_7
REMARK    3  A    between atoms: C_7  and  C_8
REMARK    4  A    between atoms: C_8  and  C_9
REMARK    5  A    between atoms: C_11  and  C_12
REMARK    6  A    between atoms: C_12  and  C_13
REMARK    7  A    between atoms: C_13  and  C_14
REMARK    8  A    between atoms: C_14  and  O_15
REMARK    9  A    between atoms: C_17  and  N_18
REMARK   10  A    between atoms: C_25  and  C_26
REMARK                            x       y       z     vdW  Elec       q    Type
REMARK                         _______ _______ _______ _____ _____    ______ ____
ROOT
ATOM      1  C   UNL     1       2.289   6.539  18.790  0.00  0.00    +0.000 A 
ATOM      2  C   UNL     1       1.325   5.624  19.230  0.00  0.00    +0.000 A 
ATOM      3  C   UNL     1       1.683   4.545  20.055  0.00  0.00    +0.000 A 
ATOM      4  C   UNL     1       3.010   4.397  20.470  0.00  0.00    +0.000 A 
ATOM      5  C   UNL     1       3.994   5.217  19.927  0.00  0.00    +0.000 A 
ATOM      6  C   UNL     1       3.620   6.356  19.183  0.00  0.00    +0.000 A 
ENDROOT
BRANCH   5   7
ATOM      7  N   UNL     1       5.264   4.572  19.675  0.00  0.00    +0.000 N 
ATOM      8  C   UNL     1       6.423   5.425  19.408  0.00  0.00    +0.000 C 
ATOM      9  C   UNL     1       6.470   5.495  17.913  0.00  0.00    +0.000 A 
ATOM     10  C   UNL     1       5.724   4.435  17.393  0.00  0.00    +0.000 A 
ATOM     11  C   UNL     1       5.339   4.368  16.075  0.00  0.00    +0.000 A 
ATOM     12  C   UNL     1       5.754   5.403  15.236  0.00  0.00    +0.000 A 
ATOM     13  C   UNL     1       6.560   6.447  15.732  0.00  0.00    +0.000 A 
ATOM     14  C   UNL     1       6.951   6.501  17.086  0.00  0.00    +0.000 A 
ATOM     15  C   UNL     1       5.125   3.713  18.537  0.00  0.00    +0.000 C 
ATOM     16  O   UNL     1       4.483   2.685  18.428  0.00  0.00    +0.000 OA
BRANCH  14  17
ATOM     17  C   UNL     1       7.764   7.658  17.600  0.00  0.00    +0.000 C 
ATOM     18  F   UNL     1       7.007   8.718  18.003  0.00  0.00    +0.000 F 
ATOM     19  F   UNL     1       8.522   7.322  18.682  0.00  0.00    +0.000 F 
ATOM     20  F   UNL     1       8.622   8.148  16.669  0.00  0.00    +0.000 F 
ENDBRANCH  14  17
ENDBRANCH   5   7
BRANCH   1  21
ATOM     21  C   UNL     1       1.945   7.578  17.745  0.00  0.00    +0.000 C 
BRANCH  21  22
ATOM     22  C   UNL     1       2.164   9.008  18.237  0.00  0.00    +0.000 C 
BRANCH  22  28
ATOM     23  C   UNL     1       1.340   8.922  21.232  0.00  0.00    +0.000 C 
ATOM     24  N   UNL     1       0.588   9.523  20.162  0.00  0.00    +0.000 N 
ATOM     25  C   UNL     1      -0.605  10.163  20.286  0.00  0.00    +0.000 A 
ATOM     26  N   UNL     1      -0.989  10.600  19.111  0.00  0.00    +0.000 NA
ATOM     27  N   UNL     1      -0.027  10.239  18.197  0.00  0.00    +0.000 NA
ATOM     28  C   UNL     1       0.923   9.579  18.834  0.00  0.00    +0.000 A 
ENDBRANCH  22  28
ENDBRANCH  21  22
ENDBRANCH   1  21
BRANCH   3  29
ATOM     29  C   UNL     1       0.746   3.381  20.250  0.00  0.00    +0.000 C 
BRANCH  29  30
ATOM     30  C   UNL     1       0.416   2.606  18.987  0.00  0.00    +0.000 C 
BRANCH  30  31
ATOM     31  C   UNL     1       1.541   1.627  18.685  0.00  0.00    +0.000 C 
BRANCH  31  32
ATOM     32  O   UNL     1       2.098   1.897  17.409  0.00  0.00    +0.000 OA
ATOM     33  H   UNL     1       2.196   2.861  17.333  0.00  0.00    +0.000 HD
ENDBRANCH  31  32
ENDBRANCH  30  31
ENDBRANCH  29  30
ENDBRANCH   3  29
TORSDOF 9
ENDMDL
MODEL 6
REMARK VINA RESULT:      -7.2      5.796     10.124
REMARK  Name = 
REMARK  10 active torsions:
REMARK  status: ('A' for Active; 'I' for Inactive)
REMARK    1  A    between atoms: C_1  and  N_2
REMARK    2  A    between atoms: C_6  and  C_7
REMARK    3  A    between atoms: C_7  and  C_8
REMARK    4  A    between atoms: C_8  and  C_9
REMARK    5  A    between atoms: C_11  and  C_12
REMARK    6  A    between atoms: C_12  and  C_13
REMARK    7  A    between atoms: C_13  and  C_14
REMARK    8  A    between atoms: C_14  and  O_15
REMARK    9  A    between atoms: C_17  and  N_18
REMARK   10  A    between atoms: C_25  and  C_26
REMARK                            x       y       z     vdW  Elec       q    Type
REMARK                         _______ _______ _______ _____ _____    ______ ____
ROOT
ATOM      1  C   UNL     1       2.257   4.187  17.880  0.00  0.00    +0.000 A 
ATOM      2  C   UNL     1       1.943   3.425  19.012  0.00  0.00    +0.000 A 
ATOM      3  C   UNL     1       1.536   4.044  20.204  0.00  0.00    +0.000 A 
ATOM      4  C   UNL     1       1.411   5.436  20.259  0.00  0.00    +0.000 A 
ATOM      5  C   UNL     1       1.851   6.206  19.187  0.00  0.00    +0.000 A 
ATOM      6  C   UNL     1       2.162   5.582  17.961  0.00  0.00    +0.000 A 
ENDROOT
BRANCH   5   7
ATOM      7  N   UNL     1       2.488   7.455  19.547  0.00  0.00    +0.000 N 
ATOM      8  C   UNL     1       1.998   8.154  20.735  0.00  0.00    +0.000 C 
ATOM      9  C   UNL     1       1.007   9.133  20.183  0.00  0.00    +0.000 A 
ATOM     10  C   UNL     1       1.255   9.294  18.818  0.00  0.00    +0.000 A 
ATOM     11  C   UNL     1       0.365   9.903  17.965  0.00  0.00    +0.000 A 
ATOM     12  C   UNL     1      -0.814  10.400  18.522  0.00  0.00    +0.000 A 
ATOM     13  C   UNL     1      -1.049  10.302  19.908  0.00  0.00    +0.000 A 
ATOM     14  C   UNL     1      -0.126   9.677  20.772  0.00  0.00    +0.000 A 
ATOM     15  C   UNL     1       2.352   8.371  18.455  0.00  0.00    +0.000 C 
ATOM     16  O   UNL     1       2.864   8.328  17.351  0.00  0.00    +0.000 OA
BRANCH  14  17
ATOM     17  C   UNL     1      -0.429   9.535  22.238  0.00  0.00    +0.000 C 
ATOM     18  F   UNL     1       0.670   9.662  23.036  0.00  0.00    +0.000 F 
ATOM     19  F   UNL     1      -1.311  10.475  22.682  0.00  0.00    +0.000 F 
ATOM     20  F   UNL     1      -0.971   8.327  22.544  0.00  0.00    +0.000 F 
ENDBRANCH  14  17
ENDBRANCH   5   7
BRANCH   1  21
ATOM     21  C   UNL     1       2.885   3.542  16.664  0.00  0.00    +0.000 C 
BRANCH  21  22
ATOM     22  C   UNL     1       4.278   2.981  16.944  0.00  0.00    +0.000 C 
BRANCH  22  28
ATOM     23  C   UNL     1       5.868   4.073  14.508  0.00  0.00    +0.000 C 
ATOM     24  N   UNL     1       5.994   4.516  15.871  0.00  0.00    +0.000 N 
ATOM     25  C   UNL     1       6.825   5.496  16.318  0.00  0.00    +0.000 A 
ATOM     26  N   UNL     1       6.662   5.648  17.610  0.00  0.00    +0.000 NA
ATOM     27  N   UNL     1       5.706   4.748  18.019  0.00  0.00    +0.000 NA
ATOM     28  C   UNL     1       5.309   4.058  16.965  0.00  0.00    +0.000 A 
ENDBRANCH  22  28
ENDBRANCH  21  22
ENDBRANCH   1  21
BRANCH   3  29
ATOM     29  C   UNL     1       1.531   3.282  21.504  0.00  0.00    +0.000 C 
BRANCH  29  30
ATOM     30  C   UNL     1       2.594   2.204  21.620  0.00  0.00    +0.000 C 
BRANCH  30  31
ATOM     31  C   UNL     1       3.821   2.615  20.819  0.00  0.00    +0.000 C 
BRANCH  31  32
ATOM     32  O   UNL     1       4.922   1.782  21.143  0.00  0.00    +0.000 OA
ATOM     33  H   UNL     1       4.765   1.429  22.036  0.00  0.00    +0.000 HD
ENDBRANCH  31  32
ENDBRANCH  30  31
ENDBRANCH  29  30
ENDBRANCH   3  29
TORSDOF 9
ENDMDL
MODEL 7
REMARK VINA RESULT:      -7.2      5.594      7.871
REMARK  Name = 
REMARK  10 active torsions:
REMARK  status: ('A' for Active; 'I' for Inactive)
REMARK    1  A    between atoms: C_1  and  N_2
REMARK    2  A    between atoms: C_6  and  C_7
REMARK    3  A    between atoms: C_7  and  C_8
REMARK    4  A    between atoms: C_8  and  C_9
REMARK    5  A    between atoms: C_11  and  C_12
REMARK    6  A    between atoms: C_12  and  C_13
REMARK    7  A    between atoms: C_13  and  C_14
REMARK    8  A    between atoms: C_14  and  O_15
REMARK    9  A    between atoms: C_17  and  N_18
REMARK   10  A    between atoms: C_25  and  C_26
REMARK                            x       y       z     vdW  Elec       q    Type
REMARK                         _______ _______ _______ _____ _____    ______ ____
ROOT
ATOM      1  C   UNL     1       1.767   9.890  18.626  0.00  0.00    +0.000 A 
ATOM      2  C   UNL     1       1.251   9.564  19.886  0.00  0.00    +0.000 A 
ATOM      3  C   UNL     1       1.426   8.278  20.422  0.00  0.00    +0.000 A 
ATOM      4  C   UNL     1       2.150   7.319  19.709  0.00  0.00    +0.000 A 
ATOM      5  C   UNL     1       2.546   7.590  18.403  0.00  0.00    +0.000 A 
ATOM      6  C   UNL     1       2.459   8.907  17.907  0.00  0.00    +0.000 A 
ENDROOT
BRANCH   5   7
ATOM      7  N   UNL     1       2.476   6.467  17.493  0.00  0.00    +0.000 N 
ATOM      8  C   UNL     1       1.667   5.314  17.890  0.00  0.00    +0.000 C 
ATOM      9  C   UNL     1       2.660   4.389  18.524  0.00  0.00    +0.000 A 
ATOM     10  C   UNL     1       3.942   4.762  18.111  0.00  0.00    +0.000 A 
ATOM     11  C   UNL     1       5.085   4.299  18.718  0.00  0.00    +0.000 A 
ATOM     12  C   UNL     1       4.929   3.395  19.769  0.00  0.00    +0.000 A 
ATOM     13  C   UNL     1       3.645   2.961  20.155  0.00  0.00    +0.000 A 
ATOM     14  C   UNL     1       2.480   3.441  19.521  0.00  0.00    +0.000 A 
ATOM     15  C   UNL     1       3.801   5.972  17.271  0.00  0.00    +0.000 C 
ATOM     16  O   UNL     1       4.729   6.500  16.685  0.00  0.00    +0.000 OA
BRANCH  14  17
ATOM     17  C   UNL     1       1.120   3.004  19.992  0.00  0.00    +0.000 C 
ATOM     18  F   UNL     1       1.161   2.119  21.029  0.00  0.00    +0.000 F 
ATOM     19  F   UNL     1       0.362   4.048  20.435  0.00  0.00    +0.000 F 
ATOM     20  F   UNL     1       0.399   2.396  19.015  0.00  0.00    +0.000 F 
ENDBRANCH  14  17
ENDBRANCH   5   7
BRANCH   1  21
ATOM     21  C   UNL     1       1.411  11.202  17.961  0.00  0.00    +0.000 C 
BRANCH  21  22
ATOM     22  C   UNL     1       2.294  12.359  18.422  0.00  0.00    +0.000 C 
BRANCH  22  28
ATOM     23  C   UNL     1      -0.157  14.266  18.517  0.00  0.00    +0.000 C 
ATOM     24  N   UNL     1       0.651  13.867  19.639  0.00  0.00    +0.000 N 
ATOM     25  C   UNL     1       0.469  14.251  20.930  0.00  0.00    +0.000 A 
ATOM     26  N   UNL     1       1.377  13.682  21.686  0.00  0.00    +0.000 NA
ATOM     27  N   UNL     1       2.171  12.908  20.873  0.00  0.00    +0.000 NA
ATOM     28  C   UNL     1       1.735  13.029  19.631  0.00  0.00    +0.000 A 
ENDBRANCH  22  28
ENDBRANCH  21  22
ENDBRANCH   1  21
BRANCH   3  29
ATOM     29  C   UNL     1       0.600   7.815  21.594  0.00  0.00    +0.000 C 
BRANCH  29  30
ATOM     30  C   UNL     1      -0.568   8.718  21.952  0.00  0.00    +0.000 C 
BRANCH  30  31
ATOM     31  C   UNL     1      -0.317   9.354  23.312  0.00  0.00    +0.000 C 
BRANCH  31  32
ATOM     32  O   UNL     1       1.038   9.755  23.424  0.00  0.00    +0.000 OA
ATOM     33  H   UNL     1       1.459   9.601  22.561  0.00  0.00    +0.000 HD
ENDBRANCH  31  32
ENDBRANCH  30  31
ENDBRANCH  29  30
ENDBRANCH   3  29
TORSDOF 9
ENDMDL
MODEL 8
REMARK VINA RESULT:      -7.2      4.886      7.213
REMARK  Name = 
REMARK  10 active torsions:
REMARK  status: ('A' for Active; 'I' for Inactive)
REMARK    1  A    between atoms: C_1  and  N_2
REMARK    2  A    between atoms: C_6  and  C_7
REMARK    3  A    between atoms: C_7  and  C_8
REMARK    4  A    between atoms: C_8  and  C_9
REMARK    5  A    between atoms: C_11  and  C_12
REMARK    6  A    between atoms: C_12  and  C_13
REMARK    7  A    between atoms: C_13  and  C_14
REMARK    8  A    between atoms: C_14  and  O_15
REMARK    9  A    between atoms: C_17  and  N_18
REMARK   10  A    between atoms: C_25  and  C_26
REMARK                            x       y       z     vdW  Elec       q    Type
REMARK                         _______ _______ _______ _____ _____    ______ ____
ROOT
ATOM      1  C   UNL     1       0.920   8.406  21.255  0.00  0.00    +0.000 A 
ATOM      2  C   UNL     1       1.078   9.145  20.077  0.00  0.00    +0.000 A 
ATOM      3  C   UNL     1       1.703   8.579  18.954  0.00  0.00    +0.000 A 
ATOM      4  C   UNL     1       2.146   7.254  18.997  0.00  0.00    +0.000 A 
ATOM      5  C   UNL     1       2.118   6.561  20.202  0.00  0.00    +0.000 A 
ATOM      6  C   UNL     1       1.402   7.092  21.295  0.00  0.00    +0.000 A 
ENDROOT
BRANCH   5   7
ATOM      7  N   UNL     1       3.242   5.679  20.432  0.00  0.00    +0.000 N 
ATOM      8  C   UNL     1       4.236   5.547  19.367  0.00  0.00    +0.000 C 
ATOM      9  C   UNL     1       3.786   4.332  18.615  0.00  0.00    +0.000 A 
ATOM     10  C   UNL     1       2.924   3.597  19.432  0.00  0.00    +0.000 A 
ATOM     11  C   UNL     1       2.127   2.584  18.955  0.00  0.00    +0.000 A 
ATOM     12  C   UNL     1       2.227   2.278  17.598  0.00  0.00    +0.000 A 
ATOM     13  C   UNL     1       3.138   2.969  16.773  0.00  0.00    +0.000 A 
ATOM     14  C   UNL     1       3.953   4.004  17.277  0.00  0.00    +0.000 A 
ATOM     15  C   UNL     1       2.747   4.360  20.687  0.00  0.00    +0.000 C 
ATOM     16  O   UNL     1       2.118   3.950  21.646  0.00  0.00    +0.000 OA
BRANCH  14  17
ATOM     17  C   UNL     1       4.875   4.763  16.362  0.00  0.00    +0.000 C 
ATOM     18  F   UNL     1       4.544   6.079  16.226  0.00  0.00    +0.000 F 
ATOM     19  F   UNL     1       6.166   4.756  16.800  0.00  0.00    +0.000 F 
ATOM     20  F   UNL     1       4.895   4.254  15.102  0.00  0.00    +0.000 F 
ENDBRANCH  14  17
ENDBRANCH   5   7
BRANCH   1  21
ATOM     21  C   UNL     1       0.432   9.072  22.524  0.00  0.00    +0.000 C 
BRANCH  21  22
ATOM     22  C   UNL     1      -0.872   9.841  22.326  0.00  0.00    +0.000 C 
BRANCH  22  28
ATOM     23  C   UNL     1      -2.796  11.995  23.473  0.00  0.00    +0.000 C 
ATOM     24  N   UNL     1      -1.519  12.240  22.856  0.00  0.00    +0.000 N 
ATOM     25  C   UNL     1      -0.938  13.457  22.682  0.00  0.00    +0.000 A 
ATOM     26  N   UNL     1       0.229  13.302  22.103  0.00  0.00    +0.000 NA
ATOM     27  N   UNL     1       0.416  11.956  21.893  0.00  0.00    +0.000 NA
ATOM     28  C   UNL     1      -0.648  11.315  22.342  0.00  0.00    +0.000 A 
ENDBRANCH  22  28
ENDBRANCH  21  22
ENDBRANCH   1  21
BRANCH   3  29
ATOM     29  C   UNL     1       2.183   9.450  17.821  0.00  0.00    +0.000 C 
BRANCH  29  30
ATOM     30  C   UNL     1       1.459  10.777  17.681  0.00  0.00    +0.000 C 
BRANCH  30  31
ATOM     31  C   UNL     1       2.304  11.882  18.299  0.00  0.00    +0.000 C 
BRANCH  31  32
ATOM     32  O   UNL     1       2.622  12.861  17.324  0.00  0.00    +0.000 OA
ATOM     33  H   UNL     1       1.852  13.448  17.239  0.00  0.00    +0.000 HD
ENDBRANCH  31  32
ENDBRANCH  30  31
ENDBRANCH  29  30
ENDBRANCH   3  29
TORSDOF 9
ENDMDL
MODEL 9
REMARK VINA RESULT:      -7.2      4.749      7.722
REMARK  Name = 
REMARK  10 active torsions:
REMARK  status: ('A' for Active; 'I' for Inactive)
REMARK    1  A    between atoms: C_1  and  N_2
REMARK    2  A    between atoms: C_6  and  C_7
REMARK    3  A    between atoms: C_7  and  C_8
REMARK    4  A    between atoms: C_8  and  C_9
REMARK    5  A    between atoms: C_11  and  C_12
REMARK    6  A    between atoms: C_12  and  C_13
REMARK    7  A    between atoms: C_13  and  C_14
REMARK    8  A    between atoms: C_14  and  O_15
REMARK    9  A    between atoms: C_17  and  N_18
REMARK   10  A    between atoms: C_25  and  C_26
REMARK                            x       y       z     vdW  Elec       q    Type
REMARK                         _______ _______ _______ _____ _____    ______ ____
ROOT
ATOM      1  C   UNL     1       1.333   7.462  20.689  0.00  0.00    +0.000 A 
ATOM      2  C   UNL     1       1.533   8.380  19.651  0.00  0.00    +0.000 A 
ATOM      3  C   UNL     1       2.273   8.024  18.511  0.00  0.00    +0.000 A 
ATOM      4  C   UNL     1       2.791   6.730  18.394  0.00  0.00    +0.000 A 
ATOM      5  C   UNL     1       2.715   5.861  19.476  0.00  0.00    +0.000 A 
ATOM      6  C   UNL     1       1.889   6.183  20.573  0.00  0.00    +0.000 A 
ENDROOT
BRANCH   5   7
ATOM      7  N   UNL     1       3.871   5.009  19.665  0.00  0.00    +0.000 N 
ATOM      8  C   UNL     1       5.194   5.599  19.459  0.00  0.00    +0.000 C 
ATOM      9  C   UNL     1       5.514   5.257  18.036  0.00  0.00    +0.000 A 
ATOM     10  C   UNL     1       4.688   4.203  17.636  0.00  0.00    +0.000 A 
ATOM     11  C   UNL     1       4.534   3.835  16.320  0.00  0.00    +0.000 A 
ATOM     12  C   UNL     1       5.270   4.541  15.369  0.00  0.00    +0.000 A 
ATOM     13  C   UNL     1       6.155   5.565  15.764  0.00  0.00    +0.000 A 
ATOM     14  C   UNL     1       6.307   5.930  17.117  0.00  0.00    +0.000 A 
ATOM     15  C   UNL     1       3.778   3.902  18.762  0.00  0.00    +0.000 C 
ATOM     16  O   UNL     1       2.987   2.976  18.764  0.00  0.00    +0.000 OA
BRANCH  14  17
ATOM     17  C   UNL     1       7.215   7.065  17.505  0.00  0.00    +0.000 C 
ATOM     18  F   UNL     1       8.074   7.437  16.513  0.00  0.00    +0.000 F 
ATOM     19  F   UNL     1       6.526   8.195  17.831  0.00  0.00    +0.000 F 
ATOM     20  F   UNL     1       7.993   6.768  18.577  0.00  0.00    +0.000 F 
ENDBRANCH  14  17
ENDBRANCH   5   7
BRANCH   1  21
ATOM     21  C   UNL     1       0.714   7.902  21.998  0.00  0.00    +0.000 C 
BRANCH  21  22
ATOM     22  C   UNL     1      -0.658   8.548  21.817  0.00  0.00    +0.000 C 
BRANCH  22  28
ATOM     23  C   UNL     1      -1.016  10.855  19.767  0.00  0.00    +0.000 C 
ATOM     24  N   UNL     1      -0.780  11.004  21.179  0.00  0.00    +0.000 N 
ATOM     25  C   UNL     1      -0.685  12.181  21.852  0.00  0.00    +0.000 A 
ATOM     26  N   UNL     1      -0.486  11.939  23.125  0.00  0.00    +0.000 NA
ATOM     27  N   UNL     1      -0.450  10.574  23.290  0.00  0.00    +0.000 NA
ATOM     28  C   UNL     1      -0.620  10.009  22.108  0.00  0.00    +0.000 A 
ENDBRANCH  22  28
ENDBRANCH  21  22
ENDBRANCH   1  21
BRANCH   3  29
ATOM     29  C   UNL     1       2.782   9.079  17.564  0.00  0.00    +0.000 C 
BRANCH  29  30
ATOM     30  C   UNL     1       1.930  10.334  17.484  0.00  0.00    +0.000 C 
BRANCH  30  31
ATOM     31  C   UNL     1       2.746  11.530  17.954  0.00  0.00    +0.000 C 
BRANCH  31  32
ATOM     32  O   UNL     1       2.336  12.703  17.270  0.00  0.00    +0.000 OA
ATOM     33  H   UNL     1       2.065  12.437  16.375  0.00  0.00    +0.000 HD
ENDBRANCH  31  32
ENDBRANCH  30  31
ENDBRANCH  29  30
ENDBRANCH   3  29
TORSDOF 9
ENDMDL
