MODEL 1
REMARK VINA RESULT:      -8.1      0.000      0.000
REMARK  Name = 
REMARK  6 active torsions:
REMARK  status: ('A' for Active; 'I' for Inactive)
REMARK    1  A    between atoms: C_1  and  N_2
REMARK    2  A    between atoms: C_3  and  C_4
REMARK    3  A    between atoms: C_4  and  N_5
REMARK    4  A    between atoms: C_4  and  C_17
REMARK    5  A    between atoms: C_6  and  C_8
REMARK    6  A    between atoms: C_11  and  N_12
REMARK                            x       y       z     vdW  Elec       q    Type
REMARK                         _______ _______ _______ _____ _____    ______ ____
ROOT
ATOM      1  C   UNL     1       0.513  10.662  19.631  0.00  0.00    +0.000 C 
ENDROOT
BRANCH   1   4
ATOM      2  C   UNL     1      -2.082  12.217  20.420  0.00  0.00    +0.000 C 
ATOM      3  N   UNL     1      -1.881  11.474  19.197  0.00  0.00    +0.000 N 
ATOM      4  C   UNL     1      -0.751  10.780  18.806  0.00  0.00    +0.000 A 
ATOM      5  N   UNL     1      -0.943  10.226  17.615  0.00  0.00    +0.000 NA
ATOM      6  C   UNL     1      -2.208  10.586  17.228  0.00  0.00    +0.000 A 
ATOM      7  C   UNL     1      -2.894  10.290  16.042  0.00  0.00    +0.000 A 
ATOM      8  C   UNL     1      -4.206  10.753  15.886  0.00  0.00    +0.000 A 
ATOM      9  C   UNL     1      -4.823  11.495  16.894  0.00  0.00    +0.000 A 
ATOM     10  C   UNL     1      -4.148  11.810  18.079  0.00  0.00    +0.000 A 
ATOM     11  C   UNL     1      -2.833  11.346  18.209  0.00  0.00    +0.000 A 
ENDBRANCH   1   4
BRANCH   1  12
ATOM     12  C   UNL     1       1.459  11.859  19.535  0.00  0.00    +0.000 A 
ATOM     13  C   UNL     1       1.652  12.659  20.677  0.00  0.00    +0.000 A 
ATOM     14  C   UNL     1       2.452  13.805  20.628  0.00  0.00    +0.000 A 
ATOM     15  C   UNL     1       3.087  14.162  19.443  0.00  0.00    +0.000 A 
ATOM     16  C   UNL     1       2.950  13.356  18.316  0.00  0.00    +0.000 A 
ATOM     17  C   UNL     1       2.153  12.208  18.364  0.00  0.00    +0.000 A 
ENDBRANCH   1  12
BRANCH   1  18
ATOM     18  N   UNL     1       1.199   9.443  19.238  0.00  0.00    +0.000 N 
ATOM     19  C   UNL     1       1.393   8.425  20.148  0.00  0.00    +0.000 C 
ATOM     20  O   UNL     1       1.028   8.499  21.317  0.00  0.00    +0.000 OA
ATOM     21  H   UNL     1       1.166   9.227  18.251  0.00  0.00    +0.000 HD
BRANCH  19  22
ATOM     22  C   UNL     1       2.118   7.214  19.671  0.00  0.00    +0.000 A 
ATOM     23  C   UNL     1       2.911   7.237  18.516  0.00  0.00    +0.000 A 
ATOM     24  C   UNL     1       3.686   6.122  18.170  0.00  0.00    +0.000 A 
ATOM     25  C   UNL     1       3.669   4.981  18.987  0.00  0.00    +0.000 A 
ATOM     26  C   UNL     1       2.862   4.940  20.132  0.00  0.00    +0.000 A 
ATOM     27  C   UNL     1       2.093   6.060  20.471  0.00  0.00    +0.000 A 
BRANCH  25  28
ATOM     28  N   UNL     1       4.532   3.838  18.661  0.00  0.00    +0.000 N 
ATOM     29  O   UNL     1       4.251   3.171  17.655  0.00  0.00    +0.000 OA
ATOM     30  O   UNL     1       5.499   3.613  19.404  0.00  0.00    +0.000 OA
ENDBRANCH  25  28
ENDBRANCH  19  22
ENDBRANCH   1  18
TORSDOF 5
ENDMDL
MODEL 2
REMARK VINA RESULT:      -8.0      0.363      1.126
REMARK  Name = 
REMARK  6 active torsions:
REMARK  status: ('A' for Active; 'I' for Inactive)
REMARK    1  A    between atoms: C_1  and  N_2
REMARK    2  A    between atoms: C_3  and  C_4
REMARK    3  A    between atoms: C_4  and  N_5
REMARK    4  A    between atoms: C_4  and  C_17
REMARK    5  A    between atoms: C_6  and  C_8
REMARK    6  A    between atoms: C_11  and  N_12
REMARK                            x       y       z     vdW  Elec       q    Type
REMARK                         _______ _______ _______ _____ _____    ______ ____
ROOT
ATOM      1  C   UNL     1       0.497  10.680  19.700  0.00  0.00    +0.000 C 
ENDROOT
BRANCH   1   4
ATOM      2  C   UNL     1      -2.141  12.294  20.159  0.00  0.00    +0.000 C 
ATOM      3  N   UNL     1      -1.859  11.439  19.028  0.00  0.00    +0.000 N 
ATOM      4  C   UNL     1      -0.707  10.715  18.783  0.00  0.00    +0.000 A 
ATOM      5  N   UNL     1      -0.818  10.051  17.639  0.00  0.00    +0.000 NA
ATOM      6  C   UNL     1      -2.052  10.368  17.134  0.00  0.00    +0.000 A 
ATOM      7  C   UNL     1      -2.656   9.959  15.936  0.00  0.00    +0.000 A 
ATOM      8  C   UNL     1      -3.953  10.401  15.648  0.00  0.00    +0.000 A 
ATOM      9  C   UNL     1      -4.635  11.233  16.537  0.00  0.00    +0.000 A 
ATOM     10  C   UNL     1      -4.043  11.661  17.730  0.00  0.00    +0.000 A 
ATOM     11  C   UNL     1      -2.741  11.216  17.993  0.00  0.00    +0.000 A 
ENDBRANCH   1   4
BRANCH   1  12
ATOM     12  C   UNL     1       1.426  11.888  19.592  0.00  0.00    +0.000 A 
ATOM     13  C   UNL     1       1.617  12.697  20.729  0.00  0.00    +0.000 A 
ATOM     14  C   UNL     1       2.401  13.853  20.668  0.00  0.00    +0.000 A 
ATOM     15  C   UNL     1       3.022  14.213  19.476  0.00  0.00    +0.000 A 
ATOM     16  C   UNL     1       2.887  13.400  18.354  0.00  0.00    +0.000 A 
ATOM     17  C   UNL     1       2.106  12.241  18.414  0.00  0.00    +0.000 A 
ENDBRANCH   1  12
BRANCH   1  18
ATOM     18  N   UNL     1       1.230   9.453  19.439  0.00  0.00    +0.000 N 
ATOM     19  C   UNL     1       1.234   8.430  20.364  0.00  0.00    +0.000 C 
ATOM     20  O   UNL     1       0.653   8.504  21.442  0.00  0.00    +0.000 OA
ATOM     21  H   UNL     1       1.385   9.241  18.463  0.00  0.00    +0.000 HD
BRANCH  19  22
ATOM     22  C   UNL     1       2.022   7.211  20.027  0.00  0.00    +0.000 A 
ATOM     23  C   UNL     1       1.903   6.028  20.770  0.00  0.00    +0.000 A 
ATOM     24  C   UNL     1       2.554   4.861  20.347  0.00  0.00    +0.000 A 
ATOM     25  C   UNL     1       3.323   4.879  19.174  0.00  0.00    +0.000 A 
ATOM     26  C   UNL     1       3.467   6.062  18.437  0.00  0.00    +0.000 A 
ATOM     27  C   UNL     1       2.811   7.222  18.865  0.00  0.00    +0.000 A 
BRANCH  25  28
ATOM     28  N   UNL     1       3.950   3.639  18.695  0.00  0.00    +0.000 N 
ATOM     29  O   UNL     1       4.997   3.272  19.247  0.00  0.00    +0.000 OA
ATOM     30  O   UNL     1       3.390   3.027  17.774  0.00  0.00    +0.000 OA
ENDBRANCH  25  28
ENDBRANCH  19  22
ENDBRANCH   1  18
TORSDOF 5
ENDMDL
MODEL 3
REMARK VINA RESULT:      -8.0      0.227      1.084
REMARK  Name = 
REMARK  6 active torsions:
REMARK  status: ('A' for Active; 'I' for Inactive)
REMARK    1  A    between atoms: C_1  and  N_2
REMARK    2  A    between atoms: C_3  and  C_4
REMARK    3  A    between atoms: C_4  and  N_5
REMARK    4  A    between atoms: C_4  and  C_17
REMARK    5  A    between atoms: C_6  and  C_8
REMARK    6  A    between atoms: C_11  and  N_12
REMARK                            x       y       z     vdW  Elec       q    Type
REMARK                         _______ _______ _______ _____ _____    ______ ____
ROOT
ATOM      1  C   UNL     1       0.541  10.727  19.638  0.00  0.00    +0.000 C 
ENDROOT
BRANCH   1   4
ATOM      2  C   UNL     1      -2.082  12.249  20.399  0.00  0.00    +0.000 C 
ATOM      3  N   UNL     1      -1.863  11.498  19.185  0.00  0.00    +0.000 N 
ATOM      4  C   UNL     1      -0.721  10.817  18.806  0.00  0.00    +0.000 A 
ATOM      5  N   UNL     1      -0.899  10.249  17.620  0.00  0.00    +0.000 NA
ATOM      6  C   UNL     1      -2.167  10.585  17.223  0.00  0.00    +0.000 A 
ATOM      7  C   UNL     1      -2.843  10.267  16.036  0.00  0.00    +0.000 A 
ATOM      8  C   UNL     1      -4.161  10.708  15.870  0.00  0.00    +0.000 A 
ATOM      9  C   UNL     1      -4.794  11.451  16.868  0.00  0.00    +0.000 A 
ATOM     10  C   UNL     1      -4.130  11.788  18.052  0.00  0.00    +0.000 A 
ATOM     11  C   UNL     1      -2.808  11.346  18.193  0.00  0.00    +0.000 A 
ENDBRANCH   1   4
BRANCH   1  12
ATOM     12  C   UNL     1       1.430  11.970  19.597  0.00  0.00    +0.000 A 
ATOM     13  C   UNL     1       2.073  12.300  18.389  0.00  0.00    +0.000 A 
ATOM     14  C   UNL     1       2.951  13.385  18.313  0.00  0.00    +0.000 A 
ATOM     15  C   UNL     1       3.189  14.170  19.438  0.00  0.00    +0.000 A 
ATOM     16  C   UNL     1       2.524  13.891  20.628  0.00  0.00    +0.000 A 
ATOM     17  C   UNL     1       1.642  12.808  20.705  0.00  0.00    +0.000 A 
ENDBRANCH   1  12
BRANCH   1  18
ATOM     18  N   UNL     1       1.286   9.557  19.205  0.00  0.00    +0.000 N 
ATOM     19  C   UNL     1       1.394   8.454  20.026  0.00  0.00    +0.000 C 
ATOM     20  O   UNL     1       0.899   8.407  21.147  0.00  0.00    +0.000 OA
ATOM     21  H   UNL     1       1.368   9.442  18.204  0.00  0.00    +0.000 HD
BRANCH  19  22
ATOM     22  C   UNL     1       2.188   7.301  19.516  0.00  0.00    +0.000 A 
ATOM     23  C   UNL     1       2.953   7.393  18.345  0.00  0.00    +0.000 A 
ATOM     24  C   UNL     1       3.793   6.338  17.967  0.00  0.00    +0.000 A 
ATOM     25  C   UNL     1       3.869   5.187  18.766  0.00  0.00    +0.000 A 
ATOM     26  C   UNL     1       3.091   5.075  19.925  0.00  0.00    +0.000 A 
ATOM     27  C   UNL     1       2.257   6.136  20.297  0.00  0.00    +0.000 A 
BRANCH  25  28
ATOM     28  N   UNL     1       4.800   4.109  18.405  0.00  0.00    +0.000 N 
ATOM     29  O   UNL     1       5.886   4.060  19.002  0.00  0.00    +0.000 OA
ATOM     30  O   UNL     1       4.442   3.304  17.533  0.00  0.00    +0.000 OA
ENDBRANCH  25  28
ENDBRANCH  19  22
ENDBRANCH   1  18
TORSDOF 5
ENDMDL
MODEL 4
REMARK VINA RESULT:      -8.0      0.546      1.411
REMARK  Name = 
REMARK  6 active torsions:
REMARK  status: ('A' for Active; 'I' for Inactive)
REMARK    1  A    between atoms: C_1  and  N_2
REMARK    2  A    between atoms: C_3  and  C_4
REMARK    3  A    between atoms: C_4  and  N_5
REMARK    4  A    between atoms: C_4  and  C_17
REMARK    5  A    between atoms: C_6  and  C_8
REMARK    6  A    between atoms: C_11  and  N_12
REMARK                            x       y       z     vdW  Elec       q    Type
REMARK                         _______ _______ _______ _____ _____    ______ ____
ROOT
ATOM      1  C   UNL     1       0.516  10.598  19.611  0.00  0.00    +0.000 C 
ENDROOT
BRANCH   1   4
ATOM      2  C   UNL     1      -2.105  12.163  20.285  0.00  0.00    +0.000 C 
ATOM      3  N   UNL     1      -1.866  11.391  19.087  0.00  0.00    +0.000 N 
ATOM      4  C   UNL     1      -0.724  10.691  18.746  0.00  0.00    +0.000 A 
ATOM      5  N   UNL     1      -0.879  10.108  17.564  0.00  0.00    +0.000 NA
ATOM      6  C   UNL     1      -2.133  10.453  17.131  0.00  0.00    +0.000 A 
ATOM      7  C   UNL     1      -2.783  10.126  15.933  0.00  0.00    +0.000 A 
ATOM      8  C   UNL     1      -4.091  10.581  15.728  0.00  0.00    +0.000 A 
ATOM      9  C   UNL     1      -4.739  11.346  16.699  0.00  0.00    +0.000 A 
ATOM     10  C   UNL     1      -4.101  11.692  17.895  0.00  0.00    +0.000 A 
ATOM     11  C   UNL     1      -2.788  11.236  18.075  0.00  0.00    +0.000 A 
ENDBRANCH   1   4
BRANCH   1  12
ATOM     12  C   UNL     1       1.400  11.844  19.607  0.00  0.00    +0.000 A 
ATOM     13  C   UNL     1       2.038  12.216  18.408  0.00  0.00    +0.000 A 
ATOM     14  C   UNL     1       2.911  13.306  18.364  0.00  0.00    +0.000 A 
ATOM     15  C   UNL     1       3.151  14.056  19.512  0.00  0.00    +0.000 A 
ATOM     16  C   UNL     1       2.490  13.736  20.695  0.00  0.00    +0.000 A 
ATOM     17  C   UNL     1       1.613  12.648  20.740  0.00  0.00    +0.000 A 
ENDBRANCH   1  12
BRANCH   1  18
ATOM     18  N   UNL     1       1.278   9.436  19.186  0.00  0.00    +0.000 N 
ATOM     19  C   UNL     1       1.462   8.369  20.040  0.00  0.00    +0.000 C 
ATOM     20  O   UNL     1       1.022   8.350  21.186  0.00  0.00    +0.000 OA
ATOM     21  H   UNL     1       1.316   9.285  18.187  0.00  0.00    +0.000 HD
BRANCH  19  22
ATOM     22  C   UNL     1       2.267   7.222  19.535  0.00  0.00    +0.000 A 
ATOM     23  C   UNL     1       2.241   5.969  20.163  0.00  0.00    +0.000 A 
ATOM     24  C   UNL     1       2.902   4.877  19.586  0.00  0.00    +0.000 A 
ATOM     25  C   UNL     1       3.589   5.040  18.373  0.00  0.00    +0.000 A 
ATOM     26  C   UNL     1       3.640   6.293  17.749  0.00  0.00    +0.000 A 
ATOM     27  C   UNL     1       2.974   7.378  18.331  0.00  0.00    +0.000 A 
BRANCH  25  28
ATOM     28  N   UNL     1       4.225   3.880  17.734  0.00  0.00    +0.000 N 
ATOM     29  O   UNL     1       5.277   4.072  17.107  0.00  0.00    +0.000 OA
ATOM     30  O   UNL     1       3.680   2.774  17.869  0.00  0.00    +0.000 OA
ENDBRANCH  25  28
ENDBRANCH  19  22
ENDBRANCH   1  18
TORSDOF 5
ENDMDL
MODEL 5
REMARK VINA RESULT:      -7.9      3.030      8.831
REMARK  Name = 
REMARK  6 active torsions:
REMARK  status: ('A' for Active; 'I' for Inactive)
REMARK    1  A    between atoms: C_1  and  N_2
REMARK    2  A    between atoms: C_3  and  C_4
REMARK    3  A    between atoms: C_4  and  N_5
REMARK    4  A    between atoms: C_4  and  C_17
REMARK    5  A    between atoms: C_6  and  C_8
REMARK    6  A    between atoms: C_11  and  N_12
REMARK                            x       y       z     vdW  Elec       q    Type
REMARK                         _______ _______ _______ _____ _____    ______ ____
ROOT
ATOM      1  C   UNL     1       3.307   5.970  19.488  0.00  0.00    +0.000 C 
ENDROOT
BRANCH   1   4
ATOM      2  C   UNL     1       6.357   5.298  19.617  0.00  0.00    +0.000 C 
ATOM      3  N   UNL     1       5.561   5.382  18.414  0.00  0.00    +0.000 N 
ATOM      4  C   UNL     1       4.212   5.669  18.312  0.00  0.00    +0.000 A 
ATOM      5  N   UNL     1       3.835   5.653  17.040  0.00  0.00    +0.000 NA
ATOM      6  C   UNL     1       4.954   5.334  16.316  0.00  0.00    +0.000 A 
ATOM      7  C   UNL     1       5.100   5.159  14.932  0.00  0.00    +0.000 A 
ATOM      8  C   UNL     1       6.368   4.858  14.419  0.00  0.00    +0.000 A 
ATOM      9  C   UNL     1       7.468   4.735  15.268  0.00  0.00    +0.000 A 
ATOM     10  C   UNL     1       7.338   4.893  16.652  0.00  0.00    +0.000 A 
ATOM     11  C   UNL     1       6.059   5.183  17.145  0.00  0.00    +0.000 A 
ENDBRANCH   1   4
BRANCH   1  12
ATOM     12  C   UNL     1       2.491   4.781  19.994  0.00  0.00    +0.000 A 
ATOM     13  C   UNL     1       2.741   4.295  21.292  0.00  0.00    +0.000 A 
ATOM     14  C   UNL     1       2.073   3.168  21.780  0.00  0.00    +0.000 A 
ATOM     15  C   UNL     1       1.131   2.517  20.989  0.00  0.00    +0.000 A 
ATOM     16  C   UNL     1       0.832   3.013  19.723  0.00  0.00    +0.000 A 
ATOM     17  C   UNL     1       1.497   4.142  19.234  0.00  0.00    +0.000 A 
ENDBRANCH   1  12
BRANCH   1  18
ATOM     18  N   UNL     1       2.427   7.065  19.114  0.00  0.00    +0.000 N 
ATOM     19  C   UNL     1       1.879   7.882  20.080  0.00  0.00    +0.000 C 
ATOM     20  O   UNL     1       2.079   7.723  21.280  0.00  0.00    +0.000 OA
ATOM     21  H   UNL     1       2.552   7.418  18.175  0.00  0.00    +0.000 HD
BRANCH  19  22
ATOM     22  C   UNL     1       0.976   8.973  19.616  0.00  0.00    +0.000 A 
ATOM     23  C   UNL     1       0.778   9.237  18.254  0.00  0.00    +0.000 A 
ATOM     24  C   UNL     1      -0.179  10.177  17.849  0.00  0.00    +0.000 A 
ATOM     25  C   UNL     1      -0.943  10.852  18.813  0.00  0.00    +0.000 A 
ATOM     26  C   UNL     1      -0.737  10.612  20.178  0.00  0.00    +0.000 A 
ATOM     27  C   UNL     1       0.219   9.669  20.573  0.00  0.00    +0.000 A 
BRANCH  25  28
ATOM     28  N   UNL     1      -1.992  11.788  18.387  0.00  0.00    +0.000 N 
ATOM     29  O   UNL     1      -2.531  12.487  19.258  0.00  0.00    +0.000 OA
ATOM     30  O   UNL     1      -2.270  11.834  17.179  0.00  0.00    +0.000 OA
ENDBRANCH  25  28
ENDBRANCH  19  22
ENDBRANCH   1  18
TORSDOF 5
ENDMDL
MODEL 6
REMARK VINA RESULT:      -7.8      3.053      8.848
REMARK  Name = 
REMARK  6 active torsions:
REMARK  status: ('A' for Active; 'I' for Inactive)
REMARK    1  A    between atoms: C_1  and  N_2
REMARK    2  A    between atoms: C_3  and  C_4
REMARK    3  A    between atoms: C_4  and  N_5
REMARK    4  A    between atoms: C_4  and  C_17
REMARK    5  A    between atoms: C_6  and  C_8
REMARK    6  A    between atoms: C_11  and  N_12
REMARK                            x       y       z     vdW  Elec       q    Type
REMARK                         _______ _______ _______ _____ _____    ______ ____
ROOT
ATOM      1  C   UNL     1       3.402   5.919  19.515  0.00  0.00    +0.000 C 
ENDROOT
BRANCH   1   4
ATOM      2  C   UNL     1       6.483   5.390  19.570  0.00  0.00    +0.000 C 
ATOM      3  N   UNL     1       5.648   5.398  18.391  0.00  0.00    +0.000 N 
ATOM      4  C   UNL     1       4.285   5.620  18.322  0.00  0.00    +0.000 A 
ATOM      5  N   UNL     1       3.871   5.546  17.063  0.00  0.00    +0.000 NA
ATOM      6  C   UNL     1       4.982   5.253  16.315  0.00  0.00    +0.000 A 
ATOM      7  C   UNL     1       5.094   5.039  14.933  0.00  0.00    +0.000 A 
ATOM      8  C   UNL     1       6.358   4.777  14.391  0.00  0.00    +0.000 A 
ATOM      9  C   UNL     1       7.488   4.732  15.208  0.00  0.00    +0.000 A 
ATOM     10  C   UNL     1       7.392   4.930  16.590  0.00  0.00    +0.000 A 
ATOM     11  C   UNL     1       6.117   5.179  17.113  0.00  0.00    +0.000 A 
ENDBRANCH   1   4
BRANCH   1  12
ATOM     12  C   UNL     1       2.578   4.736  20.020  0.00  0.00    +0.000 A 
ATOM     13  C   UNL     1       1.596   4.188  19.174  0.00  0.00    +0.000 A 
ATOM     14  C   UNL     1       0.767   3.150  19.610  0.00  0.00    +0.000 A 
ATOM     15  C   UNL     1       0.915   2.629  20.892  0.00  0.00    +0.000 A 
ATOM     16  C   UNL     1       1.915   3.123  21.726  0.00  0.00    +0.000 A 
ATOM     17  C   UNL     1       2.747   4.159  21.290  0.00  0.00    +0.000 A 
ENDBRANCH   1  12
BRANCH   1  18
ATOM     18  N   UNL     1       2.533   7.031  19.168  0.00  0.00    +0.000 N 
ATOM     19  C   UNL     1       1.942   7.791  20.155  0.00  0.00    +0.000 C 
ATOM     20  O   UNL     1       2.095   7.566  21.352  0.00  0.00    +0.000 OA
ATOM     21  H   UNL     1       2.692   7.437  18.256  0.00  0.00    +0.000 HD
BRANCH  19  22
ATOM     22  C   UNL     1       1.052   8.903  19.718  0.00  0.00    +0.000 A 
ATOM     23  C   UNL     1       0.948   9.277  18.371  0.00  0.00    +0.000 A 
ATOM     24  C   UNL     1       0.003  10.234  17.975  0.00  0.00    +0.000 A 
ATOM     25  C   UNL     1      -0.843  10.813  18.932  0.00  0.00    +0.000 A 
ATOM     26  C   UNL     1      -0.732  10.463  20.284  0.00  0.00    +0.000 A 
ATOM     27  C   UNL     1       0.213   9.505  20.670  0.00  0.00    +0.000 A 
BRANCH  25  28
ATOM     28  N   UNL     1      -1.879  11.766  18.508  0.00  0.00    +0.000 N 
ATOM     29  O   UNL     1      -2.191  11.782  17.308  0.00  0.00    +0.000 OA
ATOM     30  O   UNL     1      -2.388  12.490  19.375  0.00  0.00    +0.000 OA
ENDBRANCH  25  28
ENDBRANCH  19  22
ENDBRANCH   1  18
TORSDOF 5
ENDMDL
MODEL 7
REMARK VINA RESULT:      -7.7      3.031      8.886
REMARK  Name = 
REMARK  6 active torsions:
REMARK  status: ('A' for Active; 'I' for Inactive)
REMARK    1  A    between atoms: C_1  and  N_2
REMARK    2  A    between atoms: C_3  and  C_4
REMARK    3  A    between atoms: C_4  and  N_5
REMARK    4  A    between atoms: C_4  and  C_17
REMARK    5  A    between atoms: C_6  and  C_8
REMARK    6  A    between atoms: C_11  and  N_12
REMARK                            x       y       z     vdW  Elec       q    Type
REMARK                         _______ _______ _______ _____ _____    ______ ____
ROOT
ATOM      1  C   UNL     1       3.353   5.886  19.483  0.00  0.00    +0.000 C 
ENDROOT
BRANCH   1   4
ATOM      2  C   UNL     1       6.435   5.365  19.550  0.00  0.00    +0.000 C 
ATOM      3  N   UNL     1       5.602   5.358  18.370  0.00  0.00    +0.000 N 
ATOM      4  C   UNL     1       4.239   5.576  18.295  0.00  0.00    +0.000 A 
ATOM      5  N   UNL     1       3.828   5.487  17.036  0.00  0.00    +0.000 NA
ATOM      6  C   UNL     1       4.941   5.188  16.294  0.00  0.00    +0.000 A 
ATOM      7  C   UNL     1       5.057   4.959  14.915  0.00  0.00    +0.000 A 
ATOM      8  C   UNL     1       6.323   4.695  14.378  0.00  0.00    +0.000 A 
ATOM      9  C   UNL     1       7.451   4.662  15.198  0.00  0.00    +0.000 A 
ATOM     10  C   UNL     1       7.352   4.875  16.578  0.00  0.00    +0.000 A 
ATOM     11  C   UNL     1       6.075   5.126  17.096  0.00  0.00    +0.000 A 
ENDBRANCH   1   4
BRANCH   1  12
ATOM     12  C   UNL     1       2.526   4.708  19.995  0.00  0.00    +0.000 A 
ATOM     13  C   UNL     1       2.800   4.198  21.279  0.00  0.00    +0.000 A 
ATOM     14  C   UNL     1       2.121   3.079  21.770  0.00  0.00    +0.000 A 
ATOM     15  C   UNL     1       1.144   2.460  20.996  0.00  0.00    +0.000 A 
ATOM     16  C   UNL     1       0.823   2.980  19.745  0.00  0.00    +0.000 A 
ATOM     17  C   UNL     1       1.498   4.101  19.254  0.00  0.00    +0.000 A 
ENDBRANCH   1  12
BRANCH   1  18
ATOM     18  N   UNL     1       2.486   6.996  19.125  0.00  0.00    +0.000 N 
ATOM     19  C   UNL     1       1.881   7.756  20.104  0.00  0.00    +0.000 C 
ATOM     20  O   UNL     1       2.019   7.531  21.302  0.00  0.00    +0.000 OA
ATOM     21  H   UNL     1       2.657   7.402  18.215  0.00  0.00    +0.000 HD
BRANCH  19  22
ATOM     22  C   UNL     1       0.995   8.866  19.654  0.00  0.00    +0.000 A 
ATOM     23  C   UNL     1       0.198   9.584  20.556  0.00  0.00    +0.000 A 
ATOM     24  C   UNL     1      -0.520  10.707  20.124  0.00  0.00    +0.000 A 
ATOM     25  C   UNL     1      -0.434  11.115  18.784  0.00  0.00    +0.000 A 
ATOM     26  C   UNL     1       0.343  10.391  17.870  0.00  0.00    +0.000 A 
ATOM     27  C   UNL     1       1.058   9.272  18.311  0.00  0.00    +0.000 A 
BRANCH  25  28
ATOM     28  N   UNL     1      -1.132  12.332  18.346  0.00  0.00    +0.000 N 
ATOM     29  O   UNL     1      -0.481  13.386  18.302  0.00  0.00    +0.000 OA
ATOM     30  O   UNL     1      -2.328  12.232  18.035  0.00  0.00    +0.000 OA
ENDBRANCH  25  28
ENDBRANCH  19  22
ENDBRANCH   1  18
TORSDOF 5
ENDMDL
MODEL 8
REMARK VINA RESULT:      -7.7      3.601      9.293
REMARK  Name = 
REMARK  6 active torsions:
REMARK  status: ('A' for Active; 'I' for Inactive)
REMARK    1  A    between atoms: C_1  and  N_2
REMARK    2  A    between atoms: C_3  and  C_4
REMARK    3  A    between atoms: C_4  and  N_5
REMARK    4  A    between atoms: C_4  and  C_17
REMARK    5  A    between atoms: C_6  and  C_8
REMARK    6  A    between atoms: C_11  and  N_12
REMARK                            x       y       z     vdW  Elec       q    Type
REMARK                         _______ _______ _______ _____ _____    ______ ____
ROOT
ATOM      1  C   UNL     1       4.404   4.853  17.797  0.00  0.00    +0.000 C 
ENDROOT
BRANCH   1   4
ATOM      2  C   UNL     1       7.075   6.251  16.971  0.00  0.00    +0.000 C 
ATOM      3  N   UNL     1       6.278   5.389  16.130  0.00  0.00    +0.000 N 
ATOM      4  C   UNL     1       5.098   4.746  16.456  0.00  0.00    +0.000 A 
ATOM      5  N   UNL     1       4.661   4.038  15.422  0.00  0.00    +0.000 NA
ATOM      6  C   UNL     1       5.584   4.213  14.424  0.00  0.00    +0.000 A 
ATOM      7  C   UNL     1       5.616   3.664  13.134  0.00  0.00    +0.000 A 
ATOM      8  C   UNL     1       6.663   4.019  12.274  0.00  0.00    +0.000 A 
ATOM      9  C   UNL     1       7.657   4.906  12.692  0.00  0.00    +0.000 A 
ATOM     10  C   UNL     1       7.647   5.453  13.979  0.00  0.00    +0.000 A 
ATOM     11  C   UNL     1       6.597   5.075  14.827  0.00  0.00    +0.000 A 
ENDBRANCH   1   4
BRANCH   1  12
ATOM     12  C   UNL     1       3.481   3.685  18.141  0.00  0.00    +0.000 A 
ATOM     13  C   UNL     1       2.104   3.813  17.877  0.00  0.00    +0.000 A 
ATOM     14  C   UNL     1       1.204   2.804  18.233  0.00  0.00    +0.000 A 
ATOM     15  C   UNL     1       1.666   1.642  18.844  0.00  0.00    +0.000 A 
ATOM     16  C   UNL     1       3.030   1.474  19.067  0.00  0.00    +0.000 A 
ATOM     17  C   UNL     1       3.931   2.481  18.708  0.00  0.00    +0.000 A 
ENDBRANCH   1  12
BRANCH   1  18
ATOM     18  N   UNL     1       3.668   6.106  17.828  0.00  0.00    +0.000 N 
ATOM     19  C   UNL     1       3.162   6.591  19.016  0.00  0.00    +0.000 C 
ATOM     20  O   UNL     1       3.282   5.997  20.083  0.00  0.00    +0.000 OA
ATOM     21  H   UNL     1       3.878   6.750  17.078  0.00  0.00    +0.000 HD
BRANCH  19  22
ATOM     22  C   UNL     1       2.407   7.874  18.961  0.00  0.00    +0.000 A 
ATOM     23  C   UNL     1       2.323   8.631  17.785  0.00  0.00    +0.000 A 
ATOM     24  C   UNL     1       1.496   9.760  17.729  0.00  0.00    +0.000 A 
ATOM     25  C   UNL     1       0.745  10.129  18.855  0.00  0.00    +0.000 A 
ATOM     26  C   UNL     1       0.839   9.393  20.043  0.00  0.00    +0.000 A 
ATOM     27  C   UNL     1       1.666   8.265  20.089  0.00  0.00    +0.000 A 
BRANCH  25  28
ATOM     28  N   UNL     1      -0.174  11.273  18.775  0.00  0.00    +0.000 N 
ATOM     29  O   UNL     1       0.309  12.383  18.508  0.00  0.00    +0.000 OA
ATOM     30  O   UNL     1      -1.380  11.060  18.968  0.00  0.00    +0.000 OA
ENDBRANCH  25  28
ENDBRANCH  19  22
ENDBRANCH   1  18
TORSDOF 5
ENDMDL
MODEL 9
REMARK VINA RESULT:      -7.6      3.614      9.322
REMARK  Name = 
REMARK  6 active torsions:
REMARK  status: ('A' for Active; 'I' for Inactive)
REMARK    1  A    between atoms: C_1  and  N_2
REMARK    2  A    between atoms: C_3  and  C_4
REMARK    3  A    between atoms: C_4  and  N_5
REMARK    4  A    between atoms: C_4  and  C_17
REMARK    5  A    between atoms: C_6  and  C_8
REMARK    6  A    between atoms: C_11  and  N_12
REMARK                            x       y       z     vdW  Elec       q    Type
REMARK                         _______ _______ _______ _____ _____    ______ ____
ROOT
ATOM      1  C   UNL     1       4.382   4.879  17.827  0.00  0.00    +0.000 C 
ENDROOT
BRANCH   1   4
ATOM      2  C   UNL     1       7.043   6.302  17.009  0.00  0.00    +0.000 C 
ATOM      3  N   UNL     1       6.261   5.425  16.169  0.00  0.00    +0.000 N 
ATOM      4  C   UNL     1       5.086   4.772  16.491  0.00  0.00    +0.000 A 
ATOM      5  N   UNL     1       4.663   4.052  15.458  0.00  0.00    +0.000 NA
ATOM      6  C   UNL     1       5.591   4.231  14.465  0.00  0.00    +0.000 A 
ATOM      7  C   UNL     1       5.638   3.674  13.179  0.00  0.00    +0.000 A 
ATOM      8  C   UNL     1       6.686   4.035  12.324  0.00  0.00    +0.000 A 
ATOM      9  C   UNL     1       7.667   4.935  12.742  0.00  0.00    +0.000 A 
ATOM     10  C   UNL     1       7.643   5.491  14.026  0.00  0.00    +0.000 A 
ATOM     11  C   UNL     1       6.592   5.107  14.869  0.00  0.00    +0.000 A 
ENDBRANCH   1   4
BRANCH   1  12
ATOM     12  C   UNL     1       3.489   3.692  18.183  0.00  0.00    +0.000 A 
ATOM     13  C   UNL     1       2.105   3.791  17.939  0.00  0.00    +0.000 A 
ATOM     14  C   UNL     1       1.233   2.763  18.309  0.00  0.00    +0.000 A 
ATOM     15  C   UNL     1       1.728   1.610  18.911  0.00  0.00    +0.000 A 
ATOM     16  C   UNL     1       3.098   1.471  19.114  0.00  0.00    +0.000 A 
ATOM     17  C   UNL     1       3.973   2.497  18.742  0.00  0.00    +0.000 A 
ENDBRANCH   1  12
BRANCH   1  18
ATOM     18  N   UNL     1       3.612   6.112  17.836  0.00  0.00    +0.000 N 
ATOM     19  C   UNL     1       3.093   6.604  19.015  0.00  0.00    +0.000 C 
ATOM     20  O   UNL     1       3.229   6.033  20.092  0.00  0.00    +0.000 OA
ATOM     21  H   UNL     1       3.804   6.748  17.073  0.00  0.00    +0.000 HD
BRANCH  19  22
ATOM     22  C   UNL     1       2.303   7.865  18.937  0.00  0.00    +0.000 A 
ATOM     23  C   UNL     1       1.537   8.323  20.018  0.00  0.00    +0.000 A 
ATOM     24  C   UNL     1       0.916   9.577  19.961  0.00  0.00    +0.000 A 
ATOM     25  C   UNL     1       1.067  10.378  18.819  0.00  0.00    +0.000 A 
ATOM     26  C   UNL     1       1.811   9.921  17.725  0.00  0.00    +0.000 A 
ATOM     27  C   UNL     1       2.431   8.667  17.791  0.00  0.00    +0.000 A 
BRANCH  25  28
ATOM     28  N   UNL     1       0.471  11.722  18.787  0.00  0.00    +0.000 N 
ATOM     29  O   UNL     1      -0.691  11.827  18.370  0.00  0.00    +0.000 OA
ATOM     30  O   UNL     1       1.161  12.669  19.190  0.00  0.00    +0.000 OA
ENDBRANCH  25  28
ENDBRANCH  19  22
ENDBRANCH   1  18
TORSDOF 5
ENDMDL
