MODEL 1
REMARK VINA RESULT:      -8.9      0.000      0.000
REMARK  Name = 
REMARK  4 active torsions:
REMARK  status: ('A' for Active; 'I' for Inactive)
REMARK    1  A    between atoms: C_2  and  C_4
REMARK    2  A    between atoms: C_8  and  N_9
REMARK    3  A    between atoms: C_10  and  C_12
REMARK    4  A    between atoms: C_14  and  C_15
REMARK                            x       y       z     vdW  Elec       q    Type
REMARK                         _______ _______ _______ _____ _____    ______ ____
ROOT
ATOM      1  C   UNL     1       2.864   6.331  18.758  0.00  0.00    +0.000 A 
ATOM      2  C   UNL     1       3.722   6.301  17.633  0.00  0.00    +0.000 A 
ATOM      3  C   UNL     1       4.282   5.093  17.219  0.00  0.00    +0.000 A 
ATOM      4  N   UNL     1       3.914   3.934  17.815  0.00  0.00    +0.000 NA
ATOM      5  C   UNL     1       2.983   3.936  18.767  0.00  0.00    +0.000 A 
ATOM      6  C   UNL     1       2.484   2.695  19.121  0.00  0.00    +0.000 A 
ATOM      7  C   UNL     1       1.449   2.563  20.040  0.00  0.00    +0.000 A 
ATOM      8  C   UNL     1       0.961   3.692  20.682  0.00  0.00    +0.000 A 
ATOM      9  C   UNL     1       1.463   4.953  20.349  0.00  0.00    +0.000 A 
ATOM     10  C   UNL     1       2.444   5.108  19.339  0.00  0.00    +0.000 A 
ENDROOT
BRANCH   3  11
ATOM     11  C   UNL     1       5.282   4.926  16.127  0.00  0.00    +0.000 A 
ATOM     12  C   UNL     1       4.953   4.248  14.940  0.00  0.00    +0.000 A 
ATOM     13  C   UNL     1       5.903   4.073  13.935  0.00  0.00    +0.000 A 
ATOM     14  C   UNL     1       7.174   4.589  14.126  0.00  0.00    +0.000 A 
ATOM     15  C   UNL     1       7.432   5.257  15.313  0.00  0.00    +0.000 A 
ATOM     16  N   UNL     1       6.530   5.431  16.314  0.00  0.00    +0.000 NA
ENDBRANCH   3  11
BRANCH   1  18
ATOM     17  N   UNL     1       1.785   8.486  18.052  0.00  0.00    +0.000 N 
ATOM     18  C   UNL     1       2.213   7.643  19.090  0.00  0.00    +0.000 C 
ATOM     19  O   UNL     1       2.078   7.872  20.289  0.00  0.00    +0.000 OA
ATOM     20  H   UNL     1       1.709   8.097  17.118  0.00  0.00    +0.000 HD
BRANCH  17  25
ATOM     21  C   UNL     1      -0.505  11.475  18.496  0.00  0.00    +0.000 A 
ATOM     22  C   UNL     1       0.421  12.514  18.621  0.00  0.00    +0.000 A 
ATOM     23  C   UNL     1       1.777  12.235  18.516  0.00  0.00    +0.000 A 
ATOM     24  C   UNL     1       2.218  10.920  18.319  0.00  0.00    +0.000 A 
ATOM     25  C   UNL     1       1.326   9.843  18.233  0.00  0.00    +0.000 A 
ATOM     26  C   UNL     1      -0.052  10.142  18.301  0.00  0.00    +0.000 A 
BRANCH  21  28
ATOM     27  N   UNL     1      -2.715  11.867  17.486  0.00  0.00    +0.000 N 
ATOM     28  C   UNL     1      -1.965  11.762  18.634  0.00  0.00    +0.000 C 
ATOM     29  O   UNL     1      -2.488  11.893  19.732  0.00  0.00    +0.000 OA
ATOM     30  H   UNL     1      -3.704  12.062  17.595  0.00  0.00    +0.000 HD
ATOM     31  H   UNL     1      -2.386  11.611  16.565  0.00  0.00    +0.000 HD
ENDBRANCH  21  28
ENDBRANCH  17  25
ENDBRANCH   1  18
TORSDOF 4
ENDMDL
MODEL 2
REMARK VINA RESULT:      -8.9      1.717      1.905
REMARK  Name = 
REMARK  4 active torsions:
REMARK  status: ('A' for Active; 'I' for Inactive)
REMARK    1  A    between atoms: C_2  and  C_4
REMARK    2  A    between atoms: C_8  and  N_9
REMARK    3  A    between atoms: C_10  and  C_12
REMARK    4  A    between atoms: C_14  and  C_15
REMARK                            x       y       z     vdW  Elec       q    Type
REMARK                         _______ _______ _______ _____ _____    ______ ____
ROOT
ATOM      1  C   UNL     1       2.885   6.208  18.957  0.00  0.00    +0.000 A 
ATOM      2  C   UNL     1       3.727   6.210  17.819  0.00  0.00    +0.000 A 
ATOM      3  C   UNL     1       4.337   5.027  17.405  0.00  0.00    +0.000 A 
ATOM      4  N   UNL     1       4.031   3.856  18.012  0.00  0.00    +0.000 NA
ATOM      5  C   UNL     1       3.115   3.821  18.977  0.00  0.00    +0.000 A 
ATOM      6  C   UNL     1       2.679   2.561  19.346  0.00  0.00    +0.000 A 
ATOM      7  C   UNL     1       1.665   2.387  20.281  0.00  0.00    +0.000 A 
ATOM      8  C   UNL     1       1.135   3.497  20.923  0.00  0.00    +0.000 A 
ATOM      9  C   UNL     1       1.573   4.778  20.576  0.00  0.00    +0.000 A 
ATOM     10  C   UNL     1       2.531   4.971  19.551  0.00  0.00    +0.000 A 
ENDROOT
BRANCH   3  11
ATOM     11  C   UNL     1       5.328   4.899  16.298  0.00  0.00    +0.000 A 
ATOM     12  C   UNL     1       4.980   4.291  15.080  0.00  0.00    +0.000 A 
ATOM     13  C   UNL     1       5.921   4.152  14.061  0.00  0.00    +0.000 A 
ATOM     14  C   UNL     1       7.202   4.632  14.271  0.00  0.00    +0.000 A 
ATOM     15  C   UNL     1       7.480   5.232  15.490  0.00  0.00    +0.000 A 
ATOM     16  N   UNL     1       6.586   5.370  16.504  0.00  0.00    +0.000 NA
ENDBRANCH   3  11
BRANCH   1  18
ATOM     17  N   UNL     1       1.842   7.769  20.624  0.00  0.00    +0.000 N 
ATOM     18  C   UNL     1       2.179   7.491  19.290  0.00  0.00    +0.000 C 
ATOM     19  O   UNL     1       1.966   8.235  18.336  0.00  0.00    +0.000 OA
ATOM     20  H   UNL     1       2.282   7.220  21.356  0.00  0.00    +0.000 HD
BRANCH  17  25
ATOM     21  C   UNL     1      -0.325  10.878  20.531  0.00  0.00    +0.000 A 
ATOM     22  C   UNL     1      -0.686  11.002  21.875  0.00  0.00    +0.000 A 
ATOM     23  C   UNL     1      -0.186  10.097  22.802  0.00  0.00    +0.000 A 
ATOM     24  C   UNL     1       0.649   9.050  22.391  0.00  0.00    +0.000 A 
ATOM     25  C   UNL     1       1.000   8.863  21.047  0.00  0.00    +0.000 A 
ATOM     26  C   UNL     1       0.518   9.811  20.119  0.00  0.00    +0.000 A 
BRANCH  21  28
ATOM     27  N   UNL     1      -0.564  11.632  18.200  0.00  0.00    +0.000 N 
ATOM     28  C   UNL     1      -0.880  11.833  19.523  0.00  0.00    +0.000 C 
ATOM     29  O   UNL     1      -1.603  12.762  19.856  0.00  0.00    +0.000 OA
ATOM     30  H   UNL     1      -0.947  12.287  17.528  0.00  0.00    +0.000 HD
ATOM     31  H   UNL     1      -0.114  10.802  17.841  0.00  0.00    +0.000 HD
ENDBRANCH  21  28
ENDBRANCH  17  25
ENDBRANCH   1  18
TORSDOF 4
ENDMDL
MODEL 3
REMARK VINA RESULT:      -8.8      3.036      7.980
REMARK  Name = 
REMARK  4 active torsions:
REMARK  status: ('A' for Active; 'I' for Inactive)
REMARK    1  A    between atoms: C_2  and  C_4
REMARK    2  A    between atoms: C_8  and  N_9
REMARK    3  A    between atoms: C_10  and  C_12
REMARK    4  A    between atoms: C_14  and  C_15
REMARK                            x       y       z     vdW  Elec       q    Type
REMARK                         _______ _______ _______ _____ _____    ______ ____
ROOT
ATOM      1  C   UNL     1       3.724   5.165  18.150  0.00  0.00    +0.000 A 
ATOM      2  C   UNL     1       3.343   6.526  18.228  0.00  0.00    +0.000 A 
ATOM      3  C   UNL     1       2.421   6.934  19.191  0.00  0.00    +0.000 A 
ATOM      4  N   UNL     1       1.984   6.060  20.127  0.00  0.00    +0.000 NA
ATOM      5  C   UNL     1       2.464   4.818  20.161  0.00  0.00    +0.000 A 
ATOM      6  C   UNL     1       2.167   4.091  21.299  0.00  0.00    +0.000 A 
ATOM      7  C   UNL     1       2.678   2.813  21.500  0.00  0.00    +0.000 A 
ATOM      8  C   UNL     1       3.432   2.218  20.499  0.00  0.00    +0.000 A 
ATOM      9  C   UNL     1       3.730   2.931  19.335  0.00  0.00    +0.000 A 
ATOM     10  C   UNL     1       3.302   4.271  19.166  0.00  0.00    +0.000 A 
ENDROOT
BRANCH   3  11
ATOM     11  C   UNL     1       1.846   8.304  19.320  0.00  0.00    +0.000 A 
ATOM     12  C   UNL     1       1.887   9.211  18.247  0.00  0.00    +0.000 A 
ATOM     13  C   UNL     1       1.371  10.498  18.385  0.00  0.00    +0.000 A 
ATOM     14  C   UNL     1       0.810  10.861  19.598  0.00  0.00    +0.000 A 
ATOM     15  C   UNL     1       0.790   9.918  20.614  0.00  0.00    +0.000 A 
ATOM     16  N   UNL     1       1.296   8.661  20.510  0.00  0.00    +0.000 NA
ENDBRANCH   3  11
BRANCH   1  18
ATOM     17  N   UNL     1       4.730   5.320  15.855  0.00  0.00    +0.000 N 
ATOM     18  C   UNL     1       4.795   4.807  17.160  0.00  0.00    +0.000 C 
ATOM     19  O   UNL     1       5.690   4.086  17.594  0.00  0.00    +0.000 OA
ATOM     20  H   UNL     1       4.103   6.098  15.674  0.00  0.00    +0.000 HD
BRANCH  17  25
ATOM     21  C   UNL     1       5.975   3.537  12.749  0.00  0.00    +0.000 A 
ATOM     22  C   UNL     1       7.245   4.100  12.599  0.00  0.00    +0.000 A 
ATOM     23  C   UNL     1       7.697   5.021  13.535  0.00  0.00    +0.000 A 
ATOM     24  C   UNL     1       6.877   5.408  14.602  0.00  0.00    +0.000 A 
ATOM     25  C   UNL     1       5.581   4.902  14.765  0.00  0.00    +0.000 A 
ATOM     26  C   UNL     1       5.145   3.937  13.832  0.00  0.00    +0.000 A 
BRANCH  21  28
ATOM     27  N   UNL     1       6.238   1.457  11.458  0.00  0.00    +0.000 N 
ATOM     28  C   UNL     1       5.470   2.565  11.732  0.00  0.00    +0.000 C 
ATOM     29  O   UNL     1       4.401   2.737  11.162  0.00  0.00    +0.000 OA
ATOM     30  H   UNL     1       5.882   0.807  10.767  0.00  0.00    +0.000 HD
ATOM     31  H   UNL     1       7.040   1.172  12.003  0.00  0.00    +0.000 HD
ENDBRANCH  21  28
ENDBRANCH  17  25
ENDBRANCH   1  18
TORSDOF 4
ENDMDL
MODEL 4
REMARK VINA RESULT:      -8.8      1.548      2.041
REMARK  Name = 
REMARK  4 active torsions:
REMARK  status: ('A' for Active; 'I' for Inactive)
REMARK    1  A    between atoms: C_2  and  C_4
REMARK    2  A    between atoms: C_8  and  N_9
REMARK    3  A    between atoms: C_10  and  C_12
REMARK    4  A    between atoms: C_14  and  C_15
REMARK                            x       y       z     vdW  Elec       q    Type
REMARK                         _______ _______ _______ _____ _____    ______ ____
ROOT
ATOM      1  C   UNL     1       2.858   6.295  18.842  0.00  0.00    +0.000 A 
ATOM      2  C   UNL     1       3.708   6.283  17.710  0.00  0.00    +0.000 A 
ATOM      3  C   UNL     1       4.299   5.089  17.300  0.00  0.00    +0.000 A 
ATOM      4  N   UNL     1       3.970   3.923  17.904  0.00  0.00    +0.000 NA
ATOM      5  C   UNL     1       3.046   3.904  18.863  0.00  0.00    +0.000 A 
ATOM      6  C   UNL     1       2.586   2.651  19.228  0.00  0.00    +0.000 A 
ATOM      7  C   UNL     1       1.562   2.495  20.155  0.00  0.00    +0.000 A 
ATOM      8  C   UNL     1       1.047   3.613  20.795  0.00  0.00    +0.000 A 
ATOM      9  C   UNL     1       1.509   4.886  20.451  0.00  0.00    +0.000 A 
ATOM     10  C   UNL     1       2.478   5.063  19.433  0.00  0.00    +0.000 A 
ENDROOT
BRANCH   3  11
ATOM     11  C   UNL     1       5.296   4.945  16.200  0.00  0.00    +0.000 A 
ATOM     12  C   UNL     1       4.940   4.363  14.972  0.00  0.00    +0.000 A 
ATOM     13  C   UNL     1       5.886   4.208  13.959  0.00  0.00    +0.000 A 
ATOM     14  C   UNL     1       7.179   4.647  14.186  0.00  0.00    +0.000 A 
ATOM     15  C   UNL     1       7.464   5.223  15.414  0.00  0.00    +0.000 A 
ATOM     16  N   UNL     1       6.566   5.375  16.422  0.00  0.00    +0.000 NA
ENDBRANCH   3  11
BRANCH   1  18
ATOM     17  N   UNL     1       1.716   8.415  18.132  0.00  0.00    +0.000 N 
ATOM     18  C   UNL     1       2.171   7.589  19.172  0.00  0.00    +0.000 C 
ATOM     19  O   UNL     1       2.035   7.819  20.371  0.00  0.00    +0.000 OA
ATOM     20  H   UNL     1       1.648   8.021  17.200  0.00  0.00    +0.000 HD
BRANCH  17  25
ATOM     21  C   UNL     1       1.619  12.171  18.641  0.00  0.00    +0.000 A 
ATOM     22  C   UNL     1       0.244  12.415  18.629  0.00  0.00    +0.000 A 
ATOM     23  C   UNL     1      -0.637  11.349  18.498  0.00  0.00    +0.000 A 
ATOM     24  C   UNL     1      -0.152  10.044  18.348  0.00  0.00    +0.000 A 
ATOM     25  C   UNL     1       1.220   9.760  18.310  0.00  0.00    +0.000 A 
ATOM     26  C   UNL     1       2.106  10.845  18.483  0.00  0.00    +0.000 A 
BRANCH  21  28
ATOM     27  N   UNL     1       3.059  13.874  17.595  0.00  0.00    +0.000 N 
ATOM     28  C   UNL     1       2.575  13.316  18.755  0.00  0.00    +0.000 C 
ATOM     29  O   UNL     1       2.915  13.754  19.845  0.00  0.00    +0.000 OA
ATOM     30  H   UNL     1       3.705  14.648  17.688  0.00  0.00    +0.000 HD
ATOM     31  H   UNL     1       2.698  13.671  16.673  0.00  0.00    +0.000 HD
ENDBRANCH  21  28
ENDBRANCH  17  25
ENDBRANCH   1  18
TORSDOF 4
ENDMDL
MODEL 5
REMARK VINA RESULT:      -8.7      2.924      8.098
REMARK  Name = 
REMARK  4 active torsions:
REMARK  status: ('A' for Active; 'I' for Inactive)
REMARK    1  A    between atoms: C_2  and  C_4
REMARK    2  A    between atoms: C_8  and  N_9
REMARK    3  A    between atoms: C_10  and  C_12
REMARK    4  A    between atoms: C_14  and  C_15
REMARK                            x       y       z     vdW  Elec       q    Type
REMARK                         _______ _______ _______ _____ _____    ______ ____
ROOT
ATOM      1  C   UNL     1       3.078   6.041  18.607  0.00  0.00    +0.000 A 
ATOM      2  C   UNL     1       2.608   7.284  19.096  0.00  0.00    +0.000 A 
ATOM      3  C   UNL     1       1.796   7.322  20.228  0.00  0.00    +0.000 A 
ATOM      4  N   UNL     1       1.555   6.190  20.930  0.00  0.00    +0.000 NA
ATOM      5  C   UNL     1       2.128   5.044  20.570  0.00  0.00    +0.000 A 
ATOM      6  C   UNL     1       2.041   4.014  21.491  0.00  0.00    +0.000 A 
ATOM      7  C   UNL     1       2.669   2.793  21.277  0.00  0.00    +0.000 A 
ATOM      8  C   UNL     1       3.326   2.567  20.075  0.00  0.00    +0.000 A 
ATOM      9  C   UNL     1       3.411   3.589  19.126  0.00  0.00    +0.000 A 
ATOM     10  C   UNL     1       2.865   4.871  19.379  0.00  0.00    +0.000 A 
ENDROOT
BRANCH   3  11
ATOM     11  C   UNL     1       1.141   8.539  20.789  0.00  0.00    +0.000 A 
ATOM     12  C   UNL     1       0.644   8.553  22.103  0.00  0.00    +0.000 A 
ATOM     13  C   UNL     1       0.009   9.686  22.610  0.00  0.00    +0.000 A 
ATOM     14  C   UNL     1      -0.112  10.799  21.796  0.00  0.00    +0.000 A 
ATOM     15  C   UNL     1       0.410  10.726  20.513  0.00  0.00    +0.000 A 
ATOM     16  N   UNL     1       1.021   9.631  19.990  0.00  0.00    +0.000 NA
ENDBRANCH   3  11
BRANCH   1  18
ATOM     17  N   UNL     1       4.246   4.910  16.694  0.00  0.00    +0.000 N 
ATOM     18  C   UNL     1       4.031   6.075  17.447  0.00  0.00    +0.000 C 
ATOM     19  O   UNL     1       4.547   7.167  17.225  0.00  0.00    +0.000 OA
ATOM     20  H   UNL     1       3.589   4.142  16.797  0.00  0.00    +0.000 HD
BRANCH  17  25
ATOM     21  C   UNL     1       6.028   3.897  13.504  0.00  0.00    +0.000 A 
ATOM     22  C   UNL     1       7.278   4.493  13.687  0.00  0.00    +0.000 A 
ATOM     23  C   UNL     1       7.540   5.181  14.864  0.00  0.00    +0.000 A 
ATOM     24  C   UNL     1       6.551   5.305  15.848  0.00  0.00    +0.000 A 
ATOM     25  C   UNL     1       5.270   4.761  15.687  0.00  0.00    +0.000 A 
ATOM     26  C   UNL     1       5.026   4.029  14.504  0.00  0.00    +0.000 A 
BRANCH  21  28
ATOM     27  N   UNL     1       6.645   2.258  11.773  0.00  0.00    +0.000 N 
ATOM     28  C   UNL     1       5.728   3.176  12.229  0.00  0.00    +0.000 C 
ATOM     29  O   UNL     1       4.695   3.385  11.607  0.00  0.00    +0.000 OA
ATOM     30  H   UNL     1       6.428   1.777  10.908  0.00  0.00    +0.000 HD
ATOM     31  H   UNL     1       7.430   1.921  12.314  0.00  0.00    +0.000 HD
ENDBRANCH  21  28
ENDBRANCH  17  25
ENDBRANCH   1  18
TORSDOF 4
ENDMDL
MODEL 6
REMARK VINA RESULT:      -8.6      2.192      2.456
REMARK  Name = 
REMARK  4 active torsions:
REMARK  status: ('A' for Active; 'I' for Inactive)
REMARK    1  A    between atoms: C_2  and  C_4
REMARK    2  A    between atoms: C_8  and  N_9
REMARK    3  A    between atoms: C_10  and  C_12
REMARK    4  A    between atoms: C_14  and  C_15
REMARK                            x       y       z     vdW  Elec       q    Type
REMARK                         _______ _______ _______ _____ _____    ______ ____
ROOT
ATOM      1  C   UNL     1       3.620   6.281  17.982  0.00  0.00    +0.000 A 
ATOM      2  C   UNL     1       4.253   6.181  16.720  0.00  0.00    +0.000 A 
ATOM      3  C   UNL     1       4.924   5.010  16.371  0.00  0.00    +0.000 A 
ATOM      4  N   UNL     1       4.870   3.928  17.184  0.00  0.00    +0.000 NA
ATOM      5  C   UNL     1       4.140   3.961  18.296  0.00  0.00    +0.000 A 
ATOM      6  C   UNL     1       3.930   2.741  18.913  0.00  0.00    +0.000 A 
ATOM      7  C   UNL     1       3.115   2.624  20.033  0.00  0.00    +0.000 A 
ATOM      8  C   UNL     1       2.568   3.767  20.599  0.00  0.00    +0.000 A 
ATOM      9  C   UNL     1       2.782   5.011  20.000  0.00  0.00    +0.000 A 
ATOM     10  C   UNL     1       3.524   5.127  18.799  0.00  0.00    +0.000 A 
ENDROOT
BRANCH   3  11
ATOM     11  C   UNL     1       5.724   4.801  15.131  0.00  0.00    +0.000 A 
ATOM     12  C   UNL     1       5.296   3.908  14.134  0.00  0.00    +0.000 A 
ATOM     13  C   UNL     1       6.064   3.699  12.989  0.00  0.00    +0.000 A 
ATOM     14  C   UNL     1       7.252   4.396  12.852  0.00  0.00    +0.000 A 
ATOM     15  C   UNL     1       7.614   5.271  13.864  0.00  0.00    +0.000 A 
ATOM     16  N   UNL     1       6.892   5.484  14.995  0.00  0.00    +0.000 NA
ENDBRANCH   3  11
BRANCH   1  18
ATOM     17  N   UNL     1       2.245   7.714  19.519  0.00  0.00    +0.000 N 
ATOM     18  C   UNL     1       2.828   7.528  18.256  0.00  0.00    +0.000 C 
ATOM     19  O   UNL     1       2.772   8.327  17.325  0.00  0.00    +0.000 OA
ATOM     20  H   UNL     1       2.560   7.127  20.285  0.00  0.00    +0.000 HD
BRANCH  17  25
ATOM     21  C   UNL     1      -0.035  10.009  21.496  0.00  0.00    +0.000 A 
ATOM     22  C   UNL     1      -0.513  10.853  20.491  0.00  0.00    +0.000 A 
ATOM     23  C   UNL     1      -0.121  10.639  19.177  0.00  0.00    +0.000 A 
ATOM     24  C   UNL     1       0.770   9.606  18.862  0.00  0.00    +0.000 A 
ATOM     25  C   UNL     1       1.308   8.764  19.844  0.00  0.00    +0.000 A 
ATOM     26  C   UNL     1       0.873   8.964  21.172  0.00  0.00    +0.000 A 
BRANCH  21  28
ATOM     27  N   UNL     1      -1.518  11.055  23.160  0.00  0.00    +0.000 N 
ATOM     28  C   UNL     1      -0.431  10.248  22.918  0.00  0.00    +0.000 C 
ATOM     29  O   UNL     1       0.182   9.736  23.845  0.00  0.00    +0.000 OA
ATOM     30  H   UNL     1      -1.775  11.208  24.128  0.00  0.00    +0.000 HD
ATOM     31  H   UNL     1      -2.161  11.372  22.448  0.00  0.00    +0.000 HD
ENDBRANCH  21  28
ENDBRANCH  17  25
ENDBRANCH   1  18
TORSDOF 4
ENDMDL
MODEL 7
REMARK VINA RESULT:      -8.6      2.215      2.590
REMARK  Name = 
REMARK  4 active torsions:
REMARK  status: ('A' for Active; 'I' for Inactive)
REMARK    1  A    between atoms: C_2  and  C_4
REMARK    2  A    between atoms: C_8  and  N_9
REMARK    3  A    between atoms: C_10  and  C_12
REMARK    4  A    between atoms: C_14  and  C_15
REMARK                            x       y       z     vdW  Elec       q    Type
REMARK                         _______ _______ _______ _____ _____    ______ ____
ROOT
ATOM      1  C   UNL     1       2.860   6.180  19.139  0.00  0.00    +0.000 A 
ATOM      2  C   UNL     1       3.693   6.208  17.995  0.00  0.00    +0.000 A 
ATOM      3  C   UNL     1       4.288   5.032  17.540  0.00  0.00    +0.000 A 
ATOM      4  N   UNL     1       3.974   3.846  18.114  0.00  0.00    +0.000 NA
ATOM      5  C   UNL     1       3.064   3.791  19.084  0.00  0.00    +0.000 A 
ATOM      6  C   UNL     1       2.618   2.524  19.417  0.00  0.00    +0.000 A 
ATOM      7  C   UNL     1       1.609   2.333  20.354  0.00  0.00    +0.000 A 
ATOM      8  C   UNL     1       1.095   3.427  21.034  0.00  0.00    +0.000 A 
ATOM      9  C   UNL     1       1.544   4.714  20.723  0.00  0.00    +0.000 A 
ATOM     10  C   UNL     1       2.497   4.929  19.697  0.00  0.00    +0.000 A 
ENDROOT
BRANCH   3  11
ATOM     11  C   UNL     1       5.270   4.928  16.423  0.00  0.00    +0.000 A 
ATOM     12  C   UNL     1       6.567   5.455  16.548  0.00  0.00    +0.000 A 
ATOM     13  C   UNL     1       7.470   5.377  15.488  0.00  0.00    +0.000 A 
ATOM     14  C   UNL     1       7.065   4.762  14.316  0.00  0.00    +0.000 A 
ATOM     15  C   UNL     1       5.778   4.252  14.260  0.00  0.00    +0.000 A 
ATOM     16  N   UNL     1       4.874   4.325  15.271  0.00  0.00    +0.000 NA
ENDBRANCH   3  11
BRANCH   1  18
ATOM     17  N   UNL     1       1.941   7.748  20.871  0.00  0.00    +0.000 N 
ATOM     18  C   UNL     1       2.169   7.459  19.517  0.00  0.00    +0.000 C 
ATOM     19  O   UNL     1       1.869   8.189  18.576  0.00  0.00    +0.000 OA
ATOM     20  H   UNL     1       2.447   7.212  21.569  0.00  0.00    +0.000 HD
BRANCH  17  25
ATOM     21  C   UNL     1       0.542  11.235  21.382  0.00  0.00    +0.000 A 
ATOM     22  C   UNL     1      -0.504  10.983  22.274  0.00  0.00    +0.000 A 
ATOM     23  C   UNL     1      -0.714   9.689  22.731  0.00  0.00    +0.000 A 
ATOM     24  C   UNL     1       0.094   8.638  22.279  0.00  0.00    +0.000 A 
ATOM     25  C   UNL     1       1.125   8.838  21.352  0.00  0.00    +0.000 A 
ATOM     26  C   UNL     1       1.356  10.163  20.923  0.00  0.00    +0.000 A 
BRANCH  21  28
ATOM     27  N   UNL     1      -0.206  13.167  20.052  0.00  0.00    +0.000 N 
ATOM     28  C   UNL     1       0.759  12.620  20.865  0.00  0.00    +0.000 C 
ATOM     29  O   UNL     1       1.760  13.260  21.159  0.00  0.00    +0.000 OA
ATOM     30  H   UNL     1      -0.045  14.107  19.709  0.00  0.00    +0.000 HD
ATOM     31  H   UNL     1      -1.121  12.764  19.904  0.00  0.00    +0.000 HD
ENDBRANCH  21  28
ENDBRANCH  17  25
ENDBRANCH   1  18
TORSDOF 4
ENDMDL
MODEL 8
REMARK VINA RESULT:      -8.5      1.292      1.363
REMARK  Name = 
REMARK  4 active torsions:
REMARK  status: ('A' for Active; 'I' for Inactive)
REMARK    1  A    between atoms: C_2  and  C_4
REMARK    2  A    between atoms: C_8  and  N_9
REMARK    3  A    between atoms: C_10  and  C_12
REMARK    4  A    between atoms: C_14  and  C_15
REMARK                            x       y       z     vdW  Elec       q    Type
REMARK                         _______ _______ _______ _____ _____    ______ ____
ROOT
ATOM      1  C   UNL     1       2.938   6.956  18.344  0.00  0.00    +0.000 A 
ATOM      2  C   UNL     1       3.777   6.768  17.220  0.00  0.00    +0.000 A 
ATOM      3  C   UNL     1       4.396   5.536  17.014  0.00  0.00    +0.000 A 
ATOM      4  N   UNL     1       4.102   4.485  17.815  0.00  0.00    +0.000 NA
ATOM      5  C   UNL     1       3.188   4.610  18.775  0.00  0.00    +0.000 A 
ATOM      6  C   UNL     1       2.765   3.429  19.358  0.00  0.00    +0.000 A 
ATOM      7  C   UNL     1       1.754   3.411  20.312  0.00  0.00    +0.000 A 
ATOM      8  C   UNL     1       1.216   4.610  20.755  0.00  0.00    +0.000 A 
ATOM      9  C   UNL     1       1.642   5.815  20.191  0.00  0.00    +0.000 A 
ATOM     10  C   UNL     1       2.596   5.837  19.144  0.00  0.00    +0.000 A 
ENDROOT
BRANCH   3  11
ATOM     11  C   UNL     1       5.386   5.228  15.942  0.00  0.00    +0.000 A 
ATOM     12  C   UNL     1       5.088   4.306  14.924  0.00  0.00    +0.000 A 
ATOM     13  C   UNL     1       6.030   4.004  13.941  0.00  0.00    +0.000 A 
ATOM     14  C   UNL     1       7.260   4.636  13.985  0.00  0.00    +0.000 A 
ATOM     15  C   UNL     1       7.489   5.544  15.008  0.00  0.00    +0.000 A 
ATOM     16  N   UNL     1       6.595   5.848  15.985  0.00  0.00    +0.000 NA
ENDBRANCH   3  11
BRANCH   1  18
ATOM     17  N   UNL     1       1.600   8.622  19.664  0.00  0.00    +0.000 N 
ATOM     18  C   UNL     1       2.221   8.271  18.454  0.00  0.00    +0.000 C 
ATOM     19  O   UNL     1       2.258   8.973  17.447  0.00  0.00    +0.000 OA
ATOM     20  H   UNL     1       1.843   8.098  20.498  0.00  0.00    +0.000 HD
BRANCH  17  25
ATOM     21  C   UNL     1      -1.145  11.166  19.062  0.00  0.00    +0.000 A 
ATOM     22  C   UNL     1      -1.024  11.975  20.195  0.00  0.00    +0.000 A 
ATOM     23  C   UNL     1      -0.022  11.708  21.119  0.00  0.00    +0.000 A 
ATOM     24  C   UNL     1       0.839  10.619  20.936  0.00  0.00    +0.000 A 
ATOM     25  C   UNL     1       0.724   9.757  19.837  0.00  0.00    +0.000 A 
ATOM     26  C   UNL     1      -0.271  10.059  18.883  0.00  0.00    +0.000 A 
BRANCH  21  28
ATOM     27  N   UNL     1      -1.887  11.620  16.758  0.00  0.00    +0.000 N 
ATOM     28  C   UNL     1      -2.237  11.431  18.075  0.00  0.00    +0.000 C 
ATOM     29  O   UNL     1      -3.410  11.471  18.419  0.00  0.00    +0.000 OA
ATOM     30  H   UNL     1      -2.638  11.798  16.101  0.00  0.00    +0.000 HD
ATOM     31  H   UNL     1      -0.967  11.440  16.383  0.00  0.00    +0.000 HD
ENDBRANCH  21  28
ENDBRANCH  17  25
ENDBRANCH   1  18
TORSDOF 4
ENDMDL
MODEL 9
REMARK VINA RESULT:      -8.5      2.872      8.344
REMARK  Name = 
REMARK  4 active torsions:
REMARK  status: ('A' for Active; 'I' for Inactive)
REMARK    1  A    between atoms: C_2  and  C_4
REMARK    2  A    between atoms: C_8  and  N_9
REMARK    3  A    between atoms: C_10  and  C_12
REMARK    4  A    between atoms: C_14  and  C_15
REMARK                            x       y       z     vdW  Elec       q    Type
REMARK                         _______ _______ _______ _____ _____    ______ ____
ROOT
ATOM      1  C   UNL     1       1.156  10.121  19.051  0.00  0.00    +0.000 A 
ATOM      2  C   UNL     1       1.713  11.344  18.606  0.00  0.00    +0.000 A 
ATOM      3  C   UNL     1       1.422  12.526  19.286  0.00  0.00    +0.000 A 
ATOM      4  N   UNL     1       0.710  12.491  20.437  0.00  0.00    +0.000 NA
ATOM      5  C   UNL     1       0.322  11.325  20.949  0.00  0.00    +0.000 A 
ATOM      6  C   UNL     1      -0.157  11.370  22.246  0.00  0.00    +0.000 A 
ATOM      7  C   UNL     1      -0.515  10.213  22.929  0.00  0.00    +0.000 A 
ATOM      8  C   UNL     1      -0.474   8.994  22.269  0.00  0.00    +0.000 A 
ATOM      9  C   UNL     1      -0.007   8.930  20.954  0.00  0.00    +0.000 A 
ATOM     10  C   UNL     1       0.458  10.088  20.284  0.00  0.00    +0.000 A 
ENDROOT
BRANCH   3  11
ATOM     11  C   UNL     1       1.844  13.895  18.871  0.00  0.00    +0.000 A 
ATOM     12  C   UNL     1       3.074  14.109  18.225  0.00  0.00    +0.000 A 
ATOM     13  C   UNL     1       3.472  15.396  17.865  0.00  0.00    +0.000 A 
ATOM     14  C   UNL     1       2.627  16.455  18.149  0.00  0.00    +0.000 A 
ATOM     15  C   UNL     1       1.423  16.177  18.777  0.00  0.00    +0.000 A 
ATOM     16  N   UNL     1       1.016  14.936  19.150  0.00  0.00    +0.000 NA
ENDBRANCH   3  11
BRANCH   1  18
ATOM     17  N   UNL     1       2.168   7.823  19.073  0.00  0.00    +0.000 N 
ATOM     18  C   UNL     1       1.589   8.870  18.340  0.00  0.00    +0.000 C 
ATOM     19  O   UNL     1       1.371   8.853  17.132  0.00  0.00    +0.000 OA
ATOM     20  H   UNL     1       2.071   7.831  20.083  0.00  0.00    +0.000 HD
BRANCH  17  25
ATOM     21  C   UNL     1       2.803   4.246  17.984  0.00  0.00    +0.000 A 
ATOM     22  C   UNL     1       4.018   4.377  17.309  0.00  0.00    +0.000 A 
ATOM     23  C   UNL     1       4.638   5.618  17.252  0.00  0.00    +0.000 A 
ATOM     24  C   UNL     1       4.036   6.738  17.839  0.00  0.00    +0.000 A 
ATOM     25  C   UNL     1       2.796   6.661  18.488  0.00  0.00    +0.000 A 
ATOM     26  C   UNL     1       2.194   5.388  18.575  0.00  0.00    +0.000 A 
BRANCH  21  28
ATOM     27  N   UNL     1       2.885   1.788  17.886  0.00  0.00    +0.000 N 
ATOM     28  C   UNL     1       2.116   2.919  18.028  0.00  0.00    +0.000 C 
ATOM     29  O   UNL     1       0.907   2.833  18.195  0.00  0.00    +0.000 OA
ATOM     30  H   UNL     1       2.405   0.895  17.918  0.00  0.00    +0.000 HD
ATOM     31  H   UNL     1       3.895   1.779  17.910  0.00  0.00    +0.000 HD
ENDBRANCH  21  28
ENDBRANCH  17  25
ENDBRANCH   1  18
TORSDOF 4
ENDMDL
