MODEL 1
REMARK VINA RESULT:      -8.1      0.000      0.000
REMARK  Name = 
REMARK  4 active torsions:
REMARK  status: ('A' for Active; 'I' for Inactive)
REMARK    1  A    between atoms: N_11  and  C_12
REMARK    2  A    between atoms: C_12  and  C_13
REMARK    3  A    between atoms: N_15  and  C_16
REMARK    4  A    between atoms: C_23  and  C_24
REMARK                            x       y       z     vdW  Elec       q    Type
REMARK                         _______ _______ _______ _____ _____    ______ ____
ROOT
ATOM      1  C   UNL     1       4.261   6.833  18.124  0.00  0.00    +0.000 A 
ATOM      2  C   UNL     1       3.590   8.036  18.161  0.00  0.00    +0.000 A 
ATOM      3  N   UNL     1       2.291   7.781  18.516  0.00  0.00    +0.000 N 
ATOM      4  N   UNL     1       2.089   6.455  18.708  0.00  0.00    +0.000 NA
ATOM      5  C   UNL     1       3.255   5.858  18.404  0.00  0.00    +0.000 A 
ENDROOT
BRANCH   3   6
ATOM      6  C   UNL     1       1.257   8.740  18.713  0.00  0.00    +0.000 A 
ATOM      7  C   UNL     1       0.984   9.249  19.992  0.00  0.00    +0.000 A 
ATOM      8  C   UNL     1      -0.037  10.181  20.177  0.00  0.00    +0.000 A 
ATOM      9  C   UNL     1      -0.800  10.605  19.092  0.00  0.00    +0.000 A 
ATOM     10  C   UNL     1      -0.540  10.100  17.818  0.00  0.00    +0.000 A 
ATOM     11  C   UNL     1       0.489   9.174  17.623  0.00  0.00    +0.000 A 
ENDBRANCH   3   6
BRANCH   5  12
ATOM     12  C   UNL     1       3.377   4.394  18.417  0.00  0.00    +0.000 A 
ATOM     13  C   UNL     1       2.792   3.609  17.417  0.00  0.00    +0.000 A 
ATOM     14  C   UNL     1       2.920   2.218  17.413  0.00  0.00    +0.000 A 
ATOM     15  C   UNL     1       3.613   1.589  18.436  0.00  0.00    +0.000 A 
ATOM     16  C   UNL     1       4.179   2.351  19.461  0.00  0.00    +0.000 A 
ATOM     17  C   UNL     1       4.063   3.743  19.451  0.00  0.00    +0.000 A 
ENDBRANCH   5  12
BRANCH   1  18
ATOM     18  C   UNL     1       5.718   6.672  17.870  0.00  0.00    +0.000 C 
BRANCH  18  29
ATOM     19  O   UNL     1       7.335   4.326  18.207  0.00  0.00    +0.000 OA
ATOM     20  C   UNL     1       6.844   4.627  17.132  0.00  0.00    +0.000 C 
ATOM     21  N   UNL     1       7.065   3.923  15.974  0.00  0.00    +0.000 N 
ATOM     22  C   UNL     1       6.336   4.468  14.862  0.00  0.00    +0.000 C 
ATOM     23  C   UNL     1       5.197   3.545  14.416  0.00  0.00    +0.000 C 
ATOM     24  C   UNL     1       5.125   3.750  12.910  0.00  0.00    +0.000 C 
ATOM     25  C   UNL     1       6.581   3.924  12.510  0.00  0.00    +0.000 C 
ATOM     26  C   UNL     1       7.190   4.763  13.629  0.00  0.00    +0.000 C 
ATOM     27  C   UNL     1       5.793   5.751  15.511  0.00  0.00    +0.000 C 
ATOM     28  O   UNL     1       5.224   6.640  14.891  0.00  0.00    +0.000 OA
ATOM     29  N   UNL     1       6.024   5.681  16.859  0.00  0.00    +0.000 N 
ATOM     30  H   UNL     1       7.601   3.065  15.980  0.00  0.00    +0.000 HD
ENDBRANCH  18  29
ENDBRANCH   1  18
TORSDOF 4
ENDMDL
MODEL 2
REMARK VINA RESULT:      -8.1      0.223      1.284
REMARK  Name = 
REMARK  4 active torsions:
REMARK  status: ('A' for Active; 'I' for Inactive)
REMARK    1  A    between atoms: N_11  and  C_12
REMARK    2  A    between atoms: C_12  and  C_13
REMARK    3  A    between atoms: N_15  and  C_16
REMARK    4  A    between atoms: C_23  and  C_24
REMARK                            x       y       z     vdW  Elec       q    Type
REMARK                         _______ _______ _______ _____ _____    ______ ____
ROOT
ATOM      1  C   UNL     1       4.428   6.724  18.232  0.00  0.00    +0.000 A 
ATOM      2  C   UNL     1       3.761   7.929  18.270  0.00  0.00    +0.000 A 
ATOM      3  N   UNL     1       2.451   7.675  18.580  0.00  0.00    +0.000 N 
ATOM      4  N   UNL     1       2.237   6.346  18.742  0.00  0.00    +0.000 NA
ATOM      5  C   UNL     1       3.409   5.749  18.463  0.00  0.00    +0.000 A 
ENDROOT
BRANCH   3   6
ATOM      6  C   UNL     1       1.415   8.635  18.763  0.00  0.00    +0.000 A 
ATOM      7  C   UNL     1       0.728   9.168  17.663  0.00  0.00    +0.000 A 
ATOM      8  C   UNL     1      -0.280  10.114  17.851  0.00  0.00    +0.000 A 
ATOM      9  C   UNL     1      -0.602  10.543  19.135  0.00  0.00    +0.000 A 
ATOM     10  C   UNL     1       0.080  10.023  20.236  0.00  0.00    +0.000 A 
ATOM     11  C   UNL     1       1.082   9.066  20.056  0.00  0.00    +0.000 A 
ENDBRANCH   3   6
BRANCH   5  12
ATOM     12  C   UNL     1       3.524   4.284  18.453  0.00  0.00    +0.000 A 
ATOM     13  C   UNL     1       4.262   3.608  19.431  0.00  0.00    +0.000 A 
ATOM     14  C   UNL     1       4.359   2.215  19.439  0.00  0.00    +0.000 A 
ATOM     15  C   UNL     1       3.741   1.478  18.440  0.00  0.00    +0.000 A 
ATOM     16  C   UNL     1       3.025   2.134  17.437  0.00  0.00    +0.000 A 
ATOM     17  C   UNL     1       2.916   3.527  17.443  0.00  0.00    +0.000 A 
ENDBRANCH   5  12
BRANCH   1  18
ATOM     18  C   UNL     1       5.891   6.560  18.019  0.00  0.00    +0.000 C 
BRANCH  18  29
ATOM     19  O   UNL     1       7.713   4.351  18.204  0.00  0.00    +0.000 OA
ATOM     20  C   UNL     1       7.141   4.636  17.165  0.00  0.00    +0.000 C 
ATOM     21  N   UNL     1       7.356   3.981  15.977  0.00  0.00    +0.000 N 
ATOM     22  C   UNL     1       6.525   4.490  14.921  0.00  0.00    +0.000 C 
ATOM     23  C   UNL     1       5.444   3.486  14.509  0.00  0.00    +0.000 C 
ATOM     24  C   UNL     1       5.273   3.720  13.015  0.00  0.00    +0.000 C 
ATOM     25  C   UNL     1       6.686   4.026  12.544  0.00  0.00    +0.000 C 
ATOM     26  C   UNL     1       7.283   4.886  13.654  0.00  0.00    +0.000 C 
ATOM     27  C   UNL     1       5.913   5.707  15.634  0.00  0.00    +0.000 C 
ATOM     28  O   UNL     1       5.240   6.560  15.071  0.00  0.00    +0.000 OA
ATOM     29  N   UNL     1       6.223   5.624  16.965  0.00  0.00    +0.000 N 
ATOM     30  H   UNL     1       7.960   3.172  15.930  0.00  0.00    +0.000 HD
ENDBRANCH  18  29
ENDBRANCH   1  18
TORSDOF 4
ENDMDL
MODEL 3
REMARK VINA RESULT:      -7.5      2.704      7.479
REMARK  Name = 
REMARK  4 active torsions:
REMARK  status: ('A' for Active; 'I' for Inactive)
REMARK    1  A    between atoms: N_11  and  C_12
REMARK    2  A    between atoms: C_12  and  C_13
REMARK    3  A    between atoms: N_15  and  C_16
REMARK    4  A    between atoms: C_23  and  C_24
REMARK                            x       y       z     vdW  Elec       q    Type
REMARK                         _______ _______ _______ _____ _____    ______ ____
ROOT
ATOM      1  C   UNL     1       6.176   5.771  17.616  0.00  0.00    +0.000 A 
ATOM      2  C   UNL     1       5.863   4.945  16.558  0.00  0.00    +0.000 A 
ATOM      3  N   UNL     1       6.625   5.329  15.486  0.00  0.00    +0.000 N 
ATOM      4  N   UNL     1       7.421   6.378  15.804  0.00  0.00    +0.000 NA
ATOM      5  C   UNL     1       7.109   6.706  17.070  0.00  0.00    +0.000 A 
ENDROOT
BRANCH   3   6
ATOM      6  C   UNL     1       6.652   4.722  14.198  0.00  0.00    +0.000 A 
ATOM      7  C   UNL     1       7.619   5.092  13.251  0.00  0.00    +0.000 A 
ATOM      8  C   UNL     1       7.634   4.498  11.988  0.00  0.00    +0.000 A 
ATOM      9  C   UNL     1       6.679   3.541  11.657  0.00  0.00    +0.000 A 
ATOM     10  C   UNL     1       5.710   3.171  12.590  0.00  0.00    +0.000 A 
ATOM     11  C   UNL     1       5.697   3.752  13.861  0.00  0.00    +0.000 A 
ENDBRANCH   3   6
BRANCH   5  12
ATOM     12  C   UNL     1       7.726   7.870  17.721  0.00  0.00    +0.000 A 
ATOM     13  C   UNL     1       7.539   9.164  17.219  0.00  0.00    +0.000 A 
ATOM     14  C   UNL     1       8.106  10.277  17.844  0.00  0.00    +0.000 A 
ATOM     15  C   UNL     1       8.900  10.104  18.967  0.00  0.00    +0.000 A 
ATOM     16  C   UNL     1       9.125   8.819  19.466  0.00  0.00    +0.000 A 
ATOM     17  C   UNL     1       8.541   7.710  18.849  0.00  0.00    +0.000 A 
ENDBRANCH   5  12
BRANCH   1  18
ATOM     18  C   UNL     1       5.640   5.636  18.997  0.00  0.00    +0.000 C 
BRANCH  18  29
ATOM     19  O   UNL     1       3.424   7.417  18.612  0.00  0.00    +0.000 OA
ATOM     20  C   UNL     1       3.269   6.239  18.884  0.00  0.00    +0.000 C 
ATOM     21  N   UNL     1       2.040   5.664  19.097  0.00  0.00    +0.000 N 
ATOM     22  C   UNL     1       2.140   4.256  19.360  0.00  0.00    +0.000 C 
ATOM     23  C   UNL     1       1.588   3.416  18.204  0.00  0.00    +0.000 C 
ATOM     24  C   UNL     1       0.987   2.197  18.887  0.00  0.00    +0.000 C 
ATOM     25  C   UNL     1       0.404   2.766  20.171  0.00  0.00    +0.000 C 
ATOM     26  C   UNL     1       1.427   3.799  20.633  0.00  0.00    +0.000 C 
ATOM     27  C   UNL     1       3.667   4.118  19.470  0.00  0.00    +0.000 C 
ATOM     28  O   UNL     1       4.234   3.102  19.847  0.00  0.00    +0.000 OA
ATOM     29  N   UNL     1       4.234   5.289  19.041  0.00  0.00    +0.000 N 
ATOM     30  H   UNL     1       1.188   6.194  18.965  0.00  0.00    +0.000 HD
ENDBRANCH  18  29
ENDBRANCH   1  18
TORSDOF 4
ENDMDL
MODEL 4
REMARK VINA RESULT:      -7.4      2.728      7.528
REMARK  Name = 
REMARK  4 active torsions:
REMARK  status: ('A' for Active; 'I' for Inactive)
REMARK    1  A    between atoms: N_11  and  C_12
REMARK    2  A    between atoms: C_12  and  C_13
REMARK    3  A    between atoms: N_15  and  C_16
REMARK    4  A    between atoms: C_23  and  C_24
REMARK                            x       y       z     vdW  Elec       q    Type
REMARK                         _______ _______ _______ _____ _____    ______ ____
ROOT
ATOM      1  C   UNL     1       6.210   5.724  17.602  0.00  0.00    +0.000 A 
ATOM      2  C   UNL     1       5.897   4.903  16.540  0.00  0.00    +0.000 A 
ATOM      3  N   UNL     1       6.637   5.311  15.462  0.00  0.00    +0.000 N 
ATOM      4  N   UNL     1       7.420   6.371  15.780  0.00  0.00    +0.000 NA
ATOM      5  C   UNL     1       7.119   6.680  17.054  0.00  0.00    +0.000 A 
ENDROOT
BRANCH   3   6
ATOM      6  C   UNL     1       6.658   4.718  14.167  0.00  0.00    +0.000 A 
ATOM      7  C   UNL     1       5.721   3.738  13.811  0.00  0.00    +0.000 A 
ATOM      8  C   UNL     1       5.754   3.157  12.543  0.00  0.00    +0.000 A 
ATOM      9  C   UNL     1       6.728   3.541  11.625  0.00  0.00    +0.000 A 
ATOM     10  C   UNL     1       7.669   4.511  11.972  0.00  0.00    +0.000 A 
ATOM     11  C   UNL     1       7.634   5.106  13.237  0.00  0.00    +0.000 A 
ENDBRANCH   3   6
BRANCH   5  12
ATOM     12  C   UNL     1       7.723   7.849  17.708  0.00  0.00    +0.000 A 
ATOM     13  C   UNL     1       8.539   7.706  18.837  0.00  0.00    +0.000 A 
ATOM     14  C   UNL     1       9.132   8.811  19.452  0.00  0.00    +0.000 A 
ATOM     15  C   UNL     1       8.888  10.084  18.961  0.00  0.00    +0.000 A 
ATOM     16  C   UNL     1       8.052  10.251  17.854  0.00  0.00    +0.000 A 
ATOM     17  C   UNL     1       7.475   9.142  17.231  0.00  0.00    +0.000 A 
ENDBRANCH   5  12
BRANCH   1  18
ATOM     18  C   UNL     1       5.694   5.565  18.988  0.00  0.00    +0.000 C 
BRANCH  18  29
ATOM     19  O   UNL     1       3.508   7.380  18.599  0.00  0.00    +0.000 OA
ATOM     20  C   UNL     1       3.334   6.208  18.887  0.00  0.00    +0.000 C 
ATOM     21  N   UNL     1       2.097   5.658  19.118  0.00  0.00    +0.000 N 
ATOM     22  C   UNL     1       2.174   4.252  19.398  0.00  0.00    +0.000 C 
ATOM     23  C   UNL     1       1.597   3.408  18.257  0.00  0.00    +0.000 C 
ATOM     24  C   UNL     1       0.981   2.208  18.960  0.00  0.00    +0.000 C 
ATOM     25  C   UNL     1       0.419   2.803  20.242  0.00  0.00    +0.000 C 
ATOM     26  C   UNL     1       1.464   3.823  20.682  0.00  0.00    +0.000 C 
ATOM     27  C   UNL     1       3.699   4.088  19.496  0.00  0.00    +0.000 C 
ATOM     28  O   UNL     1       4.252   3.067  19.882  0.00  0.00    +0.000 OA
ATOM     29  N   UNL     1       4.284   5.243  19.048  0.00  0.00    +0.000 N 
ATOM     30  H   UNL     1       1.253   6.201  18.986  0.00  0.00    +0.000 HD
ENDBRANCH  18  29
ENDBRANCH   1  18
TORSDOF 4
ENDMDL
MODEL 5
REMARK VINA RESULT:      -7.4      8.024     10.598
REMARK  Name = 
REMARK  4 active torsions:
REMARK  status: ('A' for Active; 'I' for Inactive)
REMARK    1  A    between atoms: N_11  and  C_12
REMARK    2  A    between atoms: C_12  and  C_13
REMARK    3  A    between atoms: N_15  and  C_16
REMARK    4  A    between atoms: C_23  and  C_24
REMARK                            x       y       z     vdW  Elec       q    Type
REMARK                         _______ _______ _______ _____ _____    ______ ____
ROOT
ATOM      1  C   UNL     1      -0.962  12.021  18.715  0.00  0.00    +0.000 A 
ATOM      2  C   UNL     1      -0.790  13.240  18.096  0.00  0.00    +0.000 A 
ATOM      3  N   UNL     1      -0.014  14.019  18.913  0.00  0.00    +0.000 N 
ATOM      4  N   UNL     1       0.324  13.355  20.045  0.00  0.00    +0.000 NA
ATOM      5  C   UNL     1      -0.303  12.167  19.974  0.00  0.00    +0.000 A 
ENDROOT
BRANCH   3   6
ATOM      6  C   UNL     1       0.444  15.342  18.648  0.00  0.00    +0.000 A 
ATOM      7  C   UNL     1      -0.466  16.392  18.454  0.00  0.00    +0.000 A 
ATOM      8  C   UNL     1      -0.008  17.682  18.187  0.00  0.00    +0.000 A 
ATOM      9  C   UNL     1       1.358  17.933  18.101  0.00  0.00    +0.000 A 
ATOM     10  C   UNL     1       2.271  16.894  18.286  0.00  0.00    +0.000 A 
ATOM     11  C   UNL     1       1.820  15.601  18.566  0.00  0.00    +0.000 A 
ENDBRANCH   3   6
BRANCH   5  12
ATOM     12  C   UNL     1      -0.230  11.210  21.086  0.00  0.00    +0.000 A 
ATOM     13  C   UNL     1       0.644  10.117  21.046  0.00  0.00    +0.000 A 
ATOM     14  C   UNL     1       0.733   9.215  22.108  0.00  0.00    +0.000 A 
ATOM     15  C   UNL     1      -0.083   9.377  23.217  0.00  0.00    +0.000 A 
ATOM     16  C   UNL     1      -0.985  10.443  23.265  0.00  0.00    +0.000 A 
ATOM     17  C   UNL     1      -1.057  11.354  22.208  0.00  0.00    +0.000 A 
ENDBRANCH   5  12
BRANCH   1  18
ATOM     18  C   UNL     1      -1.666  10.852  18.123  0.00  0.00    +0.000 C 
BRANCH  18  29
ATOM     19  O   UNL     1      -2.929  10.644  15.556  0.00  0.00    +0.000 OA
ATOM     20  C   UNL     1      -3.534  11.014  16.548  0.00  0.00    +0.000 C 
ATOM     21  N   UNL     1      -4.844  11.427  16.529  0.00  0.00    +0.000 N 
ATOM     22  C   UNL     1      -5.321  11.771  17.839  0.00  0.00    +0.000 C 
ATOM     23  C   UNL     1      -6.347  10.758  18.358  0.00  0.00    +0.000 C 
ATOM     24  C   UNL     1      -7.305  11.597  19.191  0.00  0.00    +0.000 C 
ATOM     25  C   UNL     1      -7.387  12.906  18.420  0.00  0.00    +0.000 C 
ATOM     26  C   UNL     1      -5.962  13.155  17.935  0.00  0.00    +0.000 C 
ATOM     27  C   UNL     1      -4.005  11.685  18.628  0.00  0.00    +0.000 C 
ATOM     28  O   UNL     1      -3.881  12.053  19.788  0.00  0.00    +0.000 OA
ATOM     29  N   UNL     1      -3.060  11.106  17.823  0.00  0.00    +0.000 N 
ATOM     30  H   UNL     1      -5.394  11.374  15.682  0.00  0.00    +0.000 HD
ENDBRANCH  18  29
ENDBRANCH   1  18
TORSDOF 4
ENDMDL
MODEL 6
REMARK VINA RESULT:      -7.4      7.988     10.519
REMARK  Name = 
REMARK  4 active torsions:
REMARK  status: ('A' for Active; 'I' for Inactive)
REMARK    1  A    between atoms: N_11  and  C_12
REMARK    2  A    between atoms: C_12  and  C_13
REMARK    3  A    between atoms: N_15  and  C_16
REMARK    4  A    between atoms: C_23  and  C_24
REMARK                            x       y       z     vdW  Elec       q    Type
REMARK                         _______ _______ _______ _____ _____    ______ ____
ROOT
ATOM      1  C   UNL     1      -0.892  12.018  18.689  0.00  0.00    +0.000 A 
ATOM      2  C   UNL     1      -0.735  13.245  18.080  0.00  0.00    +0.000 A 
ATOM      3  N   UNL     1       0.003  14.038  18.919  0.00  0.00    +0.000 N 
ATOM      4  N   UNL     1       0.331  13.375  20.055  0.00  0.00    +0.000 NA
ATOM      5  C   UNL     1      -0.267  12.173  19.963  0.00  0.00    +0.000 A 
ENDROOT
BRANCH   3   6
ATOM      6  C   UNL     1       0.436  15.372  18.671  0.00  0.00    +0.000 A 
ATOM      7  C   UNL     1       1.802  15.689  18.638  0.00  0.00    +0.000 A 
ATOM      8  C   UNL     1       2.217  17.000  18.403  0.00  0.00    +0.000 A 
ATOM      9  C   UNL     1       1.274  18.005  18.209  0.00  0.00    +0.000 A 
ATOM     10  C   UNL     1      -0.087  17.701  18.247  0.00  0.00    +0.000 A 
ATOM     11  C   UNL     1      -0.510  16.387  18.470  0.00  0.00    +0.000 A 
ENDBRANCH   3   6
BRANCH   5  12
ATOM     12  C   UNL     1      -0.197  11.212  21.072  0.00  0.00    +0.000 A 
ATOM     13  C   UNL     1      -1.018  11.344  22.198  0.00  0.00    +0.000 A 
ATOM     14  C   UNL     1      -0.970  10.422  23.247  0.00  0.00    +0.000 A 
ATOM     15  C   UNL     1      -0.070   9.369  23.196  0.00  0.00    +0.000 A 
ATOM     16  C   UNL     1       0.779   9.236  22.095  0.00  0.00    +0.000 A 
ATOM     17  C   UNL     1       0.716  10.149  21.040  0.00  0.00    +0.000 A 
ENDBRANCH   5  12
BRANCH   1  18
ATOM     18  C   UNL     1      -1.555  10.836  18.075  0.00  0.00    +0.000 C 
BRANCH  18  29
ATOM     19  O   UNL     1      -2.829  10.477  15.529  0.00  0.00    +0.000 OA
ATOM     20  C   UNL     1      -3.435  10.885  16.506  0.00  0.00    +0.000 C 
ATOM     21  N   UNL     1      -4.752  11.272  16.475  0.00  0.00    +0.000 N 
ATOM     22  C   UNL     1      -5.228  11.671  17.771  0.00  0.00    +0.000 C 
ATOM     23  C   UNL     1      -6.231  10.666  18.346  0.00  0.00    +0.000 C 
ATOM     24  C   UNL     1      -7.200  11.527  19.143  0.00  0.00    +0.000 C 
ATOM     25  C   UNL     1      -7.312  12.794  18.309  0.00  0.00    +0.000 C 
ATOM     26  C   UNL     1      -5.895  13.046  17.802  0.00  0.00    +0.000 C 
ATOM     27  C   UNL     1      -3.906  11.649  18.553  0.00  0.00    +0.000 C 
ATOM     28  O   UNL     1      -3.782  12.076  19.693  0.00  0.00    +0.000 OA
ATOM     29  N   UNL     1      -2.955  11.049  17.772  0.00  0.00    +0.000 N 
ATOM     30  H   UNL     1      -5.306  11.166  15.636  0.00  0.00    +0.000 HD
ENDBRANCH  18  29
ENDBRANCH   1  18
TORSDOF 4
ENDMDL
MODEL 7
REMARK VINA RESULT:      -7.1      2.972      7.284
REMARK  Name = 
REMARK  4 active torsions:
REMARK  status: ('A' for Active; 'I' for Inactive)
REMARK    1  A    between atoms: N_11  and  C_12
REMARK    2  A    between atoms: C_12  and  C_13
REMARK    3  A    between atoms: N_15  and  C_16
REMARK    4  A    between atoms: C_23  and  C_24
REMARK                            x       y       z     vdW  Elec       q    Type
REMARK                         _______ _______ _______ _____ _____    ______ ____
ROOT
ATOM      1  C   UNL     1       5.384   6.303  16.949  0.00  0.00    +0.000 A 
ATOM      2  C   UNL     1       5.117   5.508  15.855  0.00  0.00    +0.000 A 
ATOM      3  N   UNL     1       6.253   5.451  15.092  0.00  0.00    +0.000 N 
ATOM      4  N   UNL     1       7.251   6.182  15.645  0.00  0.00    +0.000 NA
ATOM      5  C   UNL     1       6.718   6.765  16.734  0.00  0.00    +0.000 A 
ENDROOT
BRANCH   3   6
ATOM      6  C   UNL     1       6.438   4.707  13.891  0.00  0.00    +0.000 A 
ATOM      7  C   UNL     1       7.511   4.987  13.031  0.00  0.00    +0.000 A 
ATOM      8  C   UNL     1       7.679   4.260  11.853  0.00  0.00    +0.000 A 
ATOM      9  C   UNL     1       6.775   3.255  11.518  0.00  0.00    +0.000 A 
ATOM     10  C   UNL     1       5.702   2.974  12.364  0.00  0.00    +0.000 A 
ATOM     11  C   UNL     1       5.533   3.691  13.552  0.00  0.00    +0.000 A 
ENDBRANCH   3   6
BRANCH   5  12
ATOM     12  C   UNL     1       7.500   7.712  17.540  0.00  0.00    +0.000 A 
ATOM     13  C   UNL     1       7.553   9.072  17.213  0.00  0.00    +0.000 A 
ATOM     14  C   UNL     1       8.279   9.980  17.987  0.00  0.00    +0.000 A 
ATOM     15  C   UNL     1       8.994   9.528  19.086  0.00  0.00    +0.000 A 
ATOM     16  C   UNL     1       8.980   8.170  19.412  0.00  0.00    +0.000 A 
ATOM     17  C   UNL     1       8.238   7.268  18.646  0.00  0.00    +0.000 A 
ENDBRANCH   5  12
BRANCH   1  18
ATOM     18  C   UNL     1       4.445   6.552  18.076  0.00  0.00    +0.000 C 
BRANCH  18  29
ATOM     19  O   UNL     1       5.947   4.596  19.543  0.00  0.00    +0.000 OA
ATOM     20  C   UNL     1       4.756   4.464  19.317  0.00  0.00    +0.000 C 
ATOM     21  N   UNL     1       4.034   3.352  19.677  0.00  0.00    +0.000 N 
ATOM     22  C   UNL     1       2.646   3.472  19.327  0.00  0.00    +0.000 C 
ATOM     23  C   UNL     1       1.756   3.627  20.565  0.00  0.00    +0.000 C 
ATOM     24  C   UNL     1       0.466   2.915  20.183  0.00  0.00    +0.000 C 
ATOM     25  C   UNL     1       0.949   1.737  19.352  0.00  0.00    +0.000 C 
ATOM     26  C   UNL     1       2.095   2.300  18.516  0.00  0.00    +0.000 C 
ATOM     27  C   UNL     1       2.694   4.772  18.508  0.00  0.00    +0.000 C 
ATOM     28  O   UNL     1       1.751   5.203  17.859  0.00  0.00    +0.000 OA
ATOM     29  N   UNL     1       3.929   5.340  18.679  0.00  0.00    +0.000 N 
ATOM     30  H   UNL     1       4.457   2.610  20.219  0.00  0.00    +0.000 HD
ENDBRANCH  18  29
ENDBRANCH   1  18
TORSDOF 4
ENDMDL
MODEL 8
REMARK VINA RESULT:      -7.1      5.259      8.505
REMARK  Name = 
REMARK  4 active torsions:
REMARK  status: ('A' for Active; 'I' for Inactive)
REMARK    1  A    between atoms: N_11  and  C_12
REMARK    2  A    between atoms: C_12  and  C_13
REMARK    3  A    between atoms: N_15  and  C_16
REMARK    4  A    between atoms: C_23  and  C_24
REMARK                            x       y       z     vdW  Elec       q    Type
REMARK                         _______ _______ _______ _____ _____    ______ ____
ROOT
ATOM      1  C   UNL     1       0.036  11.467  20.040  0.00  0.00    +0.000 A 
ATOM      2  C   UNL     1      -1.149  12.132  19.807  0.00  0.00    +0.000 A 
ATOM      3  N   UNL     1      -1.917  11.345  18.989  0.00  0.00    +0.000 N 
ATOM      4  N   UNL     1      -1.275  10.193  18.676  0.00  0.00    +0.000 NA
ATOM      5  C   UNL     1      -0.060  10.283  19.247  0.00  0.00    +0.000 A 
ENDROOT
BRANCH   3   6
ATOM      6  C   UNL     1      -3.235  11.625  18.527  0.00  0.00    +0.000 A 
ATOM      7  C   UNL     1      -4.169  12.256  19.362  0.00  0.00    +0.000 A 
ATOM      8  C   UNL     1      -5.460  12.519  18.905  0.00  0.00    +0.000 A 
ATOM      9  C   UNL     1      -5.833  12.146  17.616  0.00  0.00    +0.000 A 
ATOM     10  C   UNL     1      -4.913  11.513  16.780  0.00  0.00    +0.000 A 
ATOM     11  C   UNL     1      -3.613  11.257  17.228  0.00  0.00    +0.000 A 
ENDBRANCH   3   6
BRANCH   5  12
ATOM     12  C   UNL     1       0.948   9.234  19.041  0.00  0.00    +0.000 A 
ATOM     13  C   UNL     1       1.266   8.325  20.056  0.00  0.00    +0.000 A 
ATOM     14  C   UNL     1       2.208   7.313  19.861  0.00  0.00    +0.000 A 
ATOM     15  C   UNL     1       2.874   7.220  18.648  0.00  0.00    +0.000 A 
ATOM     16  C   UNL     1       2.594   8.136  17.631  0.00  0.00    +0.000 A 
ATOM     17  C   UNL     1       1.637   9.135  17.825  0.00  0.00    +0.000 A 
ENDBRANCH   5  12
BRANCH   1  18
ATOM     18  C   UNL     1       1.114  11.933  20.954  0.00  0.00    +0.000 C 
BRANCH  18  29
ATOM     19  O   UNL     1       1.155  14.453  22.325  0.00  0.00    +0.000 OA
ATOM     20  C   UNL     1       1.677  14.300  21.233  0.00  0.00    +0.000 C 
ATOM     21  N   UNL     1       2.271  15.316  20.526  0.00  0.00    +0.000 N 
ATOM     22  C   UNL     1       2.841  14.854  19.291  0.00  0.00    +0.000 C 
ATOM     23  C   UNL     1       4.372  14.881  19.322  0.00  0.00    +0.000 C 
ATOM     24  C   UNL     1       4.765  15.215  17.890  0.00  0.00    +0.000 C 
ATOM     25  C   UNL     1       3.685  16.191  17.449  0.00  0.00    +0.000 C 
ATOM     26  C   UNL     1       2.399  15.642  18.057  0.00  0.00    +0.000 C 
ATOM     27  C   UNL     1       2.308  13.413  19.280  0.00  0.00    +0.000 C 
ATOM     28  O   UNL     1       2.408  12.656  18.323  0.00  0.00    +0.000 OA
ATOM     29  N   UNL     1       1.765  13.147  20.509  0.00  0.00    +0.000 N 
ATOM     30  H   UNL     1       2.364  16.242  20.923  0.00  0.00    +0.000 HD
ENDBRANCH  18  29
ENDBRANCH   1  18
TORSDOF 4
ENDMDL
MODEL 9
REMARK VINA RESULT:      -7.1      4.778     10.404
REMARK  Name = 
REMARK  4 active torsions:
REMARK  status: ('A' for Active; 'I' for Inactive)
REMARK    1  A    between atoms: N_11  and  C_12
REMARK    2  A    between atoms: C_12  and  C_13
REMARK    3  A    between atoms: N_15  and  C_16
REMARK    4  A    between atoms: C_23  and  C_24
REMARK                            x       y       z     vdW  Elec       q    Type
REMARK                         _______ _______ _______ _____ _____    ______ ____
ROOT
ATOM      1  C   UNL     1      -0.397  11.257  18.891  0.00  0.00    +0.000 A 
ATOM      2  C   UNL     1       0.323  10.224  18.331  0.00  0.00    +0.000 A 
ATOM      3  N   UNL     1       0.878   9.498  19.352  0.00  0.00    +0.000 N 
ATOM      4  N   UNL     1       0.550  10.022  20.558  0.00  0.00    +0.000 NA
ATOM      5  C   UNL     1      -0.162  11.132  20.295  0.00  0.00    +0.000 A 
ENDROOT
BRANCH   3   6
ATOM      6  C   UNL     1       1.668   8.319  19.230  0.00  0.00    +0.000 A 
ATOM      7  C   UNL     1       2.428   8.080  18.075  0.00  0.00    +0.000 A 
ATOM      8  C   UNL     1       3.192   6.918  17.961  0.00  0.00    +0.000 A 
ATOM      9  C   UNL     1       3.195   5.983  18.991  0.00  0.00    +0.000 A 
ATOM     10  C   UNL     1       2.438   6.208  20.141  0.00  0.00    +0.000 A 
ATOM     11  C   UNL     1       1.679   7.376  20.268  0.00  0.00    +0.000 A 
ENDBRANCH   3   6
BRANCH   5  12
ATOM     12  C   UNL     1      -0.615  12.012  21.381  0.00  0.00    +0.000 A 
ATOM     13  C   UNL     1      -0.075  13.291  21.551  0.00  0.00    +0.000 A 
ATOM     14  C   UNL     1      -0.515  14.140  22.569  0.00  0.00    +0.000 A 
ATOM     15  C   UNL     1      -1.484  13.700  23.458  0.00  0.00    +0.000 A 
ATOM     16  C   UNL     1      -2.015  12.415  23.326  0.00  0.00    +0.000 A 
ATOM     17  C   UNL     1      -1.585  11.577  22.294  0.00  0.00    +0.000 A 
ENDBRANCH   5  12
BRANCH   1  18
ATOM     18  C   UNL     1      -1.231  12.229  18.134  0.00  0.00    +0.000 C 
BRANCH  18  29
ATOM     19  O   UNL     1      -2.279  10.960  15.784  0.00  0.00    +0.000 OA
ATOM     20  C   UNL     1      -2.982  11.231  16.743  0.00  0.00    +0.000 C 
ATOM     21  N   UNL     1      -4.339  11.022  16.773  0.00  0.00    +0.000 N 
ATOM     22  C   UNL     1      -4.915  11.391  18.037  0.00  0.00    +0.000 C 
ATOM     23  C   UNL     1      -5.383  10.168  18.832  0.00  0.00    +0.000 C 
ATOM     24  C   UNL     1      -6.611  10.664  19.582  0.00  0.00    +0.000 C 
ATOM     25  C   UNL     1      -7.268  11.613  18.592  0.00  0.00    +0.000 C 
ATOM     26  C   UNL     1      -6.103  12.347  17.934  0.00  0.00    +0.000 C 
ATOM     27  C   UNL     1      -3.695  12.052  18.697  0.00  0.00    +0.000 C 
ATOM     28  O   UNL     1      -3.742  12.672  19.751  0.00  0.00    +0.000 OA
ATOM     29  N   UNL     1      -2.594  11.785  17.927  0.00  0.00    +0.000 N 
ATOM     30  H   UNL     1      -4.812  10.559  16.008  0.00  0.00    +0.000 HD
ENDBRANCH  18  29
ENDBRANCH   1  18
TORSDOF 4
ENDMDL
