MODEL 1
REMARK VINA RESULT:      -8.4      0.000      0.000
REMARK  Name = 
REMARK  6 active torsions:
REMARK  status: ('A' for Active; 'I' for Inactive)
REMARK    1  A    between atoms: C_1  and  C_2
REMARK    2  A    between atoms: C_5  and  C_6
REMARK    3  A    between atoms: C_7  and  N_8
REMARK    4  A    between atoms: C_17  and  C_18
REMARK    5  A    between atoms: C_21  and  C_22
REMARK    6  A    between atoms: N_25  and  C_26
REMARK                            x       y       z     vdW  Elec       q    Type
REMARK                         _______ _______ _______ _____ _____    ______ ____
ROOT
ATOM      1  N   UNL     1       4.543   4.830  17.467  0.00  0.00    +0.000 N 
ATOM      2  C   UNL     1       4.644   4.331  18.747  0.00  0.00    +0.000 C 
ATOM      3  O   UNL     1       5.681   3.934  19.268  0.00  0.00    +0.000 OA
ATOM      4  N   UNL     1       3.451   4.322  19.492  0.00  0.00    +0.000 N 
ATOM      5  C   UNL     1       3.557   3.965  20.913  0.00  0.00    +0.000 C 
ATOM      6  C   UNL     1       3.137   2.522  21.180  0.00  0.00    +0.000 C 
ATOM      7  C   UNL     1       1.625   2.330  21.254  0.00  0.00    +0.000 C 
ATOM      8  C   UNL     1       0.878   2.737  19.985  0.00  0.00    +0.000 C 
ATOM      9  C   UNL     1       0.899   4.244  19.749  0.00  0.00    +0.000 C 
ATOM     10  C   UNL     1       2.136   4.762  18.989  0.00  0.00    +0.000 C 
ATOM     11  H   UNL     1       3.742   5.418  17.306  0.00  0.00    +0.000 HD
ENDROOT
BRANCH   1  18
ATOM     12  C   UNL     1       5.629   3.417  12.902  0.00  0.00    +0.000 C 
ATOM     13  C   UNL     1       6.012   4.204  14.120  0.00  0.00    +0.000 A 
ATOM     14  C   UNL     1       7.181   4.954  14.136  0.00  0.00    +0.000 A 
ATOM     15  C   UNL     1       7.523   5.674  15.276  0.00  0.00    +0.000 A 
ATOM     16  C   UNL     1       6.719   5.673  16.439  0.00  0.00    +0.000 A 
ATOM     17  C   UNL     1       7.254   6.474  17.589  0.00  0.00    +0.000 C 
ATOM     18  C   UNL     1       5.514   4.947  16.427  0.00  0.00    +0.000 A 
ATOM     19  C   UNL     1       5.196   4.205  15.262  0.00  0.00    +0.000 A 
ENDBRANCH   1  18
BRANCH  10  20
ATOM     20  C   UNL     1       2.129   6.268  18.990  0.00  0.00    +0.000 A 
ATOM     21  N   UNL     1       2.704   6.995  18.024  0.00  0.00    +0.000 NA
ATOM     22  O   UNL     1       2.464   8.310  18.441  0.00  0.00    +0.000 OA
ATOM     23  C   UNL     1       1.786   8.236  19.631  0.00  0.00    +0.000 A 
ATOM     24  N   UNL     1       1.573   6.994  20.010  0.00  0.00    +0.000 NA
BRANCH  23  25
ATOM     25  C   UNL     1       1.295   9.404  20.389  0.00  0.00    +0.000 A 
ATOM     26  C   UNL     1       1.049   9.517  21.765  0.00  0.00    +0.000 A 
ATOM     27  N   UNL     1       0.661  10.751  22.105  0.00  0.00    +0.000 NA
ATOM     28  N   UNL     1       0.658  11.418  20.933  0.00  0.00    +0.000 N 
ATOM     29  C   UNL     1       0.338  12.824  20.895  0.00  0.00    +0.000 C 
ATOM     30  C   UNL     1       1.011  10.645  19.866  0.00  0.00    +0.000 A 
ENDBRANCH  23  25
ENDBRANCH  10  20
TORSDOF 3
ENDMDL
MODEL 2
REMARK VINA RESULT:      -7.5      6.474     11.227
REMARK  Name = 
REMARK  6 active torsions:
REMARK  status: ('A' for Active; 'I' for Inactive)
REMARK    1  A    between atoms: C_1  and  C_2
REMARK    2  A    between atoms: C_5  and  C_6
REMARK    3  A    between atoms: C_7  and  N_8
REMARK    4  A    between atoms: C_17  and  C_18
REMARK    5  A    between atoms: C_21  and  C_22
REMARK    6  A    between atoms: N_25  and  C_26
REMARK                            x       y       z     vdW  Elec       q    Type
REMARK                         _______ _______ _______ _____ _____    ______ ____
ROOT
ATOM      1  N   UNL     1      -4.752  12.572  20.066  0.00  0.00    +0.000 N 
ATOM      2  C   UNL     1      -5.704  12.273  21.015  0.00  0.00    +0.000 C 
ATOM      3  O   UNL     1      -6.534  11.375  20.919  0.00  0.00    +0.000 OA
ATOM      4  N   UNL     1      -5.669  13.057  22.182  0.00  0.00    +0.000 N 
ATOM      5  C   UNL     1      -6.550  12.649  23.283  0.00  0.00    +0.000 C 
ATOM      6  C   UNL     1      -7.814  13.502  23.360  0.00  0.00    +0.000 C 
ATOM      7  C   UNL     1      -7.600  14.851  24.041  0.00  0.00    +0.000 C 
ATOM      8  C   UNL     1      -6.558  15.738  23.363  0.00  0.00    +0.000 C 
ATOM      9  C   UNL     1      -5.141  15.191  23.504  0.00  0.00    +0.000 C 
ATOM     10  C   UNL     1      -4.732  14.169  22.425  0.00  0.00    +0.000 C 
ATOM     11  H   UNL     1      -3.953  13.075  20.415  0.00  0.00    +0.000 HD
ENDROOT
BRANCH   1  18
ATOM     12  C   UNL     1      -1.545  10.046  17.355  0.00  0.00    +0.000 C 
ATOM     13  C   UNL     1      -2.867  10.750  17.443  0.00  0.00    +0.000 A 
ATOM     14  C   UNL     1      -3.717  10.796  16.346  0.00  0.00    +0.000 A 
ATOM     15  C   UNL     1      -4.936  11.457  16.444  0.00  0.00    +0.000 A 
ATOM     16  C   UNL     1      -5.353  12.097  17.634  0.00  0.00    +0.000 A 
ATOM     17  C   UNL     1      -6.680  12.793  17.556  0.00  0.00    +0.000 C 
ATOM     18  C   UNL     1      -4.520  12.030  18.766  0.00  0.00    +0.000 A 
ATOM     19  C   UNL     1      -3.274  11.368  18.636  0.00  0.00    +0.000 A 
ENDBRANCH   1  18
BRANCH  10  20
ATOM     20  C   UNL     1      -3.397  13.571  22.783  0.00  0.00    +0.000 A 
ATOM     21  N   UNL     1      -2.578  14.119  23.689  0.00  0.00    +0.000 NA
ATOM     22  O   UNL     1      -1.480  13.249  23.681  0.00  0.00    +0.000 OA
ATOM     23  C   UNL     1      -1.746  12.277  22.750  0.00  0.00    +0.000 A 
ATOM     24  N   UNL     1      -2.912  12.449  22.165  0.00  0.00    +0.000 NA
BRANCH  23  25
ATOM     25  C   UNL     1      -0.862  11.130  22.462  0.00  0.00    +0.000 A 
ATOM     26  C   UNL     1      -0.503  10.066  23.301  0.00  0.00    +0.000 A 
ATOM     27  N   UNL     1       0.278   9.178  22.677  0.00  0.00    +0.000 NA
ATOM     28  N   UNL     1       0.415   9.689  21.437  0.00  0.00    +0.000 N 
ATOM     29  C   UNL     1       1.162   8.974  20.431  0.00  0.00    +0.000 C 
ATOM     30  C   UNL     1      -0.234  10.876  21.264  0.00  0.00    +0.000 A 
ENDBRANCH  23  25
ENDBRANCH  10  20
TORSDOF 3
ENDMDL
MODEL 3
REMARK VINA RESULT:      -7.4      4.792     10.544
REMARK  Name = 
REMARK  6 active torsions:
REMARK  status: ('A' for Active; 'I' for Inactive)
REMARK    1  A    between atoms: C_1  and  C_2
REMARK    2  A    between atoms: C_5  and  C_6
REMARK    3  A    between atoms: C_7  and  N_8
REMARK    4  A    between atoms: C_17  and  C_18
REMARK    5  A    between atoms: C_21  and  C_22
REMARK    6  A    between atoms: N_25  and  C_26
REMARK                            x       y       z     vdW  Elec       q    Type
REMARK                         _______ _______ _______ _____ _____    ______ ____
ROOT
ATOM      1  N   UNL     1      -3.303  12.416  20.310  0.00  0.00    +0.000 N 
ATOM      2  C   UNL     1      -3.931  12.598  21.522  0.00  0.00    +0.000 C 
ATOM      3  O   UNL     1      -5.113  12.359  21.745  0.00  0.00    +0.000 OA
ATOM      4  N   UNL     1      -3.114  13.066  22.567  0.00  0.00    +0.000 N 
ATOM      5  C   UNL     1      -3.707  13.102  23.910  0.00  0.00    +0.000 C 
ATOM      6  C   UNL     1      -4.150  14.507  24.311  0.00  0.00    +0.000 C 
ATOM      7  C   UNL     1      -3.007  15.391  24.801  0.00  0.00    +0.000 C 
ATOM      8  C   UNL     1      -1.891  15.599  23.779  0.00  0.00    +0.000 C 
ATOM      9  C   UNL     1      -1.091  14.327  23.518  0.00  0.00    +0.000 C 
ATOM     10  C   UNL     1      -1.684  13.401  22.437  0.00  0.00    +0.000 C 
ATOM     11  H   UNL     1      -2.303  12.322  20.365  0.00  0.00    +0.000 HD
ENDROOT
BRANCH   1  18
ATOM     12  C   UNL     1      -7.060  12.953  17.209  0.00  0.00    +0.000 C 
ATOM     13  C   UNL     1      -5.735  12.317  17.512  0.00  0.00    +0.000 A 
ATOM     14  C   UNL     1      -5.135  11.466  16.594  0.00  0.00    +0.000 A 
ATOM     15  C   UNL     1      -3.909  10.881  16.894  0.00  0.00    +0.000 A 
ATOM     16  C   UNL     1      -3.238  11.121  18.115  0.00  0.00    +0.000 A 
ATOM     17  C   UNL     1      -1.944  10.382  18.291  0.00  0.00    +0.000 C 
ATOM     18  C   UNL     1      -3.815  12.008  19.041  0.00  0.00    +0.000 A 
ATOM     19  C   UNL     1      -5.074  12.577  18.723  0.00  0.00    +0.000 A 
ENDBRANCH   1  18
BRANCH  10  20
ATOM     20  C   UNL     1      -0.914  12.107  22.410  0.00  0.00    +0.000 A 
ATOM     21  N   UNL     1      -0.698  11.370  23.507  0.00  0.00    +0.000 NA
ATOM     22  O   UNL     1       0.052  10.294  23.016  0.00  0.00    +0.000 OA
ATOM     23  C   UNL     1       0.229  10.510  21.672  0.00  0.00    +0.000 A 
ATOM     24  N   UNL     1      -0.339  11.624  21.264  0.00  0.00    +0.000 NA
BRANCH  23  25
ATOM     25  C   UNL     1       0.928   9.582  20.761  0.00  0.00    +0.000 A 
ATOM     26  C   UNL     1       1.357   8.269  21.004  0.00  0.00    +0.000 A 
ATOM     27  N   UNL     1       1.909   7.714  19.920  0.00  0.00    +0.000 NA
ATOM     28  N   UNL     1       1.831   8.686  18.989  0.00  0.00    +0.000 N 
ATOM     29  C   UNL     1       2.285   8.443  17.641  0.00  0.00    +0.000 C 
ATOM     30  C   UNL     1       1.269   9.839  19.453  0.00  0.00    +0.000 A 
ENDBRANCH  23  25
ENDBRANCH  10  20
TORSDOF 3
ENDMDL
MODEL 4
REMARK VINA RESULT:      -7.2      5.445      9.466
REMARK  Name = 
REMARK  6 active torsions:
REMARK  status: ('A' for Active; 'I' for Inactive)
REMARK    1  A    between atoms: C_1  and  C_2
REMARK    2  A    between atoms: C_5  and  C_6
REMARK    3  A    between atoms: C_7  and  N_8
REMARK    4  A    between atoms: C_17  and  C_18
REMARK    5  A    between atoms: C_21  and  C_22
REMARK    6  A    between atoms: N_25  and  C_26
REMARK                            x       y       z     vdW  Elec       q    Type
REMARK                         _______ _______ _______ _____ _____    ______ ____
ROOT
ATOM      1  N   UNL     1      -0.700  11.321  20.748  0.00  0.00    +0.000 N 
ATOM      2  C   UNL     1      -0.421  12.657  20.566  0.00  0.00    +0.000 C 
ATOM      3  O   UNL     1       0.673  13.111  20.247  0.00  0.00    +0.000 OA
ATOM      4  N   UNL     1      -1.507  13.535  20.736  0.00  0.00    +0.000 N 
ATOM      5  C   UNL     1      -1.288  14.942  20.377  0.00  0.00    +0.000 C 
ATOM      6  C   UNL     1      -1.043  15.821  21.601  0.00  0.00    +0.000 C 
ATOM      7  C   UNL     1      -2.322  16.216  22.334  0.00  0.00    +0.000 C 
ATOM      8  C   UNL     1      -3.142  15.034  22.847  0.00  0.00    +0.000 C 
ATOM      9  C   UNL     1      -3.774  14.226  21.718  0.00  0.00    +0.000 C 
ATOM     10  C   UNL     1      -2.870  13.128  21.124  0.00  0.00    +0.000 C 
ATOM     11  H   UNL     1      -1.673  11.079  20.663  0.00  0.00    +0.000 HD
ENDROOT
BRANCH   1  18
ATOM     12  C   UNL     1       2.019   8.527  17.778  0.00  0.00    +0.000 C 
ATOM     13  C   UNL     1       1.506   8.797  19.162  0.00  0.00    +0.000 A 
ATOM     14  C   UNL     1       1.886   7.988  20.225  0.00  0.00    +0.000 A 
ATOM     15  C   UNL     1       1.397   8.250  21.501  0.00  0.00    +0.000 A 
ATOM     16  C   UNL     1       0.514   9.322  21.764  0.00  0.00    +0.000 A 
ATOM     17  C   UNL     1       0.055   9.440  23.188  0.00  0.00    +0.000 C 
ATOM     18  C   UNL     1       0.147  10.173  20.705  0.00  0.00    +0.000 A 
ATOM     19  C   UNL     1       0.641   9.874  19.411  0.00  0.00    +0.000 A 
ENDBRANCH   1  18
BRANCH  10  20
ATOM     20  C   UNL     1      -3.534  12.538  19.907  0.00  0.00    +0.000 A 
ATOM     21  N   UNL     1      -4.862  12.522  19.743  0.00  0.00    +0.000 NA
ATOM     22  O   UNL     1      -5.014  11.881  18.507  0.00  0.00    +0.000 OA
ATOM     23  C   UNL     1      -3.756  11.556  18.067  0.00  0.00    +0.000 A 
ATOM     24  N   UNL     1      -2.818  11.931  18.909  0.00  0.00    +0.000 NA
BRANCH  23  25
ATOM     25  C   UNL     1      -3.464  10.907  16.773  0.00  0.00    +0.000 A 
ATOM     26  C   UNL     1      -2.446   9.996  16.458  0.00  0.00    +0.000 A 
ATOM     27  N   UNL     1      -2.524   9.576  15.191  0.00  0.00    +0.000 NA
ATOM     28  N   UNL     1      -3.597  10.231  14.704  0.00  0.00    +0.000 N 
ATOM     29  C   UNL     1      -4.044   9.994  13.352  0.00  0.00    +0.000 C 
ATOM     30  C   UNL     1      -4.185  11.062  15.611  0.00  0.00    +0.000 A 
ENDBRANCH  23  25
ENDBRANCH  10  20
TORSDOF 3
ENDMDL
MODEL 5
REMARK VINA RESULT:      -7.1      6.336     10.013
REMARK  Name = 
REMARK  6 active torsions:
REMARK  status: ('A' for Active; 'I' for Inactive)
REMARK    1  A    between atoms: C_1  and  C_2
REMARK    2  A    between atoms: C_5  and  C_6
REMARK    3  A    between atoms: C_7  and  N_8
REMARK    4  A    between atoms: C_17  and  C_18
REMARK    5  A    between atoms: C_21  and  C_22
REMARK    6  A    between atoms: N_25  and  C_26
REMARK                            x       y       z     vdW  Elec       q    Type
REMARK                         _______ _______ _______ _____ _____    ______ ____
ROOT
ATOM      1  N   UNL     1      -1.005  11.637  22.070  0.00  0.00    +0.000 N 
ATOM      2  C   UNL     1      -0.773  12.994  22.108  0.00  0.00    +0.000 C 
ATOM      3  O   UNL     1       0.211  13.554  21.636  0.00  0.00    +0.000 OA
ATOM      4  N   UNL     1      -1.779  13.767  22.716  0.00  0.00    +0.000 N 
ATOM      5  C   UNL     1      -1.649  15.226  22.616  0.00  0.00    +0.000 C 
ATOM      6  C   UNL     1      -1.106  15.849  23.899  0.00  0.00    +0.000 C 
ATOM      7  C   UNL     1      -2.162  16.026  24.986  0.00  0.00    +0.000 C 
ATOM      8  C   UNL     1      -2.836  14.728  25.425  0.00  0.00    +0.000 C 
ATOM      9  C   UNL     1      -3.731  14.137  24.340  0.00  0.00    +0.000 C 
ATOM     10  C   UNL     1      -3.007  13.226  23.329  0.00  0.00    +0.000 C 
ATOM     11  H   UNL     1      -1.970  11.372  22.175  0.00  0.00    +0.000 HD
ENDROOT
BRANCH   1  18
ATOM     12  C   UNL     1       0.953   9.682  18.025  0.00  0.00    +0.000 C 
ATOM     13  C   UNL     1       0.766   9.619  19.512  0.00  0.00    +0.000 A 
ATOM     14  C   UNL     1       1.366   8.611  20.256  0.00  0.00    +0.000 A 
ATOM     15  C   UNL     1       1.177   8.565  21.634  0.00  0.00    +0.000 A 
ATOM     16  C   UNL     1       0.386   9.515  22.319  0.00  0.00    +0.000 A 
ATOM     17  C   UNL     1       0.259   9.297  23.798  0.00  0.00    +0.000 C 
ATOM     18  C   UNL     1      -0.201  10.562  21.585  0.00  0.00    +0.000 A 
ATOM     19  C   UNL     1      -0.011  10.578  20.181  0.00  0.00    +0.000 A 
ENDBRANCH   1  18
BRANCH  10  20
ATOM     20  C   UNL     1      -3.952  12.865  22.214  0.00  0.00    +0.000 A 
ATOM     21  N   UNL     1      -5.272  12.734  22.398  0.00  0.00    +0.000 NA
ATOM     22  O   UNL     1      -5.730  12.387  21.121  0.00  0.00    +0.000 OA
ATOM     23  C   UNL     1      -4.630  12.323  20.303  0.00  0.00    +0.000 A 
ATOM     24  N   UNL     1      -3.514  12.597  20.944  0.00  0.00    +0.000 NA
BRANCH  23  25
ATOM     25  C   UNL     1      -4.678  12.035  18.856  0.00  0.00    +0.000 A 
ATOM     26  C   UNL     1      -5.717  12.278  17.947  0.00  0.00    +0.000 A 
ATOM     27  N   UNL     1      -5.381  11.932  16.699  0.00  0.00    +0.000 NA
ATOM     28  N   UNL     1      -4.123  11.464  16.826  0.00  0.00    +0.000 N 
ATOM     29  C   UNL     1      -3.384  11.036  15.663  0.00  0.00    +0.000 C 
ATOM     30  C   UNL     1      -3.662  11.484  18.109  0.00  0.00    +0.000 A 
ENDBRANCH  23  25
ENDBRANCH  10  20
TORSDOF 3
ENDMDL
MODEL 6
REMARK VINA RESULT:      -7.0      3.611      9.272
REMARK  Name = 
REMARK  6 active torsions:
REMARK  status: ('A' for Active; 'I' for Inactive)
REMARK    1  A    between atoms: C_1  and  C_2
REMARK    2  A    between atoms: C_5  and  C_6
REMARK    3  A    between atoms: C_7  and  N_8
REMARK    4  A    between atoms: C_17  and  C_18
REMARK    5  A    between atoms: C_21  and  C_22
REMARK    6  A    between atoms: N_25  and  C_26
REMARK                            x       y       z     vdW  Elec       q    Type
REMARK                         _______ _______ _______ _____ _____    ______ ____
ROOT
ATOM      1  N   UNL     1       0.876  13.439  20.402  0.00  0.00    +0.000 N 
ATOM      2  C   UNL     1      -0.420  13.277  19.963  0.00  0.00    +0.000 C 
ATOM      3  O   UNL     1      -0.849  13.661  18.880  0.00  0.00    +0.000 OA
ATOM      4  N   UNL     1      -1.277  12.587  20.838  0.00  0.00    +0.000 N 
ATOM      5  C   UNL     1      -2.610  12.242  20.329  0.00  0.00    +0.000 C 
ATOM      6  C   UNL     1      -3.690  13.194  20.838  0.00  0.00    +0.000 C 
ATOM      7  C   UNL     1      -4.160  12.882  22.256  0.00  0.00    +0.000 C 
ATOM      8  C   UNL     1      -3.055  12.929  23.309  0.00  0.00    +0.000 C 
ATOM      9  C   UNL     1      -2.048  11.793  23.153  0.00  0.00    +0.000 C 
ATOM     10  C   UNL     1      -0.896  12.079  22.170  0.00  0.00    +0.000 C 
ATOM     11  H   UNL     1       1.160  12.795  21.121  0.00  0.00    +0.000 HD
ENDROOT
BRANCH   1  18
ATOM     12  C   UNL     1       3.568  17.529  20.608  0.00  0.00    +0.000 C 
ATOM     13  C   UNL     1       3.314  16.198  19.962  0.00  0.00    +0.000 A 
ATOM     14  C   UNL     1       4.134  15.743  18.938  0.00  0.00    +0.000 A 
ATOM     15  C   UNL     1       3.881  14.509  18.348  0.00  0.00    +0.000 A 
ATOM     16  C   UNL     1       2.806  13.686  18.754  0.00  0.00    +0.000 A 
ATOM     17  C   UNL     1       2.655  12.404  17.988  0.00  0.00    +0.000 C 
ATOM     18  C   UNL     1       1.987  14.115  19.814  0.00  0.00    +0.000 A 
ATOM     19  C   UNL     1       2.252  15.385  20.386  0.00  0.00    +0.000 A 
ENDBRANCH   1  18
BRANCH  10  20
ATOM     20  C   UNL     1      -0.090  10.824  21.965  0.00  0.00    +0.000 A 
ATOM     21  N   UNL     1       0.306  10.044  22.979  0.00  0.00    +0.000 NA
ATOM     22  O   UNL     1       1.020   9.029  22.330  0.00  0.00    +0.000 OA
ATOM     23  C   UNL     1       0.997   9.318  20.988  0.00  0.00    +0.000 A 
ATOM     24  N   UNL     1       0.335  10.425  20.725  0.00  0.00    +0.000 NA
BRANCH  23  25
ATOM     25  C   UNL     1       1.595   8.469  19.939  0.00  0.00    +0.000 A 
ATOM     26  C   UNL     1       1.807   8.765  18.585  0.00  0.00    +0.000 A 
ATOM     27  N   UNL     1       2.426   7.768  17.945  0.00  0.00    +0.000 NA
ATOM     28  N   UNL     1       2.602   6.835  18.903  0.00  0.00    +0.000 N 
ATOM     29  C   UNL     1       3.299   5.608  18.606  0.00  0.00    +0.000 C 
ATOM     30  C   UNL     1       2.098   7.201  20.116  0.00  0.00    +0.000 A 
ENDBRANCH  23  25
ENDBRANCH  10  20
TORSDOF 3
ENDMDL
MODEL 7
REMARK VINA RESULT:      -6.9      5.530      9.592
REMARK  Name = 
REMARK  6 active torsions:
REMARK  status: ('A' for Active; 'I' for Inactive)
REMARK    1  A    between atoms: C_1  and  C_2
REMARK    2  A    between atoms: C_5  and  C_6
REMARK    3  A    between atoms: C_7  and  N_8
REMARK    4  A    between atoms: C_17  and  C_18
REMARK    5  A    between atoms: C_21  and  C_22
REMARK    6  A    between atoms: N_25  and  C_26
REMARK                            x       y       z     vdW  Elec       q    Type
REMARK                         _______ _______ _______ _____ _____    ______ ____
ROOT
ATOM      1  N   UNL     1      -2.348  11.306  18.926  0.00  0.00    +0.000 N 
ATOM      2  C   UNL     1      -1.102  11.688  18.481  0.00  0.00    +0.000 C 
ATOM      3  O   UNL     1      -0.889  12.579  17.665  0.00  0.00    +0.000 OA
ATOM      4  N   UNL     1      -0.015  11.002  19.051  0.00  0.00    +0.000 N 
ATOM      5  C   UNL     1       1.329  11.503  18.733  0.00  0.00    +0.000 C 
ATOM      6  C   UNL     1       2.021  10.666  17.660  0.00  0.00    +0.000 C 
ATOM      7  C   UNL     1       2.637   9.376  18.195  0.00  0.00    +0.000 C 
ATOM      8  C   UNL     1       1.638   8.431  18.859  0.00  0.00    +0.000 C 
ATOM      9  C   UNL     1       1.097   8.981  20.175  0.00  0.00    +0.000 C 
ATOM     10  C   UNL     1      -0.126   9.908  20.034  0.00  0.00    +0.000 C 
ATOM     11  H   UNL     1      -2.350  10.830  19.813  0.00  0.00    +0.000 HD
ENDROOT
BRANCH   1  18
ATOM     12  C   UNL     1      -6.384  13.575  20.532  0.00  0.00    +0.000 C 
ATOM     13  C   UNL     1      -5.665  12.892  19.405  0.00  0.00    +0.000 A 
ATOM     14  C   UNL     1      -6.266  12.765  18.160  0.00  0.00    +0.000 A 
ATOM     15  C   UNL     1      -5.587  12.125  17.128  0.00  0.00    +0.000 A 
ATOM     16  C   UNL     1      -4.290  11.588  17.298  0.00  0.00    +0.000 A 
ATOM     17  C   UNL     1      -3.718  10.899  16.094  0.00  0.00    +0.000 C 
ATOM     18  C   UNL     1      -3.653  11.739  18.544  0.00  0.00    +0.000 A 
ATOM     19  C   UNL     1      -4.372  12.377  19.585  0.00  0.00    +0.000 A 
ENDBRANCH   1  18
BRANCH  10  20
ATOM     20  C   UNL     1      -0.441  10.527  21.370  0.00  0.00    +0.000 A 
ATOM     21  N   UNL     1       0.209  10.196  22.493  0.00  0.00    +0.000 NA
ATOM     22  O   UNL     1      -0.416  10.993  23.460  0.00  0.00    +0.000 OA
ATOM     23  C   UNL     1      -1.396  11.708  22.819  0.00  0.00    +0.000 A 
ATOM     24  N   UNL     1      -1.453  11.437  21.532  0.00  0.00    +0.000 NA
BRANCH  23  25
ATOM     25  C   UNL     1      -2.263  12.710  23.469  0.00  0.00    +0.000 A 
ATOM     26  C   UNL     1      -3.606  12.590  23.855  0.00  0.00    +0.000 A 
ATOM     27  N   UNL     1      -4.050  13.692  24.470  0.00  0.00    +0.000 NA
ATOM     28  N   UNL     1      -2.980  14.512  24.467  0.00  0.00    +0.000 N 
ATOM     29  C   UNL     1      -3.050  15.805  25.103  0.00  0.00    +0.000 C 
ATOM     30  C   UNL     1      -1.885  13.975  23.856  0.00  0.00    +0.000 A 
ENDBRANCH  23  25
ENDBRANCH  10  20
TORSDOF 3
ENDMDL
MODEL 8
REMARK VINA RESULT:      -6.9      4.293     10.681
REMARK  Name = 
REMARK  6 active torsions:
REMARK  status: ('A' for Active; 'I' for Inactive)
REMARK    1  A    between atoms: C_1  and  C_2
REMARK    2  A    between atoms: C_5  and  C_6
REMARK    3  A    between atoms: C_7  and  N_8
REMARK    4  A    between atoms: C_17  and  C_18
REMARK    5  A    between atoms: C_21  and  C_22
REMARK    6  A    between atoms: N_25  and  C_26
REMARK                            x       y       z     vdW  Elec       q    Type
REMARK                         _______ _______ _______ _____ _____    ______ ____
ROOT
ATOM      1  N   UNL     1      -3.170  12.449  19.559  0.00  0.00    +0.000 N 
ATOM      2  C   UNL     1      -2.547  12.629  20.774  0.00  0.00    +0.000 C 
ATOM      3  O   UNL     1      -3.099  12.543  21.867  0.00  0.00    +0.000 OA
ATOM      4  N   UNL     1      -1.169  12.901  20.719  0.00  0.00    +0.000 N 
ATOM      5  C   UNL     1      -0.443  12.922  21.995  0.00  0.00    +0.000 C 
ATOM      6  C   UNL     1      -0.185  14.343  22.491  0.00  0.00    +0.000 C 
ATOM      7  C   UNL     1       1.003  15.020  21.814  0.00  0.00    +0.000 C 
ATOM      8  C   UNL     1       0.875  15.142  20.297  0.00  0.00    +0.000 C 
ATOM      9  C   UNL     1       0.956  13.792  19.591  0.00  0.00    +0.000 C 
ATOM     10  C   UNL     1      -0.384  13.040  19.478  0.00  0.00    +0.000 C 
ATOM     11  H   UNL     1      -2.551  12.211  18.801  0.00  0.00    +0.000 HD
ENDROOT
BRANCH   1  18
ATOM     12  C   UNL     1      -7.754  12.807  21.254  0.00  0.00    +0.000 C 
ATOM     13  C   UNL     1      -6.832  12.414  20.137  0.00  0.00    +0.000 A 
ATOM     14  C   UNL     1      -7.341  11.912  18.947  0.00  0.00    +0.000 A 
ATOM     15  C   UNL     1      -6.472  11.548  17.923  0.00  0.00    +0.000 A 
ATOM     16  C   UNL     1      -5.069  11.670  18.047  0.00  0.00    +0.000 A 
ATOM     17  C   UNL     1      -4.278  11.198  16.863  0.00  0.00    +0.000 C 
ATOM     18  C   UNL     1      -4.538  12.210  19.233  0.00  0.00    +0.000 A 
ATOM     19  C   UNL     1      -5.442  12.554  20.269  0.00  0.00    +0.000 A 
ENDBRANCH   1  18
BRANCH  10  20
ATOM     20  C   UNL     1      -0.136  11.655  18.938  0.00  0.00    +0.000 A 
ATOM     21  N   UNL     1      -0.958  11.061  18.064  0.00  0.00    +0.000 NA
ATOM     22  O   UNL     1      -0.350   9.816  17.864  0.00  0.00    +0.000 OA
ATOM     23  C   UNL     1       0.767   9.782  18.660  0.00  0.00    +0.000 A 
ATOM     24  N   UNL     1       0.925  10.892  19.349  0.00  0.00    +0.000 NA
BRANCH  23  25
ATOM     25  C   UNL     1       1.725   8.660  18.712  0.00  0.00    +0.000 A 
ATOM     26  C   UNL     1       1.932   7.730  19.741  0.00  0.00    +0.000 A 
ATOM     27  N   UNL     1       2.851   6.816  19.412  0.00  0.00    +0.000 NA
ATOM     28  N   UNL     1       3.227   7.175  18.168  0.00  0.00    +0.000 N 
ATOM     29  C   UNL     1       4.186   6.382  17.438  0.00  0.00    +0.000 C 
ATOM     30  C   UNL     1       2.594   8.293  17.710  0.00  0.00    +0.000 A 
ENDBRANCH  23  25
ENDBRANCH  10  20
TORSDOF 3
ENDMDL
MODEL 9
REMARK VINA RESULT:      -6.8      3.512      7.008
REMARK  Name = 
REMARK  6 active torsions:
REMARK  status: ('A' for Active; 'I' for Inactive)
REMARK    1  A    between atoms: C_1  and  C_2
REMARK    2  A    between atoms: C_5  and  C_6
REMARK    3  A    between atoms: C_7  and  N_8
REMARK    4  A    between atoms: C_17  and  C_18
REMARK    5  A    between atoms: C_21  and  C_22
REMARK    6  A    between atoms: N_25  and  C_26
REMARK                            x       y       z     vdW  Elec       q    Type
REMARK                         _______ _______ _______ _____ _____    ______ ____
ROOT
ATOM      1  N   UNL     1       1.333   8.862  19.797  0.00  0.00    +0.000 N 
ATOM      2  C   UNL     1       1.031   9.453  21.003  0.00  0.00    +0.000 C 
ATOM      3  O   UNL     1       1.337   9.004  22.103  0.00  0.00    +0.000 OA
ATOM      4  N   UNL     1       0.347  10.679  20.926  0.00  0.00    +0.000 N 
ATOM      5  C   UNL     1       0.167  11.421  22.181  0.00  0.00    +0.000 C 
ATOM      6  C   UNL     1      -1.238  11.256  22.755  0.00  0.00    +0.000 C 
ATOM      7  C   UNL     1      -2.279  12.149  22.088  0.00  0.00    +0.000 C 
ATOM      8  C   UNL     1      -2.432  11.922  20.585  0.00  0.00    +0.000 C 
ATOM      9  C   UNL     1      -1.209  12.379  19.796  0.00  0.00    +0.000 C 
ATOM     10  C   UNL     1      -0.087  11.328  19.674  0.00  0.00    +0.000 C 
ATOM     11  H   UNL     1       1.332   9.488  19.009  0.00  0.00    +0.000 HD
ENDROOT
BRANCH   1  18
ATOM     12  C   UNL     1       1.864   4.232  21.314  0.00  0.00    +0.000 C 
ATOM     13  C   UNL     1       2.196   5.291  20.304  0.00  0.00    +0.000 A 
ATOM     14  C   UNL     1       3.009   4.999  19.216  0.00  0.00    +0.000 A 
ATOM     15  C   UNL     1       3.310   5.994  18.293  0.00  0.00    +0.000 A 
ATOM     16  C   UNL     1       2.817   7.313  18.418  0.00  0.00    +0.000 A 
ATOM     17  C   UNL     1       3.269   8.270  17.354  0.00  0.00    +0.000 C 
ATOM     18  C   UNL     1       1.964   7.618  19.495  0.00  0.00    +0.000 A 
ATOM     19  C   UNL     1       1.687   6.593  20.434  0.00  0.00    +0.000 A 
ENDBRANCH   1  18
BRANCH  10  20
ATOM     20  C   UNL     1       1.125  11.961  19.045  0.00  0.00    +0.000 A 
ATOM     21  N   UNL     1       1.955  11.290  18.235  0.00  0.00    +0.000 NA
ATOM     22  O   UNL     1       2.918  12.254  17.911  0.00  0.00    +0.000 OA
ATOM     23  C   UNL     1       2.578  13.402  18.581  0.00  0.00    +0.000 A 
ATOM     24  N   UNL     1       1.487  13.257  19.302  0.00  0.00    +0.000 NA
BRANCH  23  25
ATOM     25  C   UNL     1       3.310  14.680  18.475  0.00  0.00    +0.000 A 
ATOM     26  C   UNL     1       2.867  15.905  17.956  0.00  0.00    +0.000 A 
ATOM     27  N   UNL     1       3.791  16.864  18.075  0.00  0.00    +0.000 NA
ATOM     28  N   UNL     1       4.826  16.236  18.672  0.00  0.00    +0.000 N 
ATOM     29  C   UNL     1       6.017  16.969  19.025  0.00  0.00    +0.000 C 
ATOM     30  C   UNL     1       4.593  14.914  18.913  0.00  0.00    +0.000 A 
ENDBRANCH  23  25
ENDBRANCH  10  20
TORSDOF 3
ENDMDL
