MODEL 1
REMARK VINA RESULT:      -7.7      0.000      0.000
REMARK  Name = 
REMARK  4 active torsions:
REMARK  status: ('A' for Active; 'I' for Inactive)
REMARK    1  A    between atoms: C_2  and  C_3
REMARK    2  A    between atoms: C_3  and  C_4
REMARK    3  A    between atoms: C_3  and  N_10
REMARK    4  A    between atoms: C_13  and  N_14
REMARK                            x       y       z     vdW  Elec       q    Type
REMARK                         _______ _______ _______ _____ _____    ______ ____
ROOT
ATOM      1  N   UNL     1      -1.909  12.417  20.039  0.00  0.00    +0.000 NA
ATOM      2  C   UNL     1      -1.551  11.923  21.378  0.00  0.00    +0.000 C 
ATOM      3  C   UNL     1      -0.141  12.318  21.819  0.00  0.00    +0.000 C 
ATOM      4  C   UNL     1       0.880  11.752  20.836  0.00  0.00    +0.000 C 
ATOM      5  C   UNL     1       0.578  12.483  19.517  0.00  0.00    +0.000 C 
ATOM      6  C   UNL     1      -0.856  12.234  19.026  0.00  0.00    +0.000 C 
ENDROOT
BRANCH   4   7
ATOM      7  N   UNL     1       0.917  10.280  20.820  0.00  0.00    +0.000 N 
ATOM      8  C   UNL     1       1.050   9.511  22.018  0.00  0.00    +0.000 A 
ATOM      9  O   UNL     1       0.975   9.867  23.188  0.00  0.00    +0.000 OA
ATOM     10  N   UNL     1       1.344   8.197  21.657  0.00  0.00    +0.000 N 
ATOM     11  C   UNL     1       1.606   8.173  20.297  0.00  0.00    +0.000 A 
ATOM     12  C   UNL     1       2.214   7.148  19.603  0.00  0.00    +0.000 A 
ATOM     13  C   UNL     1       2.505   7.394  18.265  0.00  0.00    +0.000 A 
ATOM     14  C   UNL     1       2.087   8.591  17.660  0.00  0.00    +0.000 A 
ATOM     15  C   UNL     1       1.463   9.610  18.400  0.00  0.00    +0.000 A 
ATOM     16  C   UNL     1       1.304   9.421  19.756  0.00  0.00    +0.000 A 
ATOM     17  H   UNL     1       0.794   7.469  22.088  0.00  0.00    +0.000 HD
ENDBRANCH   4   7
BRANCH   1  18
ATOM     18  C   UNL     1      -3.260  11.856  19.639  0.00  0.00    +0.000 C 
BRANCH  18  20
ATOM     19  O   UNL     1      -4.239  14.081  19.954  0.00  0.00    +0.000 OA
ATOM     20  C   UNL     1      -4.432  12.868  19.853  0.00  0.00    +0.000 C 
ATOM     21  N   UNL     1      -5.722  12.348  19.874  0.00  0.00    +0.000 N 
ATOM     22  C   UNL     1      -6.893  13.202  19.884  0.00  0.00    +0.000 C 
ATOM     23  C   UNL     1      -7.917  12.406  20.670  0.00  0.00    +0.000 C 
ATOM     24  C   UNL     1      -7.609  10.968  20.276  0.00  0.00    +0.000 C 
ATOM     25  C   UNL     1      -6.095  10.954  20.070  0.00  0.00    +0.000 C 
ENDBRANCH  18  20
BRANCH  18  26
ATOM     26  C   UNL     1      -3.313  11.187  18.258  0.00  0.00    +0.000 A 
ATOM     27  C   UNL     1      -4.050  11.710  17.192  0.00  0.00    +0.000 A 
ATOM     28  C   UNL     1      -3.869  11.238  15.891  0.00  0.00    +0.000 A 
ATOM     29  C   UNL     1      -2.979  10.197  15.645  0.00  0.00    +0.000 A 
ATOM     30  C   UNL     1      -2.285   9.612  16.700  0.00  0.00    +0.000 A 
ATOM     31  C   UNL     1      -2.447  10.100  17.995  0.00  0.00    +0.000 A 
ENDBRANCH  18  26
ENDBRANCH   1  18
TORSDOF 4
ENDMDL
MODEL 2
REMARK VINA RESULT:      -7.3      0.505      1.007
REMARK  Name = 
REMARK  4 active torsions:
REMARK  status: ('A' for Active; 'I' for Inactive)
REMARK    1  A    between atoms: C_2  and  C_3
REMARK    2  A    between atoms: C_3  and  C_4
REMARK    3  A    between atoms: C_3  and  N_10
REMARK    4  A    between atoms: C_13  and  N_14
REMARK                            x       y       z     vdW  Elec       q    Type
REMARK                         _______ _______ _______ _____ _____    ______ ____
ROOT
ATOM      1  N   UNL     1      -2.017  12.670  20.440  0.00  0.00    +0.000 NA
ATOM      2  C   UNL     1      -1.745  11.987  21.715  0.00  0.00    +0.000 C 
ATOM      3  C   UNL     1      -0.372  12.312  22.303  0.00  0.00    +0.000 C 
ATOM      4  C   UNL     1       0.717  11.892  21.320  0.00  0.00    +0.000 C 
ATOM      5  C   UNL     1       0.499  12.806  20.103  0.00  0.00    +0.000 C 
ATOM      6  C   UNL     1      -0.897  12.634  19.485  0.00  0.00    +0.000 C 
ENDROOT
BRANCH   4   7
ATOM      7  N   UNL     1       0.767  10.438  21.093  0.00  0.00    +0.000 N 
ATOM      8  C   UNL     1       0.902   9.507  22.170  0.00  0.00    +0.000 A 
ATOM      9  O   UNL     1       0.821   9.691  23.378  0.00  0.00    +0.000 OA
ATOM     10  N   UNL     1       1.209   8.260  21.626  0.00  0.00    +0.000 N 
ATOM     11  C   UNL     1       1.476   8.432  20.278  0.00  0.00    +0.000 A 
ATOM     12  C   UNL     1       2.094   7.523  19.447  0.00  0.00    +0.000 A 
ATOM     13  C   UNL     1       2.388   7.960  18.159  0.00  0.00    +0.000 A 
ATOM     14  C   UNL     1       1.962   9.227  17.730  0.00  0.00    +0.000 A 
ATOM     15  C   UNL     1       1.327  10.125  18.605  0.00  0.00    +0.000 A 
ATOM     16  C   UNL     1       1.165   9.743  19.919  0.00  0.00    +0.000 A 
ATOM     17  H   UNL     1       0.664   7.473  21.945  0.00  0.00    +0.000 HD
ENDBRANCH   4   7
BRANCH   1  18
ATOM     18  C   UNL     1      -3.334  12.176  19.874  0.00  0.00    +0.000 C 
BRANCH  18  20
ATOM     19  O   UNL     1      -4.290  14.433  19.913  0.00  0.00    +0.000 OA
ATOM     20  C   UNL     1      -4.489  13.220  20.007  0.00  0.00    +0.000 C 
ATOM     21  N   UNL     1      -5.775  12.721  20.187  0.00  0.00    +0.000 N 
ATOM     22  C   UNL     1      -6.944  13.579  20.142  0.00  0.00    +0.000 C 
ATOM     23  C   UNL     1      -7.915  12.919  21.102  0.00  0.00    +0.000 C 
ATOM     24  C   UNL     1      -7.633  11.435  20.909  0.00  0.00    +0.000 C 
ATOM     25  C   UNL     1      -6.136  11.376  20.613  0.00  0.00    +0.000 C 
ENDBRANCH  18  20
BRANCH  18  26
ATOM     26  C   UNL     1      -3.258  11.568  18.466  0.00  0.00    +0.000 A 
ATOM     27  C   UNL     1      -2.343  10.568  18.123  0.00  0.00    +0.000 A 
ATOM     28  C   UNL     1      -2.471   9.853  16.932  0.00  0.00    +0.000 A 
ATOM     29  C   UNL     1      -3.493  10.162  16.039  0.00  0.00    +0.000 A 
ATOM     30  C   UNL     1      -4.375  11.201  16.325  0.00  0.00    +0.000 A 
ATOM     31  C   UNL     1      -4.262  11.898  17.527  0.00  0.00    +0.000 A 
ENDBRANCH  18  26
ENDBRANCH   1  18
TORSDOF 4
ENDMDL
MODEL 3
REMARK VINA RESULT:      -7.0      6.256     10.729
REMARK  Name = 
REMARK  4 active torsions:
REMARK  status: ('A' for Active; 'I' for Inactive)
REMARK    1  A    between atoms: C_2  and  C_3
REMARK    2  A    between atoms: C_3  and  C_4
REMARK    3  A    between atoms: C_3  and  N_10
REMARK    4  A    between atoms: C_13  and  N_14
REMARK                            x       y       z     vdW  Elec       q    Type
REMARK                         _______ _______ _______ _____ _____    ______ ____
ROOT
ATOM      1  N   UNL     1       4.849   3.781  16.869  0.00  0.00    +0.000 NA
ATOM      2  C   UNL     1       5.147   3.536  18.289  0.00  0.00    +0.000 C 
ATOM      3  C   UNL     1       4.111   2.658  18.990  0.00  0.00    +0.000 C 
ATOM      4  C   UNL     1       2.742   3.329  18.921  0.00  0.00    +0.000 C 
ATOM      5  C   UNL     1       2.405   3.346  17.421  0.00  0.00    +0.000 C 
ATOM      6  C   UNL     1       3.443   4.126  16.598  0.00  0.00    +0.000 C 
ENDROOT
BRANCH   4   7
ATOM      7  N   UNL     1       2.680   4.601  19.659  0.00  0.00    +0.000 N 
ATOM      8  C   UNL     1       2.176   4.679  20.995  0.00  0.00    +0.000 A 
ATOM      9  O   UNL     1       1.902   3.782  21.781  0.00  0.00    +0.000 OA
ATOM     10  N   UNL     1       1.978   6.025  21.303  0.00  0.00    +0.000 N 
ATOM     11  C   UNL     1       2.137   6.761  20.141  0.00  0.00    +0.000 A 
ATOM     12  C   UNL     1       1.746   8.068  19.943  0.00  0.00    +0.000 A 
ATOM     13  C   UNL     1       1.878   8.566  18.651  0.00  0.00    +0.000 A 
ATOM     14  C   UNL     1       2.483   7.786  17.652  0.00  0.00    +0.000 A 
ATOM     15  C   UNL     1       2.876   6.458  17.894  0.00  0.00    +0.000 A 
ATOM     16  C   UNL     1       2.615   5.921  19.135  0.00  0.00    +0.000 A 
ATOM     17  H   UNL     1       2.356   6.357  22.177  0.00  0.00    +0.000 HD
ENDBRANCH   4   7
BRANCH   1  18
ATOM     18  C   UNL     1       5.851   4.770  16.306  0.00  0.00    +0.000 C 
BRANCH  18  20
ATOM     19  O   UNL     1       7.614   4.236  17.923  0.00  0.00    +0.000 OA
ATOM     20  C   UNL     1       7.004   5.110  17.304  0.00  0.00    +0.000 C 
ATOM     21  N   UNL     1       7.357   6.450  17.430  0.00  0.00    +0.000 N 
ATOM     22  C   UNL     1       8.524   6.868  18.183  0.00  0.00    +0.000 C 
ATOM     23  C   UNL     1       8.134   8.225  18.734  0.00  0.00    +0.000 C 
ATOM     24  C   UNL     1       7.275   8.812  17.622  0.00  0.00    +0.000 C 
ATOM     25  C   UNL     1       6.566   7.601  17.020  0.00  0.00    +0.000 C 
ENDBRANCH  18  20
BRANCH  18  26
ATOM     26  C   UNL     1       6.374   4.448  14.898  0.00  0.00    +0.000 A 
ATOM     27  C   UNL     1       5.726   3.559  14.036  0.00  0.00    +0.000 A 
ATOM     28  C   UNL     1       6.067   3.490  12.685  0.00  0.00    +0.000 A 
ATOM     29  C   UNL     1       7.100   4.278  12.184  0.00  0.00    +0.000 A 
ATOM     30  C   UNL     1       7.807   5.120  13.038  0.00  0.00    +0.000 A 
ATOM     31  C   UNL     1       7.449   5.208  14.382  0.00  0.00    +0.000 A 
ENDBRANCH  18  26
ENDBRANCH   1  18
TORSDOF 4
ENDMDL
MODEL 4
REMARK VINA RESULT:      -7.0      3.959      7.281
REMARK  Name = 
REMARK  4 active torsions:
REMARK  status: ('A' for Active; 'I' for Inactive)
REMARK    1  A    between atoms: C_2  and  C_3
REMARK    2  A    between atoms: C_3  and  C_4
REMARK    3  A    between atoms: C_3  and  N_10
REMARK    4  A    between atoms: C_13  and  N_14
REMARK                            x       y       z     vdW  Elec       q    Type
REMARK                         _______ _______ _______ _____ _____    ______ ____
ROOT
ATOM      1  N   UNL     1       1.303  13.265  20.689  0.00  0.00    +0.000 NA
ATOM      2  C   UNL     1       2.638  13.564  20.147  0.00  0.00    +0.000 C 
ATOM      3  C   UNL     1       3.282  14.809  20.757  0.00  0.00    +0.000 C 
ATOM      4  C   UNL     1       2.399  16.024  20.489  0.00  0.00    +0.000 C 
ATOM      5  C   UNL     1       1.109  15.732  21.272  0.00  0.00    +0.000 C 
ATOM      6  C   UNL     1       0.422  14.439  20.806  0.00  0.00    +0.000 C 
ENDROOT
BRANCH   4   7
ATOM      7  N   UNL     1       2.282  16.355  19.059  0.00  0.00    +0.000 N 
ATOM      8  C   UNL     1       3.429  16.576  18.235  0.00  0.00    +0.000 A 
ATOM      9  O   UNL     1       4.613  16.372  18.472  0.00  0.00    +0.000 OA
ATOM     10  N   UNL     1       2.997  17.144  17.037  0.00  0.00    +0.000 N 
ATOM     11  C   UNL     1       1.659  17.475  17.176  0.00  0.00    +0.000 A 
ATOM     12  C   UNL     1       0.937  18.309  16.350  0.00  0.00    +0.000 A 
ATOM     13  C   UNL     1      -0.359  18.614  16.757  0.00  0.00    +0.000 A 
ATOM     14  C   UNL     1      -0.904  17.998  17.895  0.00  0.00    +0.000 A 
ATOM     15  C   UNL     1      -0.137  17.147  18.709  0.00  0.00    +0.000 A 
ATOM     16  C   UNL     1       1.188  16.959  18.382  0.00  0.00    +0.000 A 
ATOM     17  H   UNL     1       3.338  16.729  16.183  0.00  0.00    +0.000 HD
ENDBRANCH   4   7
BRANCH   1  18
ATOM     18  C   UNL     1       0.696  12.105  19.925  0.00  0.00    +0.000 C 
BRANCH  18  20
ATOM     19  O   UNL     1       1.045  10.539  21.779  0.00  0.00    +0.000 OA
ATOM     20  C   UNL     1       1.023  10.714  20.559  0.00  0.00    +0.000 C 
ATOM     21  N   UNL     1       1.240   9.655  19.684  0.00  0.00    +0.000 N 
ATOM     22  C   UNL     1       1.372   8.289  20.151  0.00  0.00    +0.000 C 
ATOM     23  C   UNL     1       2.322   7.654  19.154  0.00  0.00    +0.000 C 
ATOM     24  C   UNL     1       1.950   8.337  17.845  0.00  0.00    +0.000 C 
ATOM     25  C   UNL     1       1.543   9.748  18.263  0.00  0.00    +0.000 C 
ENDBRANCH  18  20
BRANCH  18  26
ATOM     26  C   UNL     1      -0.793  12.252  19.580  0.00  0.00    +0.000 A 
ATOM     27  C   UNL     1      -1.297  12.030  18.295  0.00  0.00    +0.000 A 
ATOM     28  C   UNL     1      -2.669  11.909  18.070  0.00  0.00    +0.000 A 
ATOM     29  C   UNL     1      -3.564  12.059  19.125  0.00  0.00    +0.000 A 
ATOM     30  C   UNL     1      -3.091  12.351  20.402  0.00  0.00    +0.000 A 
ATOM     31  C   UNL     1      -1.720  12.446  20.630  0.00  0.00    +0.000 A 
ENDBRANCH  18  26
ENDBRANCH   1  18
TORSDOF 4
ENDMDL
MODEL 5
REMARK VINA RESULT:      -7.0      0.955      1.005
REMARK  Name = 
REMARK  4 active torsions:
REMARK  status: ('A' for Active; 'I' for Inactive)
REMARK    1  A    between atoms: C_2  and  C_3
REMARK    2  A    between atoms: C_3  and  C_4
REMARK    3  A    between atoms: C_3  and  N_10
REMARK    4  A    between atoms: C_13  and  N_14
REMARK                            x       y       z     vdW  Elec       q    Type
REMARK                         _______ _______ _______ _____ _____    ______ ____
ROOT
ATOM      1  N   UNL     1      -2.231  12.971  20.622  0.00  0.00    +0.000 NA
ATOM      2  C   UNL     1      -1.848  12.317  21.884  0.00  0.00    +0.000 C 
ATOM      3  C   UNL     1      -0.416  12.625  22.322  0.00  0.00    +0.000 C 
ATOM      4  C   UNL     1       0.560  12.150  21.249  0.00  0.00    +0.000 C 
ATOM      5  C   UNL     1       0.242  13.035  20.032  0.00  0.00    +0.000 C 
ATOM      6  C   UNL     1      -1.213  12.880  19.562  0.00  0.00    +0.000 C 
ENDROOT
BRANCH   4   7
ATOM      7  N   UNL     1       0.556  10.690  21.063  0.00  0.00    +0.000 N 
ATOM      8  C   UNL     1       0.579   9.785  22.170  0.00  0.00    +0.000 A 
ATOM      9  O   UNL     1       0.430  10.006  23.365  0.00  0.00    +0.000 OA
ATOM     10  N   UNL     1       0.860   8.510  21.678  0.00  0.00    +0.000 N 
ATOM     11  C   UNL     1       1.219   8.632  20.346  0.00  0.00    +0.000 A 
ATOM     12  C   UNL     1       1.845   7.672  19.580  0.00  0.00    +0.000 A 
ATOM     13  C   UNL     1       2.239   8.059  18.302  0.00  0.00    +0.000 A 
ATOM     14  C   UNL     1       1.901   9.332  17.815  0.00  0.00    +0.000 A 
ATOM     15  C   UNL     1       1.255  10.282  18.625  0.00  0.00    +0.000 A 
ATOM     16  C   UNL     1       0.993   9.945  19.935  0.00  0.00    +0.000 A 
ATOM     17  H   UNL     1       0.260   7.758  21.982  0.00  0.00    +0.000 HD
ENDBRANCH   4   7
BRANCH   1  18
ATOM     18  C   UNL     1      -3.608  12.494  20.204  0.00  0.00    +0.000 C 
BRANCH  18  20
ATOM     19  O   UNL     1      -4.498  14.768  19.995  0.00  0.00    +0.000 OA
ATOM     20  C   UNL     1      -4.705  13.600  20.329  0.00  0.00    +0.000 C 
ATOM     21  N   UNL     1      -5.956  13.202  20.789  0.00  0.00    +0.000 N 
ATOM     22  C   UNL     1      -7.098  14.095  20.776  0.00  0.00    +0.000 C 
ATOM     23  C   UNL     1      -7.917  13.655  21.974  0.00  0.00    +0.000 C 
ATOM     24  C   UNL     1      -7.701  12.148  22.002  0.00  0.00    +0.000 C 
ATOM     25  C   UNL     1      -6.272  11.967  21.494  0.00  0.00    +0.000 C 
ENDBRANCH  18  20
BRANCH  18  26
ATOM     26  C   UNL     1      -3.670  11.761  18.856  0.00  0.00    +0.000 A 
ATOM     27  C   UNL     1      -4.734  11.910  17.962  0.00  0.00    +0.000 A 
ATOM     28  C   UNL     1      -4.640  11.452  16.648  0.00  0.00    +0.000 A 
ATOM     29  C   UNL     1      -3.493  10.789  16.220  0.00  0.00    +0.000 A 
ATOM     30  C   UNL     1      -2.447  10.566  17.111  0.00  0.00    +0.000 A 
ATOM     31  C   UNL     1      -2.531  11.047  18.417  0.00  0.00    +0.000 A 
ENDBRANCH  18  26
ENDBRANCH   1  18
TORSDOF 4
ENDMDL
MODEL 6
REMARK VINA RESULT:      -7.0      3.535      6.797
REMARK  Name = 
REMARK  4 active torsions:
REMARK  status: ('A' for Active; 'I' for Inactive)
REMARK    1  A    between atoms: C_2  and  C_3
REMARK    2  A    between atoms: C_3  and  C_4
REMARK    3  A    between atoms: C_3  and  N_10
REMARK    4  A    between atoms: C_13  and  N_14
REMARK                            x       y       z     vdW  Elec       q    Type
REMARK                         _______ _______ _______ _____ _____    ______ ____
ROOT
ATOM      1  N   UNL     1       1.419  12.140  19.454  0.00  0.00    +0.000 NA
ATOM      2  C   UNL     1       1.602  12.885  18.197  0.00  0.00    +0.000 C 
ATOM      3  C   UNL     1       2.913  13.670  18.136  0.00  0.00    +0.000 C 
ATOM      4  C   UNL     1       2.955  14.683  19.277  0.00  0.00    +0.000 C 
ATOM      5  C   UNL     1       2.984  13.818  20.548  0.00  0.00    +0.000 C 
ATOM      6  C   UNL     1       1.752  12.909  20.665  0.00  0.00    +0.000 C 
ENDROOT
BRANCH   4   7
ATOM      7  N   UNL     1       1.918  15.723  19.170  0.00  0.00    +0.000 N 
ATOM      8  C   UNL     1       2.088  16.883  18.352  0.00  0.00    +0.000 A 
ATOM      9  O   UNL     1       2.948  17.131  17.517  0.00  0.00    +0.000 OA
ATOM     10  N   UNL     1       1.087  17.795  18.683  0.00  0.00    +0.000 N 
ATOM     11  C   UNL     1       0.440  17.331  19.817  0.00  0.00    +0.000 A 
ATOM     12  C   UNL     1      -0.400  18.060  20.632  0.00  0.00    +0.000 A 
ATOM     13  C   UNL     1      -0.831  17.433  21.797  0.00  0.00    +0.000 A 
ATOM     14  C   UNL     1      -0.497  16.091  22.041  0.00  0.00    +0.000 A 
ATOM     15  C   UNL     1       0.357  15.377  21.182  0.00  0.00    +0.000 A 
ATOM     16  C   UNL     1       0.895  16.045  20.104  0.00  0.00    +0.000 A 
ATOM     17  H   UNL     1       0.563  18.199  17.922  0.00  0.00    +0.000 HD
ENDBRANCH   4   7
BRANCH   1  18
ATOM     18  C   UNL     1       0.038  11.515  19.473  0.00  0.00    +0.000 C 
BRANCH  18  20
ATOM     19  O   UNL     1       0.638   9.804  17.824  0.00  0.00    +0.000 OA
ATOM     20  C   UNL     1      -0.225  10.570  18.257  0.00  0.00    +0.000 C 
ATOM     21  N   UNL     1      -1.502  10.588  17.706  0.00  0.00    +0.000 N 
ATOM     22  C   UNL     1      -1.917   9.631  16.698  0.00  0.00    +0.000 C 
ATOM     23  C   UNL     1      -2.912  10.402  15.853  0.00  0.00    +0.000 C 
ATOM     24  C   UNL     1      -3.607  11.295  16.872  0.00  0.00    +0.000 C 
ATOM     25  C   UNL     1      -2.516  11.617  17.890  0.00  0.00    +0.000 C 
ENDBRANCH  18  20
BRANCH  18  26
ATOM     26  C   UNL     1      -0.377  10.878  20.807  0.00  0.00    +0.000 A 
ATOM     27  C   UNL     1       0.119   9.646  21.244  0.00  0.00    +0.000 A 
ATOM     28  C   UNL     1      -0.063   9.223  22.561  0.00  0.00    +0.000 A 
ATOM     29  C   UNL     1      -0.792  10.007  23.451  0.00  0.00    +0.000 A 
ATOM     30  C   UNL     1      -1.356  11.204  23.021  0.00  0.00    +0.000 A 
ATOM     31  C   UNL     1      -1.152  11.639  21.713  0.00  0.00    +0.000 A 
ENDBRANCH  18  26
ENDBRANCH   1  18
TORSDOF 4
ENDMDL
MODEL 7
REMARK VINA RESULT:      -7.0      3.583      6.735
REMARK  Name = 
REMARK  4 active torsions:
REMARK  status: ('A' for Active; 'I' for Inactive)
REMARK    1  A    between atoms: C_2  and  C_3
REMARK    2  A    between atoms: C_3  and  C_4
REMARK    3  A    between atoms: C_3  and  N_10
REMARK    4  A    between atoms: C_13  and  N_14
REMARK                            x       y       z     vdW  Elec       q    Type
REMARK                         _______ _______ _______ _____ _____    ______ ____
ROOT
ATOM      1  N   UNL     1       1.382  13.448  20.707  0.00  0.00    +0.000 NA
ATOM      2  C   UNL     1       0.110  13.796  21.360  0.00  0.00    +0.000 C 
ATOM      3  C   UNL     1      -0.545  12.623  22.090  0.00  0.00    +0.000 C 
ATOM      4  C   UNL     1      -0.836  11.502  21.096  0.00  0.00    +0.000 C 
ATOM      5  C   UNL     1       0.555  11.044  20.627  0.00  0.00    +0.000 C 
ATOM      6  C   UNL     1       1.349  12.178  19.960  0.00  0.00    +0.000 C 
ENDROOT
BRANCH   4   7
ATOM      7  N   UNL     1      -1.825  11.874  20.071  0.00  0.00    +0.000 N 
ATOM      8  C   UNL     1      -3.032  12.567  20.399  0.00  0.00    +0.000 A 
ATOM      9  O   UNL     1      -3.366  13.103  21.447  0.00  0.00    +0.000 OA
ATOM     10  N   UNL     1      -3.874  12.515  19.288  0.00  0.00    +0.000 N 
ATOM     11  C   UNL     1      -3.321  11.637  18.370  0.00  0.00    +0.000 A 
ATOM     12  C   UNL     1      -3.964  11.082  17.285  0.00  0.00    +0.000 A 
ATOM     13  C   UNL     1      -3.258  10.116  16.574  0.00  0.00    +0.000 A 
ATOM     14  C   UNL     1      -1.924   9.830  16.906  0.00  0.00    +0.000 A 
ATOM     15  C   UNL     1      -1.299  10.423  18.017  0.00  0.00    +0.000 A 
ATOM     16  C   UNL     1      -2.047  11.272  18.803  0.00  0.00    +0.000 A 
ATOM     17  H   UNL     1      -4.288  13.383  18.985  0.00  0.00    +0.000 HD
ENDBRANCH   4   7
BRANCH   1  18
ATOM     18  C   UNL     1       1.876  14.632  19.898  0.00  0.00    +0.000 C 
BRANCH  18  20
ATOM     19  O   UNL     1       1.853  16.402  21.594  0.00  0.00    +0.000 OA
ATOM     20  C   UNL     1       1.444  16.008  20.500  0.00  0.00    +0.000 C 
ATOM     21  N   UNL     1       0.611  16.805  19.723  0.00  0.00    +0.000 N 
ATOM     22  C   UNL     1       0.292  18.171  20.093  0.00  0.00    +0.000 C 
ATOM     23  C   UNL     1      -1.111  18.375  19.553  0.00  0.00    +0.000 C 
ATOM     24  C   UNL     1      -1.106  17.557  18.269  0.00  0.00    +0.000 C 
ATOM     25  C   UNL     1      -0.186  16.378  18.581  0.00  0.00    +0.000 C 
ENDBRANCH  18  20
BRANCH  18  26
ATOM     26  C   UNL     1       3.365  14.600  19.526  0.00  0.00    +0.000 A 
ATOM     27  C   UNL     1       3.813  14.559  18.203  0.00  0.00    +0.000 A 
ATOM     28  C   UNL     1       5.151  14.799  17.888  0.00  0.00    +0.000 A 
ATOM     29  C   UNL     1       6.075  15.035  18.902  0.00  0.00    +0.000 A 
ATOM     30  C   UNL     1       5.667  15.011  20.233  0.00  0.00    +0.000 A 
ATOM     31  C   UNL     1       4.325  14.797  20.545  0.00  0.00    +0.000 A 
ENDBRANCH  18  26
ENDBRANCH   1  18
TORSDOF 4
ENDMDL
MODEL 8
REMARK VINA RESULT:      -6.9      2.532      6.995
REMARK  Name = 
REMARK  4 active torsions:
REMARK  status: ('A' for Active; 'I' for Inactive)
REMARK    1  A    between atoms: C_2  and  C_3
REMARK    2  A    between atoms: C_3  and  C_4
REMARK    3  A    between atoms: C_3  and  N_10
REMARK    4  A    between atoms: C_13  and  N_14
REMARK                            x       y       z     vdW  Elec       q    Type
REMARK                         _______ _______ _______ _____ _____    ______ ____
ROOT
ATOM      1  N   UNL     1       1.553  11.766  19.145  0.00  0.00    +0.000 NA
ATOM      2  C   UNL     1       1.147  12.868  18.258  0.00  0.00    +0.000 C 
ATOM      3  C   UNL     1       1.805  14.205  18.601  0.00  0.00    +0.000 C 
ATOM      4  C   UNL     1       1.433  14.606  20.026  0.00  0.00    +0.000 C 
ATOM      5  C   UNL     1       2.083  13.524  20.904  0.00  0.00    +0.000 C 
ATOM      6  C   UNL     1       1.564  12.116  20.576  0.00  0.00    +0.000 C 
ENDROOT
BRANCH   4   7
ATOM      7  N   UNL     1      -0.005  14.868  20.201  0.00  0.00    +0.000 N 
ATOM      8  C   UNL     1      -0.710  15.804  19.381  0.00  0.00    +0.000 A 
ATOM      9  O   UNL     1      -0.352  16.373  18.358  0.00  0.00    +0.000 OA
ATOM     10  N   UNL     1      -1.953  16.040  19.968  0.00  0.00    +0.000 N 
ATOM     11  C   UNL     1      -1.955  15.454  21.223  0.00  0.00    +0.000 A 
ATOM     12  C   UNL     1      -2.860  15.695  22.234  0.00  0.00    +0.000 A 
ATOM     13  C   UNL     1      -2.591  15.099  23.462  0.00  0.00    +0.000 A 
ATOM     14  C   UNL     1      -1.507  14.216  23.596  0.00  0.00    +0.000 A 
ATOM     15  C   UNL     1      -0.609  13.989  22.538  0.00  0.00    +0.000 A 
ATOM     16  C   UNL     1      -0.797  14.690  21.367  0.00  0.00    +0.000 A 
ATOM     17  H   UNL     1      -2.763  15.978  19.370  0.00  0.00    +0.000 HD
ENDBRANCH   4   7
BRANCH   1  18
ATOM     18  C   UNL     1       0.745  10.527  18.814  0.00  0.00    +0.000 C 
BRANCH  18  20
ATOM     19  O   UNL     1       0.755   9.205  20.878  0.00  0.00    +0.000 OA
ATOM     20  C   UNL     1       1.116   9.297  19.704  0.00  0.00    +0.000 C 
ATOM     21  N   UNL     1       1.835   8.272  19.097  0.00  0.00    +0.000 N 
ATOM     22  C   UNL     1       2.080   7.008  19.764  0.00  0.00    +0.000 C 
ATOM     23  C   UNL     1       3.424   6.564  19.221  0.00  0.00    +0.000 C 
ATOM     24  C   UNL     1       3.391   7.059  17.781  0.00  0.00    +0.000 C 
ATOM     25  C   UNL     1       2.581   8.352  17.849  0.00  0.00    +0.000 C 
ENDBRANCH  18  20
BRANCH  18  26
ATOM     26  C   UNL     1      -0.773  10.738  18.716  0.00  0.00    +0.000 A 
ATOM     27  C   UNL     1      -1.472  11.605  19.561  0.00  0.00    +0.000 A 
ATOM     28  C   UNL     1      -2.788  11.977  19.281  0.00  0.00    +0.000 A 
ATOM     29  C   UNL     1      -3.442  11.447  18.173  0.00  0.00    +0.000 A 
ATOM     30  C   UNL     1      -2.791  10.528  17.355  0.00  0.00    +0.000 A 
ATOM     31  C   UNL     1      -1.469  10.175  17.621  0.00  0.00    +0.000 A 
ENDBRANCH  18  26
ENDBRANCH   1  18
TORSDOF 4
ENDMDL
MODEL 9
REMARK VINA RESULT:      -6.9      3.465      6.626
REMARK  Name = 
REMARK  4 active torsions:
REMARK  status: ('A' for Active; 'I' for Inactive)
REMARK    1  A    between atoms: C_2  and  C_3
REMARK    2  A    between atoms: C_3  and  C_4
REMARK    3  A    between atoms: C_3  and  N_10
REMARK    4  A    between atoms: C_13  and  N_14
REMARK                            x       y       z     vdW  Elec       q    Type
REMARK                         _______ _______ _______ _____ _____    ______ ____
ROOT
ATOM      1  N   UNL     1       1.339  12.230  19.444  0.00  0.00    +0.000 NA
ATOM      2  C   UNL     1       1.308  13.153  18.298  0.00  0.00    +0.000 C 
ATOM      3  C   UNL     1       2.550  14.039  18.191  0.00  0.00    +0.000 C 
ATOM      4  C   UNL     1       2.683  14.886  19.454  0.00  0.00    +0.000 C 
ATOM      5  C   UNL     1       2.933  13.860  20.571  0.00  0.00    +0.000 C 
ATOM      6  C   UNL     1       1.784  12.849  20.705  0.00  0.00    +0.000 C 
ENDROOT
BRANCH   4   7
ATOM      7  N   UNL     1       1.580  15.846  19.629  0.00  0.00    +0.000 N 
ATOM      8  C   UNL     1       0.492  15.596  20.523  0.00  0.00    +0.000 A 
ATOM      9  O   UNL     1       0.363  14.724  21.373  0.00  0.00    +0.000 OA
ATOM     10  N   UNL     1      -0.510  16.527  20.253  0.00  0.00    +0.000 N 
ATOM     11  C   UNL     1      -0.171  17.200  19.091  0.00  0.00    +0.000 A 
ATOM     12  C   UNL     1      -1.011  17.981  18.326  0.00  0.00    +0.000 A 
ATOM     13  C   UNL     1      -0.496  18.450  17.121  0.00  0.00    +0.000 A 
ATOM     14  C   UNL     1       0.848  18.213  16.789  0.00  0.00    +0.000 A 
ATOM     15  C   UNL     1       1.677  17.417  17.599  0.00  0.00    +0.000 A 
ATOM     16  C   UNL     1       1.123  16.837  18.719  0.00  0.00    +0.000 A 
ATOM     17  H   UNL     1      -0.899  17.024  21.039  0.00  0.00    +0.000 HD
ENDBRANCH   4   7
BRANCH   1  18
ATOM     18  C   UNL     1       0.013  11.502  19.543  0.00  0.00    +0.000 C 
BRANCH  18  20
ATOM     19  O   UNL     1       0.545   9.892  17.773  0.00  0.00    +0.000 OA
ATOM     20  C   UNL     1      -0.301  10.626  18.287  0.00  0.00    +0.000 C 
ATOM     21  N   UNL     1      -1.601  10.668  17.795  0.00  0.00    +0.000 N 
ATOM     22  C   UNL     1      -2.056   9.767  16.754  0.00  0.00    +0.000 C 
ATOM     23  C   UNL     1      -3.091  10.579  15.999  0.00  0.00    +0.000 C 
ATOM     24  C   UNL     1      -3.744  11.408  17.097  0.00  0.00    +0.000 C 
ATOM     25  C   UNL     1      -2.609  11.678  18.083  0.00  0.00    +0.000 C 
ENDBRANCH  18  20
BRANCH  18  26
ATOM     26  C   UNL     1      -0.226  10.745  20.856  0.00  0.00    +0.000 A 
ATOM     27  C   UNL     1       0.476   9.585  21.199  0.00  0.00    +0.000 A 
ATOM     28  C   UNL     1       0.432   9.075  22.497  0.00  0.00    +0.000 A 
ATOM     29  C   UNL     1      -0.357   9.692  23.464  0.00  0.00    +0.000 A 
ATOM     30  C   UNL     1      -1.121  10.807  23.129  0.00  0.00    +0.000 A 
ATOM     31  C   UNL     1      -1.057  11.331  21.839  0.00  0.00    +0.000 A 
ENDBRANCH  18  26
ENDBRANCH   1  18
TORSDOF 4
ENDMDL
