MODEL 1
REMARK VINA RESULT:      -8.7      0.000      0.000
REMARK  Name = 
REMARK  3 active torsions:
REMARK  status: ('A' for Active; 'I' for Inactive)
REMARK    1  A    between atoms: C_1  and  C_2
REMARK    2  A    between atoms: C_8  and  C_9
REMARK    3  A    between atoms: N_11  and  C_12
REMARK                            x       y       z     vdW  Elec       q    Type
REMARK                         _______ _______ _______ _____ _____    ______ ____
ROOT
ATOM      1  C   UNL     1       8.671   9.412  18.320  0.00  0.00    +0.000 C 
ATOM      2  O   UNL     1       8.929   8.827  19.373  0.00  0.00    +0.000 OA
ATOM      3  N   UNL     1       7.743   8.868  17.420  0.00  0.00    +0.000 N 
ATOM      4  H   UNL     1       7.604   9.382  16.595  0.00  0.00    +0.000 HD
ENDROOT
BRANCH   3   5
ATOM      5  C   UNL     1       7.040   7.543  17.499  0.00  0.00    +0.000 A 
ATOM      6  C   UNL     1       7.576   6.245  17.576  0.00  0.00    +0.000 A 
ATOM      7  C   UNL     1       6.799   5.011  17.657  0.00  0.00    +0.000 A 
ATOM      8  C   UNL     1       5.389   5.111  17.673  0.00  0.00    +0.000 A 
ATOM      9  C   UNL     1       4.844   6.393  17.568  0.00  0.00    +0.000 A 
ATOM     10  C   UNL     1       5.648   7.565  17.451  0.00  0.00    +0.000 A 
ATOM     11  N   UNL     1       3.490   6.349  17.623  0.00  0.00    +0.000 NA
ATOM     12  C   UNL     1       3.163   5.085  17.750  0.00  0.00    +0.000 A 
ATOM     13  N   UNL     1       4.272   4.250  17.747  0.00  0.00    +0.000 N 
ATOM     14  C   UNL     1       4.135   2.799  17.569  0.00  0.00    +0.000 C 
ATOM     15  C   UNL     1       3.476   1.932  18.673  0.00  0.00    +0.000 C 
ATOM     16  C   UNL     1       1.984   2.054  18.821  0.00  0.00    +0.000 C 
ATOM     17  C   UNL     1       1.368   3.403  18.524  0.00  0.00    +0.000 C 
ATOM     18  C   UNL     1       1.759   4.670  17.798  0.00  0.00    +0.000 C 
ENDBRANCH   3   5
BRANCH   1  26
ATOM     19  C   UNL     1       7.892  15.089  18.256  0.00  0.00    +0.000 C 
ATOM     20  C   UNL     1       9.225  14.497  17.870  0.00  0.00    +0.000 A 
ATOM     21  C   UNL     1      10.235  15.301  17.504  0.00  0.00    +0.000 A 
ATOM     22  C   UNL     1      11.509  14.711  17.134  0.00  0.00    +0.000 A 
ATOM     23  C   UNL     1      11.703  13.374  17.150  0.00  0.00    +0.000 A 
ATOM     24  C   UNL     1      10.653  12.472  17.538  0.00  0.00    +0.000 A 
ATOM     25  N   UNL     1      10.594  11.139  17.637  0.00  0.00    +0.000 NA
ATOM     26  C   UNL     1       9.292  10.803  18.060  0.00  0.00    +0.000 A 
ATOM     27  C   UNL     1       8.593  12.012  18.211  0.00  0.00    +0.000 A 
ATOM     28  N   UNL     1       9.435  13.068  17.889  0.00  0.00    +0.000 N 
ENDBRANCH   1  26
TORSDOF 2
ENDMDL
MODEL 2
REMARK VINA RESULT:      -8.2      6.669      9.807
REMARK  Name = 
REMARK  3 active torsions:
REMARK  status: ('A' for Active; 'I' for Inactive)
REMARK    1  A    between atoms: C_1  and  C_2
REMARK    2  A    between atoms: C_8  and  C_9
REMARK    3  A    between atoms: N_11  and  C_12
REMARK                            x       y       z     vdW  Elec       q    Type
REMARK                         _______ _______ _______ _____ _____    ______ ____
ROOT
ATOM      1  C   UNL     1       2.209   6.666  19.797  0.00  0.00    +0.000 C 
ATOM      2  O   UNL     1       1.521   5.968  20.543  0.00  0.00    +0.000 OA
ATOM      3  N   UNL     1       2.108   8.064  19.845  0.00  0.00    +0.000 N 
ATOM      4  H   UNL     1       2.674   8.550  19.208  0.00  0.00    +0.000 HD
ENDROOT
BRANCH   3   5
ATOM      5  C   UNL     1       1.152   8.897  20.650  0.00  0.00    +0.000 A 
ATOM      6  C   UNL     1       0.905   8.894  22.035  0.00  0.00    +0.000 A 
ATOM      7  C   UNL     1      -0.048   9.757  22.727  0.00  0.00    +0.000 A 
ATOM      8  C   UNL     1      -0.784  10.689  21.958  0.00  0.00    +0.000 A 
ATOM      9  C   UNL     1      -0.568  10.681  20.578  0.00  0.00    +0.000 A 
ATOM     10  C   UNL     1       0.346   9.788  19.946  0.00  0.00    +0.000 A 
ATOM     11  N   UNL     1      -1.313  11.635  19.967  0.00  0.00    +0.000 NA
ATOM     12  C   UNL     1      -1.995  12.237  20.912  0.00  0.00    +0.000 A 
ATOM     13  N   UNL     1      -1.761  11.688  22.165  0.00  0.00    +0.000 N 
ATOM     14  C   UNL     1      -2.633  11.990  23.307  0.00  0.00    +0.000 C 
ATOM     15  C   UNL     1      -2.649  13.413  23.926  0.00  0.00    +0.000 C 
ATOM     16  C   UNL     1      -3.330  14.486  23.122  0.00  0.00    +0.000 C 
ATOM     17  C   UNL     1      -3.255  14.375  21.616  0.00  0.00    +0.000 C 
ATOM     18  C   UNL     1      -2.945  13.306  20.592  0.00  0.00    +0.000 C 
ENDBRANCH   3   5
BRANCH   1  26
ATOM     19  C   UNL     1       7.771   5.759  18.755  0.00  0.00    +0.000 C 
ATOM     20  C   UNL     1       6.718   5.160  17.855  0.00  0.00    +0.000 A 
ATOM     21  C   UNL     1       7.082   4.415  16.801  0.00  0.00    +0.000 A 
ATOM     22  C   UNL     1       6.054   3.850  15.946  0.00  0.00    +0.000 A 
ATOM     23  C   UNL     1       4.740   4.055  16.186  0.00  0.00    +0.000 A 
ATOM     24  C   UNL     1       4.300   4.843  17.305  0.00  0.00    +0.000 A 
ATOM     25  N   UNL     1       3.086   5.185  17.751  0.00  0.00    +0.000 NA
ATOM     26  C   UNL     1       3.266   5.987  18.896  0.00  0.00    +0.000 A 
ATOM     27  C   UNL     1       4.651   6.091  19.101  0.00  0.00    +0.000 A 
ATOM     28  N   UNL     1       5.314   5.377  18.112  0.00  0.00    +0.000 N 
ENDBRANCH   1  26
TORSDOF 2
ENDMDL
MODEL 3
REMARK VINA RESULT:      -7.9      7.290     10.432
REMARK  Name = 
REMARK  3 active torsions:
REMARK  status: ('A' for Active; 'I' for Inactive)
REMARK    1  A    between atoms: C_1  and  C_2
REMARK    2  A    between atoms: C_8  and  C_9
REMARK    3  A    between atoms: N_11  and  C_12
REMARK                            x       y       z     vdW  Elec       q    Type
REMARK                         _______ _______ _______ _____ _____    ______ ____
ROOT
ATOM      1  C   UNL     1       1.787   7.606  19.842  0.00  0.00    +0.000 C 
ATOM      2  O   UNL     1       1.493   6.973  20.857  0.00  0.00    +0.000 OA
ATOM      3  N   UNL     1       1.375   8.938  19.696  0.00  0.00    +0.000 N 
ATOM      4  H   UNL     1       1.632   9.370  18.852  0.00  0.00    +0.000 HD
ENDROOT
BRANCH   3   5
ATOM      5  C   UNL     1       0.484   9.739  20.603  0.00  0.00    +0.000 A 
ATOM      6  C   UNL     1       0.360   9.698  22.004  0.00  0.00    +0.000 A 
ATOM      7  C   UNL     1      -0.540  10.531  22.798  0.00  0.00    +0.000 A 
ATOM      8  C   UNL     1      -1.352  11.469  22.121  0.00  0.00    +0.000 A 
ATOM      9  C   UNL     1      -1.258  11.498  20.728  0.00  0.00    +0.000 A 
ATOM     10  C   UNL     1      -0.392  10.634  19.995  0.00  0.00    +0.000 A 
ATOM     11  N   UNL     1      -2.066  12.456  20.208  0.00  0.00    +0.000 NA
ATOM     12  C   UNL     1      -2.670  13.025  21.224  0.00  0.00    +0.000 A 
ATOM     13  N   UNL     1      -2.319  12.449  22.438  0.00  0.00    +0.000 N 
ATOM     14  C   UNL     1      -3.090  12.711  23.659  0.00  0.00    +0.000 C 
ATOM     15  C   UNL     1      -3.069  14.118  24.313  0.00  0.00    +0.000 C 
ATOM     16  C   UNL     1      -3.832  15.200  23.600  0.00  0.00    +0.000 C 
ATOM     17  C   UNL     1      -3.889  15.126  22.090  0.00  0.00    +0.000 C 
ATOM     18  C   UNL     1      -3.657  14.087  21.016  0.00  0.00    +0.000 C 
ENDBRANCH   3   5
BRANCH   1  26
ATOM     19  C   UNL     1       3.877   2.749  17.632  0.00  0.00    +0.000 C 
ATOM     20  C   UNL     1       4.311   4.086  17.084  0.00  0.00    +0.000 A 
ATOM     21  C   UNL     1       5.195   4.142  16.076  0.00  0.00    +0.000 A 
ATOM     22  C   UNL     1       5.601   5.439  15.564  0.00  0.00    +0.000 A 
ATOM     23  C   UNL     1       5.111   6.590  16.076  0.00  0.00    +0.000 A 
ATOM     24  C   UNL     1       4.159   6.580  17.154  0.00  0.00    +0.000 A 
ATOM     25  N   UNL     1       3.535   7.559  17.820  0.00  0.00    +0.000 NA
ATOM     26  C   UNL     1       2.713   6.952  18.790  0.00  0.00    +0.000 A 
ATOM     27  C   UNL     1       2.882   5.565  18.653  0.00  0.00    +0.000 A 
ATOM     28  N   UNL     1       3.786   5.316  17.628  0.00  0.00    +0.000 N 
ENDBRANCH   1  26
TORSDOF 2
ENDMDL
MODEL 4
REMARK VINA RESULT:      -7.9      5.794      7.318
REMARK  Name = 
REMARK  3 active torsions:
REMARK  status: ('A' for Active; 'I' for Inactive)
REMARK    1  A    between atoms: C_1  and  C_2
REMARK    2  A    between atoms: C_8  and  C_9
REMARK    3  A    between atoms: N_11  and  C_12
REMARK                            x       y       z     vdW  Elec       q    Type
REMARK                         _______ _______ _______ _____ _____    ______ ____
ROOT
ATOM      1  C   UNL     1       1.224  12.456  20.138  0.00  0.00    +0.000 C 
ATOM      2  O   UNL     1       1.686  12.368  21.277  0.00  0.00    +0.000 OA
ATOM      3  N   UNL     1       0.887  11.299  19.421  0.00  0.00    +0.000 N 
ATOM      4  H   UNL     1       0.543  11.450  18.513  0.00  0.00    +0.000 HD
ENDROOT
BRANCH   3   5
ATOM      5  C   UNL     1       1.109   9.866  19.813  0.00  0.00    +0.000 A 
ATOM      6  C   UNL     1       0.823   9.213  21.026  0.00  0.00    +0.000 A 
ATOM      7  C   UNL     1       1.074   7.802  21.307  0.00  0.00    +0.000 A 
ATOM      8  C   UNL     1       1.638   7.008  20.283  0.00  0.00    +0.000 A 
ATOM      9  C   UNL     1       1.953   7.652  19.084  0.00  0.00    +0.000 A 
ATOM     10  C   UNL     1       1.725   9.044  18.874  0.00  0.00    +0.000 A 
ATOM     11  N   UNL     1       2.460   6.775  18.183  0.00  0.00    +0.000 NA
ATOM     12  C   UNL     1       2.483   5.605  18.774  0.00  0.00    +0.000 A 
ATOM     13  N   UNL     1       2.033   5.666  20.086  0.00  0.00    +0.000 N 
ATOM     14  C   UNL     1       2.258   4.559  21.024  0.00  0.00    +0.000 C 
ATOM     15  C   UNL     1       1.525   3.206  20.829  0.00  0.00    +0.000 C 
ATOM     16  C   UNL     1       2.003   2.342  19.694  0.00  0.00    +0.000 C 
ATOM     17  C   UNL     1       2.522   3.045  18.461  0.00  0.00    +0.000 C 
ATOM     18  C   UNL     1       3.018   4.425  18.090  0.00  0.00    +0.000 C 
ENDBRANCH   3   5
BRANCH   1  26
ATOM     19  C   UNL     1       3.170  17.005  17.246  0.00  0.00    +0.000 C 
ATOM     20  C   UNL     1       1.753  16.978  17.763  0.00  0.00    +0.000 A 
ATOM     21  C   UNL     1       0.942  18.025  17.549  0.00  0.00    +0.000 A 
ATOM     22  C   UNL     1      -0.418  17.980  18.057  0.00  0.00    +0.000 A 
ATOM     23  C   UNL     1      -0.887  16.910  18.736  0.00  0.00    +0.000 A 
ATOM     24  C   UNL     1      -0.057  15.763  18.986  0.00  0.00    +0.000 A 
ATOM     25  N   UNL     1      -0.279  14.604  19.616  0.00  0.00    +0.000 NA
ATOM     26  C   UNL     1       0.913  13.856  19.559  0.00  0.00    +0.000 A 
ATOM     27  C   UNL     1       1.845  14.635  18.854  0.00  0.00    +0.000 A 
ATOM     28  N   UNL     1       1.250  15.834  18.486  0.00  0.00    +0.000 N 
ENDBRANCH   1  26
TORSDOF 2
ENDMDL
MODEL 5
REMARK VINA RESULT:      -7.9      7.441      9.544
REMARK  Name = 
REMARK  3 active torsions:
REMARK  status: ('A' for Active; 'I' for Inactive)
REMARK    1  A    between atoms: C_1  and  C_2
REMARK    2  A    between atoms: C_8  and  C_9
REMARK    3  A    between atoms: N_11  and  C_12
REMARK                            x       y       z     vdW  Elec       q    Type
REMARK                         _______ _______ _______ _____ _____    ______ ____
ROOT
ATOM      1  C   UNL     1      -0.057  10.475  22.072  0.00  0.00    +0.000 C 
ATOM      2  O   UNL     1       0.604  10.052  23.022  0.00  0.00    +0.000 OA
ATOM      3  N   UNL     1       0.008   9.834  20.826  0.00  0.00    +0.000 N 
ATOM      4  H   UNL     1      -0.532  10.240  20.114  0.00  0.00    +0.000 HD
ENDROOT
BRANCH   3   5
ATOM      5  C   UNL     1       0.895   8.693  20.414  0.00  0.00    +0.000 A 
ATOM      6  C   UNL     1       1.076   7.434  21.016  0.00  0.00    +0.000 A 
ATOM      7  C   UNL     1       1.965   6.384  20.528  0.00  0.00    +0.000 A 
ATOM      8  C   UNL     1       2.704   6.630  19.348  0.00  0.00    +0.000 A 
ATOM      9  C   UNL     1       2.555   7.887  18.759  0.00  0.00    +0.000 A 
ATOM     10  C   UNL     1       1.702   8.895  19.298  0.00  0.00    +0.000 A 
ATOM     11  N   UNL     1       3.294   7.981  17.626  0.00  0.00    +0.000 NA
ATOM     12  C   UNL     1       3.910   6.831  17.486  0.00  0.00    +0.000 A 
ATOM     13  N   UNL     1       3.635   5.955  18.528  0.00  0.00    +0.000 N 
ATOM     14  C   UNL     1       4.441   4.746  18.742  0.00  0.00    +0.000 C 
ATOM     15  C   UNL     1       4.378   3.573  17.728  0.00  0.00    +0.000 C 
ATOM     16  C   UNL     1       5.059   3.792  16.406  0.00  0.00    +0.000 C 
ATOM     17  C   UNL     1       5.060   5.200  15.853  0.00  0.00    +0.000 C 
ATOM     18  C   UNL     1       4.836   6.602  16.375  0.00  0.00    +0.000 C 
ENDBRANCH   3   5
BRANCH   1  26
ATOM     19  C   UNL     1      -4.662  12.394  24.891  0.00  0.00    +0.000 C 
ATOM     20  C   UNL     1      -3.972  13.268  23.873  0.00  0.00    +0.000 A 
ATOM     21  C   UNL     1      -4.438  14.500  23.620  0.00  0.00    +0.000 A 
ATOM     22  C   UNL     1      -3.760  15.323  22.634  0.00  0.00    +0.000 A 
ATOM     23  C   UNL     1      -2.672  14.881  21.967  0.00  0.00    +0.000 A 
ATOM     24  C   UNL     1      -2.132  13.569  22.207  0.00  0.00    +0.000 A 
ATOM     25  N   UNL     1      -1.087  12.912  21.692  0.00  0.00    +0.000 NA
ATOM     26  C   UNL     1      -1.043  11.643  22.302  0.00  0.00    +0.000 A 
ATOM     27  C   UNL     1      -2.114  11.594  23.208  0.00  0.00    +0.000 A 
ATOM     28  N   UNL     1      -2.806  12.797  23.161  0.00  0.00    +0.000 N 
ENDBRANCH   1  26
TORSDOF 2
ENDMDL
MODEL 6
REMARK VINA RESULT:      -7.8      7.294      9.857
REMARK  Name = 
REMARK  3 active torsions:
REMARK  status: ('A' for Active; 'I' for Inactive)
REMARK    1  A    between atoms: C_1  and  C_2
REMARK    2  A    between atoms: C_8  and  C_9
REMARK    3  A    between atoms: N_11  and  C_12
REMARK                            x       y       z     vdW  Elec       q    Type
REMARK                         _______ _______ _______ _____ _____    ______ ____
ROOT
ATOM      1  C   UNL     1      -0.086  10.985  21.050  0.00  0.00    +0.000 C 
ATOM      2  O   UNL     1       1.026  11.413  21.363  0.00  0.00    +0.000 OA
ATOM      3  N   UNL     1      -0.202   9.913  20.153  0.00  0.00    +0.000 N 
ATOM      4  H   UNL     1      -1.121   9.640  19.939  0.00  0.00    +0.000 HD
ENDROOT
BRANCH   3   5
ATOM      5  C   UNL     1       0.888   9.223  19.384  0.00  0.00    +0.000 A 
ATOM      6  C   UNL     1       1.489   9.579  18.163  0.00  0.00    +0.000 A 
ATOM      7  C   UNL     1       2.556   8.837  17.497  0.00  0.00    +0.000 A 
ATOM      8  C   UNL     1       3.048   7.669  18.123  0.00  0.00    +0.000 A 
ATOM      9  C   UNL     1       2.439   7.290  19.322  0.00  0.00    +0.000 A 
ATOM     10  C   UNL     1       1.372   8.028  19.911  0.00  0.00    +0.000 A 
ATOM     11  N   UNL     1       3.021   6.174  19.828  0.00  0.00    +0.000 NA
ATOM     12  C   UNL     1       3.967   5.833  18.986  0.00  0.00    +0.000 A 
ATOM     13  N   UNL     1       4.025   6.677  17.885  0.00  0.00    +0.000 N 
ATOM     14  C   UNL     1       4.787   6.314  16.683  0.00  0.00    +0.000 C 
ATOM     15  C   UNL     1       6.336   6.252  16.726  0.00  0.00    +0.000 C 
ATOM     16  C   UNL     1       6.941   5.088  17.460  0.00  0.00    +0.000 C 
ATOM     17  C   UNL     1       6.182   4.554  18.654  0.00  0.00    +0.000 C 
ATOM     18  C   UNL     1       4.777   4.632  19.208  0.00  0.00    +0.000 C 
ENDBRANCH   3   5
BRANCH   1  26
ATOM     19  C   UNL     1      -4.876  14.087  20.529  0.00  0.00    +0.000 C 
ATOM     20  C   UNL     1      -4.490  13.496  21.863  0.00  0.00    +0.000 A 
ATOM     21  C   UNL     1      -5.268  13.700  22.937  0.00  0.00    +0.000 A 
ATOM     22  C   UNL     1      -4.878  13.124  24.211  0.00  0.00    +0.000 A 
ATOM     23  C   UNL     1      -3.752  12.389  24.343  0.00  0.00    +0.000 A 
ATOM     24  C   UNL     1      -2.888  12.139  23.221  0.00  0.00    +0.000 A 
ATOM     25  N   UNL     1      -1.745  11.457  23.092  0.00  0.00    +0.000 NA
ATOM     26  C   UNL     1      -1.338  11.563  21.747  0.00  0.00    +0.000 A 
ATOM     27  C   UNL     1      -2.308  12.340  21.093  0.00  0.00    +0.000 A 
ATOM     28  N   UNL     1      -3.289  12.707  22.004  0.00  0.00    +0.000 N 
ENDBRANCH   1  26
TORSDOF 2
ENDMDL
MODEL 7
REMARK VINA RESULT:      -7.8      6.912      9.098
REMARK  Name = 
REMARK  3 active torsions:
REMARK  status: ('A' for Active; 'I' for Inactive)
REMARK    1  A    between atoms: C_1  and  C_2
REMARK    2  A    between atoms: C_8  and  C_9
REMARK    3  A    between atoms: N_11  and  C_12
REMARK                            x       y       z     vdW  Elec       q    Type
REMARK                         _______ _______ _______ _____ _____    ______ ____
ROOT
ATOM      1  C   UNL     1       0.410   9.911  21.933  0.00  0.00    +0.000 C 
ATOM      2  O   UNL     1       1.338   9.701  22.716  0.00  0.00    +0.000 OA
ATOM      3  N   UNL     1       0.277   9.134  20.773  0.00  0.00    +0.000 N 
ATOM      4  H   UNL     1      -0.476   9.373  20.189  0.00  0.00    +0.000 HD
ENDROOT
BRANCH   3   5
ATOM      5  C   UNL     1       1.210   8.080  20.249  0.00  0.00    +0.000 A 
ATOM      6  C   UNL     1       1.454   6.779  20.728  0.00  0.00    +0.000 A 
ATOM      7  C   UNL     1       2.384   5.821  20.138  0.00  0.00    +0.000 A 
ATOM      8  C   UNL     1       3.099   6.211  18.982  0.00  0.00    +0.000 A 
ATOM      9  C   UNL     1       2.887   7.510  18.515  0.00  0.00    +0.000 A 
ATOM     10  C   UNL     1       1.996   8.422  19.152  0.00  0.00    +0.000 A 
ATOM     11  N   UNL     1       3.610   7.745  17.392  0.00  0.00    +0.000 NA
ATOM     12  C   UNL     1       4.275   6.643  17.140  0.00  0.00    +0.000 A 
ATOM     13  N   UNL     1       4.051   5.660  18.095  0.00  0.00    +0.000 N 
ATOM     14  C   UNL     1       4.913   4.475  18.189  0.00  0.00    +0.000 C 
ATOM     15  C   UNL     1       4.893   3.401  17.069  0.00  0.00    +0.000 C 
ATOM     16  C   UNL     1       5.550   3.775  15.769  0.00  0.00    +0.000 C 
ATOM     17  C   UNL     1       5.481   5.228  15.353  0.00  0.00    +0.000 C 
ATOM     18  C   UNL     1       5.199   6.562  16.006  0.00  0.00    +0.000 C 
ENDBRANCH   3   5
BRANCH   1  26
ATOM     19  C   UNL     1      -1.780  15.115  20.950  0.00  0.00    +0.000 C 
ATOM     20  C   UNL     1      -2.377  14.223  22.011  0.00  0.00    +0.000 A 
ATOM     21  C   UNL     1      -3.423  14.649  22.734  0.00  0.00    +0.000 A 
ATOM     22  C   UNL     1      -3.981  13.777  23.752  0.00  0.00    +0.000 A 
ATOM     23  C   UNL     1      -3.474  12.547  23.988  0.00  0.00    +0.000 A 
ATOM     24  C   UNL     1      -2.356  12.044  23.236  0.00  0.00    +0.000 A 
ATOM     25  N   UNL     1      -1.685  10.888  23.275  0.00  0.00    +0.000 NA
ATOM     26  C   UNL     1      -0.666  10.957  22.304  0.00  0.00    +0.000 A 
ATOM     27  C   UNL     1      -0.780  12.214  21.689  0.00  0.00    +0.000 A 
ATOM     28  N   UNL     1      -1.837  12.907  22.263  0.00  0.00    +0.000 N 
ENDBRANCH   1  26
TORSDOF 2
ENDMDL
MODEL 8
REMARK VINA RESULT:      -7.8      7.459      9.532
REMARK  Name = 
REMARK  3 active torsions:
REMARK  status: ('A' for Active; 'I' for Inactive)
REMARK    1  A    between atoms: C_1  and  C_2
REMARK    2  A    between atoms: C_8  and  C_9
REMARK    3  A    between atoms: N_11  and  C_12
REMARK                            x       y       z     vdW  Elec       q    Type
REMARK                         _______ _______ _______ _____ _____    ______ ____
ROOT
ATOM      1  C   UNL     1      -0.276  10.298  22.519  0.00  0.00    +0.000 C 
ATOM      2  O   UNL     1       0.361   9.802  23.449  0.00  0.00    +0.000 OA
ATOM      3  N   UNL     1      -0.187   9.750  21.231  0.00  0.00    +0.000 N 
ATOM      4  H   UNL     1      -0.709  10.211  20.539  0.00  0.00    +0.000 HD
ENDROOT
BRANCH   3   5
ATOM      5  C   UNL     1       0.702   8.636  20.756  0.00  0.00    +0.000 A 
ATOM      6  C   UNL     1       0.887   7.347  21.287  0.00  0.00    +0.000 A 
ATOM      7  C   UNL     1       1.779   6.327  20.741  0.00  0.00    +0.000 A 
ATOM      8  C   UNL     1       2.515   6.639  19.575  0.00  0.00    +0.000 A 
ATOM      9  C   UNL     1       2.361   7.927  19.056  0.00  0.00    +0.000 A 
ATOM     10  C   UNL     1       1.507   8.901  19.651  0.00  0.00    +0.000 A 
ATOM     11  N   UNL     1       3.099   8.085  17.929  0.00  0.00    +0.000 NA
ATOM     12  C   UNL     1       3.717   6.946  17.725  0.00  0.00    +0.000 A 
ATOM     13  N   UNL     1       3.446   6.013  18.717  0.00  0.00    +0.000 N 
ATOM     14  C   UNL     1       4.256   4.797  18.863  0.00  0.00    +0.000 C 
ATOM     15  C   UNL     1       4.195   3.681  17.787  0.00  0.00    +0.000 C 
ATOM     16  C   UNL     1       4.873   3.975  16.477  0.00  0.00    +0.000 C 
ATOM     17  C   UNL     1       4.869   5.411  16.003  0.00  0.00    +0.000 C 
ATOM     18  C   UNL     1       4.642   6.781  16.601  0.00  0.00    +0.000 C 
ENDBRANCH   3   5
BRANCH   1  26
ATOM     19  C   UNL     1      -1.257  15.942  22.346  0.00  0.00    +0.000 C 
ATOM     20  C   UNL     1      -2.300  15.002  22.900  0.00  0.00    +0.000 A 
ATOM     21  C   UNL     1      -3.463  15.487  23.359  0.00  0.00    +0.000 A 
ATOM     22  C   UNL     1      -4.452  14.566  23.889  0.00  0.00    +0.000 A 
ATOM     23  C   UNL     1      -4.232  13.234  23.930  0.00  0.00    +0.000 A 
ATOM     24  C   UNL     1      -3.002  12.666  23.446  0.00  0.00    +0.000 A 
ATOM     25  N   UNL     1      -2.552  11.409  23.375  0.00  0.00    +0.000 NA
ATOM     26  C   UNL     1      -1.260  11.453  22.813  0.00  0.00    +0.000 A 
ATOM     27  C   UNL     1      -0.981  12.804  22.551  0.00  0.00    +0.000 A 
ATOM     28  N   UNL     1      -2.066  13.578  22.942  0.00  0.00    +0.000 N 
ENDBRANCH   1  26
TORSDOF 2
ENDMDL
MODEL 9
REMARK VINA RESULT:      -7.8      7.073     10.299
REMARK  Name = 
REMARK  3 active torsions:
REMARK  status: ('A' for Active; 'I' for Inactive)
REMARK    1  A    between atoms: C_1  and  C_2
REMARK    2  A    between atoms: C_8  and  C_9
REMARK    3  A    between atoms: N_11  and  C_12
REMARK                            x       y       z     vdW  Elec       q    Type
REMARK                         _______ _______ _______ _____ _____    ______ ____
ROOT
ATOM      1  C   UNL     1       1.833   8.117  18.990  0.00  0.00    +0.000 C 
ATOM      2  O   UNL     1       1.668   7.938  20.198  0.00  0.00    +0.000 OA
ATOM      3  N   UNL     1       1.201   9.188  18.342  0.00  0.00    +0.000 N 
ATOM      4  H   UNL     1       1.366   9.254  17.377  0.00  0.00    +0.000 HD
ENDROOT
BRANCH   3   5
ATOM      5  C   UNL     1       0.206  10.159  18.910  0.00  0.00    +0.000 A 
ATOM      6  C   UNL     1      -1.045  10.560  18.407  0.00  0.00    +0.000 A 
ATOM      7  C   UNL     1      -1.948  11.515  19.044  0.00  0.00    +0.000 A 
ATOM      8  C   UNL     1      -1.553  12.084  20.277  0.00  0.00    +0.000 A 
ATOM      9  C   UNL     1      -0.300  11.716  20.772  0.00  0.00    +0.000 A 
ATOM     10  C   UNL     1       0.562  10.809  20.089  0.00  0.00    +0.000 A 
ATOM     11  N   UNL     1      -0.058  12.310  21.967  0.00  0.00    +0.000 NA
ATOM     12  C   UNL     1      -1.111  13.045  22.237  0.00  0.00    +0.000 A 
ATOM     13  N   UNL     1      -2.063  12.997  21.228  0.00  0.00    +0.000 N 
ATOM     14  C   UNL     1      -3.165  13.965  21.170  0.00  0.00    +0.000 C 
ATOM     15  C   UNL     1      -4.288  13.939  22.239  0.00  0.00    +0.000 C 
ATOM     16  C   UNL     1      -3.921  14.439  23.609  0.00  0.00    +0.000 C 
ATOM     17  C   UNL     1      -2.501  14.204  24.074  0.00  0.00    +0.000 C 
ATOM     18  C   UNL     1      -1.166  13.865  23.450  0.00  0.00    +0.000 C 
ENDBRANCH   3   5
BRANCH   1  26
ATOM     19  C   UNL     1       3.445   2.790  17.625  0.00  0.00    +0.000 C 
ATOM     20  C   UNL     1       4.226   3.977  17.118  0.00  0.00    +0.000 A 
ATOM     21  C   UNL     1       5.306   3.788  16.346  0.00  0.00    +0.000 A 
ATOM     22  C   UNL     1       6.045   4.945  15.870  0.00  0.00    +0.000 A 
ATOM     23  C   UNL     1       5.670   6.205  16.183  0.00  0.00    +0.000 A 
ATOM     24  C   UNL     1       4.517   6.457  17.004  0.00  0.00    +0.000 A 
ATOM     25  N   UNL     1       3.949   7.585  17.445  0.00  0.00    +0.000 NA
ATOM     26  C   UNL     1       2.835   7.220  18.227  0.00  0.00    +0.000 A 
ATOM     27  C   UNL     1       2.776   5.817  18.215  0.00  0.00    +0.000 A 
ATOM     28  N   UNL     1       3.824   5.324  17.450  0.00  0.00    +0.000 N 
ENDBRANCH   1  26
TORSDOF 2
ENDMDL
