MODEL 1
REMARK VINA RESULT:      -8.8      0.000      0.000
REMARK  Name = 
REMARK  4 active torsions:
REMARK  status: ('A' for Active; 'I' for Inactive)
REMARK    1  A    between atoms: C_1  and  C_2
REMARK    2  A    between atoms: C_4  and  C_5
REMARK    3  A    between atoms: C_12  and  C_13
REMARK    4  A    between atoms: N_15  and  C_16
REMARK                            x       y       z     vdW  Elec       q    Type
REMARK                         _______ _______ _______ _____ _____    ______ ____
ROOT
ATOM      1  C   UNL     1       3.791   5.877  18.588  0.00  0.00    +0.000 C 
ATOM      2  O   UNL     1       4.164   5.665  19.737  0.00  0.00    +0.000 OA
ATOM      3  N   UNL     1       2.844   6.815  18.200  0.00  0.00    +0.000 N 
ATOM      4  H   UNL     1       2.569   6.780  17.223  0.00  0.00    +0.000 HD
ENDROOT
BRANCH   3   5
ATOM      5  C   UNL     1       2.171   7.703  19.072  0.00  0.00    +0.000 A 
ATOM      6  C   UNL     1       1.904   7.401  20.396  0.00  0.00    +0.000 A 
ATOM      7  C   UNL     1       1.183   8.293  21.187  0.00  0.00    +0.000 A 
ATOM      8  C   UNL     1       0.728   9.502  20.670  0.00  0.00    +0.000 A 
ATOM      9  N   UNL     1       0.021  10.373  21.460  0.00  0.00    +0.000 N 
ATOM     10  C   UNL     1      -0.478  11.643  20.970  0.00  0.00    +0.000 C 
ATOM     11  C   UNL     1      -0.814  12.362  22.274  0.00  0.00    +0.000 C 
ATOM     12  C   UNL     1      -1.367  11.252  23.161  0.00  0.00    +0.000 C 
ATOM     13  C   UNL     1      -0.628   9.992  22.707  0.00  0.00    +0.000 C 
ATOM     14  N   UNL     1       1.026   9.837  19.394  0.00  0.00    +0.000 NA
ATOM     15  C   UNL     1       1.733   8.949  18.635  0.00  0.00    +0.000 A 
ENDBRANCH   3   5
BRANCH   1  21
ATOM     16  C   UNL     1       3.753   2.623  18.231  0.00  0.00    +0.000 C 
ATOM     17  C   UNL     1       4.281   3.712  17.389  0.00  0.00    +0.000 A 
ATOM     18  O   UNL     1       4.894   3.355  16.228  0.00  0.00    +0.000 OA
ATOM     19  C   UNL     1       5.279   4.538  15.659  0.00  0.00    +0.000 A 
ATOM     20  N   UNL     1       4.954   5.611  16.364  0.00  0.00    +0.000 NA
ATOM     21  C   UNL     1       4.322   5.088  17.483  0.00  0.00    +0.000 A 
BRANCH  19  22
ATOM     22  C   UNL     1       5.995   4.429  14.392  0.00  0.00    +0.000 A 
ATOM     23  C   UNL     1       7.160   5.175  14.141  0.00  0.00    +0.000 A 
ATOM     24  C   UNL     1       7.835   5.062  12.924  0.00  0.00    +0.000 A 
ATOM     25  C   UNL     1       7.354   4.204  11.940  0.00  0.00    +0.000 A 
ATOM     26  C   UNL     1       6.199   3.458  12.172  0.00  0.00    +0.000 A 
ATOM     27  C   UNL     1       5.524   3.569  13.390  0.00  0.00    +0.000 A 
ENDBRANCH  19  22
ENDBRANCH   1  21
TORSDOF 3
ENDMDL
MODEL 2
REMARK VINA RESULT:      -8.6      0.555      1.557
REMARK  Name = 
REMARK  4 active torsions:
REMARK  status: ('A' for Active; 'I' for Inactive)
REMARK    1  A    between atoms: C_1  and  C_2
REMARK    2  A    between atoms: C_4  and  C_5
REMARK    3  A    between atoms: C_12  and  C_13
REMARK    4  A    between atoms: N_15  and  C_16
REMARK                            x       y       z     vdW  Elec       q    Type
REMARK                         _______ _______ _______ _____ _____    ______ ____
ROOT
ATOM      1  C   UNL     1       3.716   5.999  18.491  0.00  0.00    +0.000 C 
ATOM      2  O   UNL     1       3.994   5.796  19.668  0.00  0.00    +0.000 OA
ATOM      3  N   UNL     1       2.816   6.943  18.019  0.00  0.00    +0.000 N 
ATOM      4  H   UNL     1       2.619   6.901  17.023  0.00  0.00    +0.000 HD
ENDROOT
BRANCH   3   5
ATOM      5  C   UNL     1       2.087   7.850  18.824  0.00  0.00    +0.000 A 
ATOM      6  C   UNL     1       1.691   9.101  18.380  0.00  0.00    +0.000 A 
ATOM      7  C   UNL     1       1.028   9.972  19.242  0.00  0.00    +0.000 A 
ATOM      8  C   UNL     1       0.743   9.605  20.553  0.00  0.00    +0.000 A 
ATOM      9  N   UNL     1       0.089  10.471  21.391  0.00  0.00    +0.000 N 
ATOM     10  C   UNL     1      -0.228  10.139  22.766  0.00  0.00    +0.000 C 
ATOM     11  C   UNL     1      -1.255  11.215  23.110  0.00  0.00    +0.000 C 
ATOM     12  C   UNL     1      -0.730  12.452  22.390  0.00  0.00    +0.000 C 
ATOM     13  C   UNL     1      -0.020  11.904  21.151  0.00  0.00    +0.000 C 
ATOM     14  N   UNL     1       1.075   8.367  20.987  0.00  0.00    +0.000 NA
ATOM     15  C   UNL     1       1.725   7.528  20.127  0.00  0.00    +0.000 A 
ENDBRANCH   3   5
BRANCH   1  21
ATOM     16  C   UNL     1       4.036   2.742  18.382  0.00  0.00    +0.000 C 
ATOM     17  C   UNL     1       4.434   3.815  17.452  0.00  0.00    +0.000 A 
ATOM     18  O   UNL     1       5.075   3.439  16.311  0.00  0.00    +0.000 OA
ATOM     19  C   UNL     1       5.322   4.609  15.649  0.00  0.00    +0.000 A 
ATOM     20  N   UNL     1       4.885   5.691  16.276  0.00  0.00    +0.000 NA
ATOM     21  C   UNL     1       4.323   5.189  17.441  0.00  0.00    +0.000 A 
BRANCH  19  22
ATOM     22  C   UNL     1       6.036   4.483  14.382  0.00  0.00    +0.000 A 
ATOM     23  C   UNL     1       5.589   3.614  13.372  0.00  0.00    +0.000 A 
ATOM     24  C   UNL     1       6.283   3.502  12.165  0.00  0.00    +0.000 A 
ATOM     25  C   UNL     1       7.433   4.256  11.952  0.00  0.00    +0.000 A 
ATOM     26  C   UNL     1       7.891   5.121  12.944  0.00  0.00    +0.000 A 
ATOM     27  C   UNL     1       7.196   5.235  14.151  0.00  0.00    +0.000 A 
ENDBRANCH  19  22
ENDBRANCH   1  21
TORSDOF 3
ENDMDL
MODEL 3
REMARK VINA RESULT:      -8.3      1.944      3.463
REMARK  Name = 
REMARK  4 active torsions:
REMARK  status: ('A' for Active; 'I' for Inactive)
REMARK    1  A    between atoms: C_1  and  C_2
REMARK    2  A    between atoms: C_4  and  C_5
REMARK    3  A    between atoms: C_12  and  C_13
REMARK    4  A    between atoms: N_15  and  C_16
REMARK                            x       y       z     vdW  Elec       q    Type
REMARK                         _______ _______ _______ _____ _____    ______ ____
ROOT
ATOM      1  C   UNL     1       1.657   8.350  19.435  0.00  0.00    +0.000 C 
ATOM      2  O   UNL     1       1.119   9.057  18.589  0.00  0.00    +0.000 OA
ATOM      3  N   UNL     1       1.551   8.503  20.810  0.00  0.00    +0.000 N 
ATOM      4  H   UNL     1       2.153   7.902  21.365  0.00  0.00    +0.000 HD
ENDROOT
BRANCH   3   5
ATOM      5  C   UNL     1       0.777   9.490  21.464  0.00  0.00    +0.000 A 
ATOM      6  C   UNL     1      -0.271   9.184  22.315  0.00  0.00    +0.000 A 
ATOM      7  C   UNL     1      -1.034  10.204  22.881  0.00  0.00    +0.000 A 
ATOM      8  C   UNL     1      -0.756  11.540  22.613  0.00  0.00    +0.000 A 
ATOM      9  N   UNL     1      -1.514  12.534  23.178  0.00  0.00    +0.000 N 
ATOM     10  C   UNL     1      -1.269  13.941  22.929  0.00  0.00    +0.000 C 
ATOM     11  C   UNL     1      -2.077  14.594  24.048  0.00  0.00    +0.000 C 
ATOM     12  C   UNL     1      -3.317  13.714  24.152  0.00  0.00    +0.000 C 
ATOM     13  C   UNL     1      -2.834  12.318  23.755  0.00  0.00    +0.000 C 
ATOM     14  N   UNL     1       0.297  11.858  21.826  0.00  0.00    +0.000 NA
ATOM     15  C   UNL     1       1.033  10.845  21.281  0.00  0.00    +0.000 A 
ENDBRANCH   3   5
BRANCH   1  21
ATOM     16  C   UNL     1       1.701   5.282  20.578  0.00  0.00    +0.000 C 
ATOM     17  C   UNL     1       2.504   5.976  19.554  0.00  0.00    +0.000 A 
ATOM     18  O   UNL     1       3.478   5.254  18.937  0.00  0.00    +0.000 OA
ATOM     19  C   UNL     1       4.053   6.126  18.055  0.00  0.00    +0.000 A 
ATOM     20  N   UNL     1       3.518   7.337  18.062  0.00  0.00    +0.000 NA
ATOM     21  C   UNL     1       2.528   7.252  19.032  0.00  0.00    +0.000 A 
BRANCH  19  22
ATOM     22  C   UNL     1       5.164   5.596  17.270  0.00  0.00    +0.000 A 
ATOM     23  C   UNL     1       6.335   5.122  17.885  0.00  0.00    +0.000 A 
ATOM     24  C   UNL     1       7.391   4.618  17.122  0.00  0.00    +0.000 A 
ATOM     25  C   UNL     1       7.290   4.582  15.735  0.00  0.00    +0.000 A 
ATOM     26  C   UNL     1       6.135   5.049  15.109  0.00  0.00    +0.000 A 
ATOM     27  C   UNL     1       5.078   5.552  15.872  0.00  0.00    +0.000 A 
ENDBRANCH  19  22
ENDBRANCH   1  21
TORSDOF 3
ENDMDL
MODEL 4
REMARK VINA RESULT:      -8.0      0.674      1.295
REMARK  Name = 
REMARK  4 active torsions:
REMARK  status: ('A' for Active; 'I' for Inactive)
REMARK    1  A    between atoms: C_1  and  C_2
REMARK    2  A    between atoms: C_4  and  C_5
REMARK    3  A    between atoms: C_12  and  C_13
REMARK    4  A    between atoms: N_15  and  C_16
REMARK                            x       y       z     vdW  Elec       q    Type
REMARK                         _______ _______ _______ _____ _____    ______ ____
ROOT
ATOM      1  C   UNL     1       3.134   5.646  18.488  0.00  0.00    +0.000 C 
ATOM      2  O   UNL     1       2.711   5.069  19.484  0.00  0.00    +0.000 OA
ATOM      3  N   UNL     1       2.892   6.971  18.151  0.00  0.00    +0.000 N 
ATOM      4  H   UNL     1       3.223   7.256  17.234  0.00  0.00    +0.000 HD
ENDROOT
BRANCH   3   5
ATOM      5  C   UNL     1       2.135   7.883  18.922  0.00  0.00    +0.000 A 
ATOM      6  C   UNL     1       1.703   9.105  18.434  0.00  0.00    +0.000 A 
ATOM      7  C   UNL     1       1.013   9.987  19.264  0.00  0.00    +0.000 A 
ATOM      8  C   UNL     1       0.736   9.657  20.587  0.00  0.00    +0.000 A 
ATOM      9  N   UNL     1       0.054  10.533  21.392  0.00  0.00    +0.000 N 
ATOM     10  C   UNL     1      -0.256  10.240  22.778  0.00  0.00    +0.000 C 
ATOM     11  C   UNL     1      -1.315  11.298  23.082  0.00  0.00    +0.000 C 
ATOM     12  C   UNL     1      -0.825  12.523  22.320  0.00  0.00    +0.000 C 
ATOM     13  C   UNL     1      -0.096  11.953  21.102  0.00  0.00    +0.000 C 
ATOM     14  N   UNL     1       1.103   8.446  21.064  0.00  0.00    +0.000 NA
ATOM     15  C   UNL     1       1.779   7.597  20.235  0.00  0.00    +0.000 A 
ENDBRANCH   3   5
BRANCH   1  21
ATOM     16  C   UNL     1       4.085   2.514  18.558  0.00  0.00    +0.000 C 
ATOM     17  C   UNL     1       4.317   3.605  17.593  0.00  0.00    +0.000 A 
ATOM     18  O   UNL     1       5.078   3.316  16.502  0.00  0.00    +0.000 OA
ATOM     19  C   UNL     1       5.128   4.484  15.794  0.00  0.00    +0.000 A 
ATOM     20  N   UNL     1       4.457   5.484  16.345  0.00  0.00    +0.000 NA
ATOM     21  C   UNL     1       3.942   4.929  17.508  0.00  0.00    +0.000 A 
BRANCH  19  22
ATOM     22  C   UNL     1       5.920   4.449  14.568  0.00  0.00    +0.000 A 
ATOM     23  C   UNL     1       7.097   5.206  14.432  0.00  0.00    +0.000 A 
ATOM     24  C   UNL     1       7.844   5.163  13.254  0.00  0.00    +0.000 A 
ATOM     25  C   UNL     1       7.426   4.365  12.194  0.00  0.00    +0.000 A 
ATOM     26  C   UNL     1       6.261   3.608  12.311  0.00  0.00    +0.000 A 
ATOM     27  C   UNL     1       5.513   3.649  13.491  0.00  0.00    +0.000 A 
ENDBRANCH  19  22
ENDBRANCH   1  21
TORSDOF 3
ENDMDL
MODEL 5
REMARK VINA RESULT:      -7.9      1.619      2.366
REMARK  Name = 
REMARK  4 active torsions:
REMARK  status: ('A' for Active; 'I' for Inactive)
REMARK    1  A    between atoms: C_1  and  C_2
REMARK    2  A    between atoms: C_4  and  C_5
REMARK    3  A    between atoms: C_12  and  C_13
REMARK    4  A    between atoms: N_15  and  C_16
REMARK                            x       y       z     vdW  Elec       q    Type
REMARK                         _______ _______ _______ _____ _____    ______ ____
ROOT
ATOM      1  C   UNL     1       4.940   6.624  17.232  0.00  0.00    +0.000 C 
ATOM      2  O   UNL     1       5.649   7.491  17.732  0.00  0.00    +0.000 OA
ATOM      3  N   UNL     1       3.585   6.442  17.471  0.00  0.00    +0.000 N 
ATOM      4  H   UNL     1       3.178   5.606  17.063  0.00  0.00    +0.000 HD
ENDROOT
BRANCH   3   5
ATOM      5  C   UNL     1       2.791   7.251  18.317  0.00  0.00    +0.000 A 
ATOM      6  C   UNL     1       2.216   8.440  17.901  0.00  0.00    +0.000 A 
ATOM      7  C   UNL     1       1.494   9.222  18.800  0.00  0.00    +0.000 A 
ATOM      8  C   UNL     1       1.328   8.824  20.123  0.00  0.00    +0.000 A 
ATOM      9  N   UNL     1       0.613   9.602  20.998  0.00  0.00    +0.000 N 
ATOM     10  C   UNL     1       0.414   9.235  22.386  0.00  0.00    +0.000 C 
ATOM     11  C   UNL     1      -0.722  10.173  22.789  0.00  0.00    +0.000 C 
ATOM     12  C   UNL     1      -0.397  11.464  22.047  0.00  0.00    +0.000 C 
ATOM     13  C   UNL     1       0.311  11.008  20.770  0.00  0.00    +0.000 C 
ATOM     14  N   UNL     1       1.837   7.640  20.533  0.00  0.00    +0.000 NA
ATOM     15  C   UNL     1       2.542   6.888  19.636  0.00  0.00    +0.000 A 
ENDBRANCH   3   5
BRANCH   1  21
ATOM     16  C   UNL     1       7.557   4.714  17.706  0.00  0.00    +0.000 C 
ATOM     17  C   UNL     1       6.624   4.864  16.573  0.00  0.00    +0.000 A 
ATOM     18  O   UNL     1       6.852   4.091  15.477  0.00  0.00    +0.000 OA
ATOM     19  C   UNL     1       5.859   4.429  14.600  0.00  0.00    +0.000 A 
ATOM     20  N   UNL     1       5.021   5.347  15.056  0.00  0.00    +0.000 NA
ATOM     21  C   UNL     1       5.513   5.640  16.320  0.00  0.00    +0.000 A 
BRANCH  19  22
ATOM     22  C   UNL     1       5.892   3.746  13.310  0.00  0.00    +0.000 A 
ATOM     23  C   UNL     1       4.710   3.385  12.642  0.00  0.00    +0.000 A 
ATOM     24  C   UNL     1       4.756   2.731  11.408  0.00  0.00    +0.000 A 
ATOM     25  C   UNL     1       5.984   2.429  10.827  0.00  0.00    +0.000 A 
ATOM     26  C   UNL     1       7.166   2.780  11.477  0.00  0.00    +0.000 A 
ATOM     27  C   UNL     1       7.120   3.436  12.711  0.00  0.00    +0.000 A 
ENDBRANCH  19  22
ENDBRANCH   1  21
TORSDOF 3
ENDMDL
MODEL 6
REMARK VINA RESULT:      -7.8      6.095      6.759
REMARK  Name = 
REMARK  4 active torsions:
REMARK  status: ('A' for Active; 'I' for Inactive)
REMARK    1  A    between atoms: C_1  and  C_2
REMARK    2  A    between atoms: C_4  and  C_5
REMARK    3  A    between atoms: C_12  and  C_13
REMARK    4  A    between atoms: N_15  and  C_16
REMARK                            x       y       z     vdW  Elec       q    Type
REMARK                         _______ _______ _______ _____ _____    ______ ____
ROOT
ATOM      1  C   UNL     1       7.990   7.495  18.108  0.00  0.00    +0.000 C 
ATOM      2  O   UNL     1       8.569   7.163  19.137  0.00  0.00    +0.000 OA
ATOM      3  N   UNL     1       7.868   8.791  17.626  0.00  0.00    +0.000 N 
ATOM      4  H   UNL     1       7.258   8.903  16.821  0.00  0.00    +0.000 HD
ENDROOT
BRANCH   3   5
ATOM      5  C   UNL     1       8.421   9.943  18.233  0.00  0.00    +0.000 A 
ATOM      6  C   UNL     1       9.062   9.913  19.460  0.00  0.00    +0.000 A 
ATOM      7  C   UNL     1       9.532  11.093  20.034  0.00  0.00    +0.000 A 
ATOM      8  C   UNL     1       9.376  12.315  19.388  0.00  0.00    +0.000 A 
ATOM      9  N   UNL     1       9.844  13.469  19.962  0.00  0.00    +0.000 N 
ATOM     10  C   UNL     1       9.705  14.768  19.333  0.00  0.00    +0.000 C 
ATOM     11  C   UNL     1      10.694  15.605  20.141  0.00  0.00    +0.000 C 
ATOM     12  C   UNL     1      10.541  15.068  21.559  0.00  0.00    +0.000 C 
ATOM     13  C   UNL     1      10.172  13.596  21.376  0.00  0.00    +0.000 C 
ATOM     14  N   UNL     1       8.800  12.355  18.165  0.00  0.00    +0.000 NA
ATOM     15  C   UNL     1       8.346  11.188  17.619  0.00  0.00    +0.000 A 
ENDBRANCH   3   5
BRANCH   1  21
ATOM     16  C   UNL     1       5.852   5.204  19.060  0.00  0.00    +0.000 C 
ATOM     17  C   UNL     1       6.424   5.550  17.745  0.00  0.00    +0.000 A 
ATOM     18  O   UNL     1       6.033   4.795  16.682  0.00  0.00    +0.000 OA
ATOM     19  C   UNL     1       6.704   5.324  15.615  0.00  0.00    +0.000 A 
ATOM     20  N   UNL     1       7.481   6.353  15.916  0.00  0.00    +0.000 NA
ATOM     21  C   UNL     1       7.316   6.497  17.286  0.00  0.00    +0.000 A 
BRANCH  19  22
ATOM     22  C   UNL     1       6.473   4.666  14.332  0.00  0.00    +0.000 A 
ATOM     23  C   UNL     1       5.302   3.929  14.086  0.00  0.00    +0.000 A 
ATOM     24  C   UNL     1       5.095   3.303  12.854  0.00  0.00    +0.000 A 
ATOM     25  C   UNL     1       6.056   3.405  11.853  0.00  0.00    +0.000 A 
ATOM     26  C   UNL     1       7.224   4.131  12.081  0.00  0.00    +0.000 A 
ATOM     27  C   UNL     1       7.431   4.758  13.313  0.00  0.00    +0.000 A 
ENDBRANCH  19  22
ENDBRANCH   1  21
TORSDOF 3
ENDMDL
MODEL 7
REMARK VINA RESULT:      -7.7      3.225      5.445
REMARK  Name = 
REMARK  4 active torsions:
REMARK  status: ('A' for Active; 'I' for Inactive)
REMARK    1  A    between atoms: C_1  and  C_2
REMARK    2  A    between atoms: C_4  and  C_5
REMARK    3  A    between atoms: C_12  and  C_13
REMARK    4  A    between atoms: N_15  and  C_16
REMARK                            x       y       z     vdW  Elec       q    Type
REMARK                         _______ _______ _______ _____ _____    ______ ____
ROOT
ATOM      1  C   UNL     1       1.340   9.012  21.151  0.00  0.00    +0.000 C 
ATOM      2  O   UNL     1       1.838   8.927  22.269  0.00  0.00    +0.000 OA
ATOM      3  N   UNL     1       0.394   9.946  20.751  0.00  0.00    +0.000 N 
ATOM      4  H   UNL     1       0.004   9.803  19.824  0.00  0.00    +0.000 HD
ENDROOT
BRANCH   3   5
ATOM      5  C   UNL     1      -0.132  10.975  21.566  0.00  0.00    +0.000 A 
ATOM      6  C   UNL     1      -1.155  10.767  22.476  0.00  0.00    +0.000 A 
ATOM      7  C   UNL     1      -1.671  11.836  23.206  0.00  0.00    +0.000 A 
ATOM      8  C   UNL     1      -1.167  13.123  23.046  0.00  0.00    +0.000 A 
ATOM      9  N   UNL     1      -1.682  14.166  23.772  0.00  0.00    +0.000 N 
ATOM     10  C   UNL     1      -1.196  15.525  23.640  0.00  0.00    +0.000 C 
ATOM     11  C   UNL     1      -1.785  16.182  24.887  0.00  0.00    +0.000 C 
ATOM     12  C   UNL     1      -3.158  15.532  25.017  0.00  0.00    +0.000 C 
ATOM     13  C   UNL     1      -2.975  14.126  24.443  0.00  0.00    +0.000 C 
ATOM     14  N   UNL     1      -0.132  13.334  22.201  0.00  0.00    +0.000 NA
ATOM     15  C   UNL     1       0.360  12.274  21.494  0.00  0.00    +0.000 A 
ENDBRANCH   3   5
BRANCH   1  21
ATOM     16  C   UNL     1       2.035   9.620  18.010  0.00  0.00    +0.000 C 
ATOM     17  C   UNL     1       1.980   8.373  18.796  0.00  0.00    +0.000 A 
ATOM     18  O   UNL     1       2.250   7.213  18.137  0.00  0.00    +0.000 OA
ATOM     19  C   UNL     1       2.129   6.237  19.086  0.00  0.00    +0.000 A 
ATOM     20  N   UNL     1       1.809   6.686  20.291  0.00  0.00    +0.000 NA
ATOM     21  C   UNL     1       1.701   8.058  20.109  0.00  0.00    +0.000 A 
BRANCH  19  22
ATOM     22  C   UNL     1       2.349   4.870  18.623  0.00  0.00    +0.000 A 
ATOM     23  C   UNL     1       3.481   4.527  17.864  0.00  0.00    +0.000 A 
ATOM     24  C   UNL     1       3.678   3.216  17.426  0.00  0.00    +0.000 A 
ATOM     25  C   UNL     1       2.747   2.230  17.740  0.00  0.00    +0.000 A 
ATOM     26  C   UNL     1       1.619   2.554  18.491  0.00  0.00    +0.000 A 
ATOM     27  C   UNL     1       1.421   3.866  18.931  0.00  0.00    +0.000 A 
ENDBRANCH  19  22
ENDBRANCH   1  21
TORSDOF 3
ENDMDL
MODEL 8
REMARK VINA RESULT:      -7.7      2.223      3.598
REMARK  Name = 
REMARK  4 active torsions:
REMARK  status: ('A' for Active; 'I' for Inactive)
REMARK    1  A    between atoms: C_1  and  C_2
REMARK    2  A    between atoms: C_4  and  C_5
REMARK    3  A    between atoms: C_12  and  C_13
REMARK    4  A    between atoms: N_15  and  C_16
REMARK                            x       y       z     vdW  Elec       q    Type
REMARK                         _______ _______ _______ _____ _____    ______ ____
ROOT
ATOM      1  C   UNL     1       1.337   6.819  20.691  0.00  0.00    +0.000 C 
ATOM      2  O   UNL     1       0.180   6.427  20.800  0.00  0.00    +0.000 OA
ATOM      3  N   UNL     1       1.802   8.085  21.020  0.00  0.00    +0.000 N 
ATOM      4  H   UNL     1       2.764   8.279  20.759  0.00  0.00    +0.000 HD
ENDROOT
BRANCH   3   5
ATOM      5  C   UNL     1       1.015   9.127  21.564  0.00  0.00    +0.000 A 
ATOM      6  C   UNL     1       0.056   8.915  22.541  0.00  0.00    +0.000 A 
ATOM      7  C   UNL     1      -0.730   9.973  22.993  0.00  0.00    +0.000 A 
ATOM      8  C   UNL     1      -0.562  11.258  22.485  0.00  0.00    +0.000 A 
ATOM      9  N   UNL     1      -1.340  12.291  22.940  0.00  0.00    +0.000 N 
ATOM     10  C   UNL     1      -1.209  13.646  22.441  0.00  0.00    +0.000 C 
ATOM     11  C   UNL     1      -1.973  14.436  23.502  0.00  0.00    +0.000 C 
ATOM     12  C   UNL     1      -3.141  13.522  23.854  0.00  0.00    +0.000 C 
ATOM     13  C   UNL     1      -2.596  12.107  23.654  0.00  0.00    +0.000 C 
ATOM     14  N   UNL     1       0.406  11.493  21.570  0.00  0.00    +0.000 NA
ATOM     15  C   UNL     1       1.165  10.442  21.139  0.00  0.00    +0.000 A 
ENDBRANCH   3   5
BRANCH   1  21
ATOM     16  C   UNL     1       2.044   3.743  21.561  0.00  0.00    +0.000 C 
ATOM     17  C   UNL     1       2.620   4.650  20.552  0.00  0.00    +0.000 A 
ATOM     18  O   UNL     1       3.660   4.176  19.815  0.00  0.00    +0.000 OA
ATOM     19  C   UNL     1       3.991   5.204  18.976  0.00  0.00    +0.000 A 
ATOM     20  N   UNL     1       3.241   6.286  19.121  0.00  0.00    +0.000 NA
ATOM     21  C   UNL     1       2.364   5.942  20.140  0.00  0.00    +0.000 A 
BRANCH  19  22
ATOM     22  C   UNL     1       5.116   4.956  18.080  0.00  0.00    +0.000 A 
ATOM     23  C   UNL     1       4.918   4.564  16.745  0.00  0.00    +0.000 A 
ATOM     24  C   UNL     1       6.003   4.328  15.899  0.00  0.00    +0.000 A 
ATOM     25  C   UNL     1       7.302   4.481  16.376  0.00  0.00    +0.000 A 
ATOM     26  C   UNL     1       7.516   4.868  17.698  0.00  0.00    +0.000 A 
ATOM     27  C   UNL     1       6.430   5.105  18.544  0.00  0.00    +0.000 A 
ENDBRANCH  19  22
ENDBRANCH   1  21
TORSDOF 3
ENDMDL
MODEL 9
REMARK VINA RESULT:      -7.6      1.634      2.601
REMARK  Name = 
REMARK  4 active torsions:
REMARK  status: ('A' for Active; 'I' for Inactive)
REMARK    1  A    between atoms: C_1  and  C_2
REMARK    2  A    between atoms: C_4  and  C_5
REMARK    3  A    between atoms: C_12  and  C_13
REMARK    4  A    between atoms: N_15  and  C_16
REMARK                            x       y       z     vdW  Elec       q    Type
REMARK                         _______ _______ _______ _____ _____    ______ ____
ROOT
ATOM      1  C   UNL     1       1.879   6.426  20.162  0.00  0.00    +0.000 C 
ATOM      2  O   UNL     1       1.083   5.897  20.930  0.00  0.00    +0.000 OA
ATOM      3  N   UNL     1       1.965   7.784  19.888  0.00  0.00    +0.000 N 
ATOM      4  H   UNL     1       2.604   8.040  19.141  0.00  0.00    +0.000 HD
ENDROOT
BRANCH   3   5
ATOM      5  C   UNL     1       1.160   8.788  20.476  0.00  0.00    +0.000 A 
ATOM      6  C   UNL     1       0.928   8.864  21.839  0.00  0.00    +0.000 A 
ATOM      7  C   UNL     1       0.076   9.841  22.351  0.00  0.00    +0.000 A 
ATOM      8  C   UNL     1      -0.547  10.759  21.512  0.00  0.00    +0.000 A 
ATOM      9  N   UNL     1      -1.382  11.717  22.029  0.00  0.00    +0.000 N 
ATOM     10  C   UNL     1      -2.058  12.695  21.198  0.00  0.00    +0.000 C 
ATOM     11  C   UNL     1      -2.508  13.718  22.239  0.00  0.00    +0.000 C 
ATOM     12  C   UNL     1      -2.900  12.860  23.436  0.00  0.00    +0.000 C 
ATOM     13  C   UNL     1      -1.980  11.642  23.355  0.00  0.00    +0.000 C 
ATOM     14  N   UNL     1      -0.289  10.733  20.185  0.00  0.00    +0.000 NA
ATOM     15  C   UNL     1       0.549   9.768  19.702  0.00  0.00    +0.000 A 
ENDBRANCH   3   5
BRANCH   1  21
ATOM     16  C   UNL     1       2.832   3.352  20.766  0.00  0.00    +0.000 C 
ATOM     17  C   UNL     1       3.194   4.320  19.714  0.00  0.00    +0.000 A 
ATOM     18  O   UNL     1       4.109   3.918  18.790  0.00  0.00    +0.000 OA
ATOM     19  C   UNL     1       4.255   4.989  17.954  0.00  0.00    +0.000 A 
ATOM     20  N   UNL     1       3.503   6.032  18.271  0.00  0.00    +0.000 NA
ATOM     21  C   UNL     1       2.826   5.614  19.408  0.00  0.00    +0.000 A 
BRANCH  19  22
ATOM     22  C   UNL     1       5.218   4.822  16.870  0.00  0.00    +0.000 A 
ATOM     23  C   UNL     1       4.801   4.647  15.539  0.00  0.00    +0.000 A 
ATOM     24  C   UNL     1       5.734   4.487  14.512  0.00  0.00    +0.000 A 
ATOM     25  C   UNL     1       7.095   4.498  14.801  0.00  0.00    +0.000 A 
ATOM     26  C   UNL     1       7.525   4.669  16.115  0.00  0.00    +0.000 A 
ATOM     27  C   UNL     1       6.593   4.831  17.144  0.00  0.00    +0.000 A 
ENDBRANCH  19  22
ENDBRANCH   1  21
TORSDOF 3
ENDMDL
