MODEL 1
REMARK VINA RESULT:      -9.0      0.000      0.000
REMARK  Name = 
REMARK  4 active torsions:
REMARK  status: ('A' for Active; 'I' for Inactive)
REMARK    1  A    between atoms: C_1  and  N_2
REMARK    2  A    between atoms: N_7  and  C_8
REMARK    3  A    between atoms: C_12  and  N_13
REMARK    4  A    between atoms: C_21  and  C_22
REMARK                            x       y       z     vdW  Elec       q    Type
REMARK                         _______ _______ _______ _____ _____    ______ ____
ROOT
ATOM      1  N   UNL     1       4.031   4.581  19.277  0.00  0.00    +0.000 N 
ATOM      2  C   UNL     1       5.375   5.205  19.350  0.00  0.00    +0.000 C 
ATOM      3  C   UNL     1       5.898   5.001  17.961  0.00  0.00    +0.000 A 
ATOM      4  C   UNL     1       5.265   3.868  17.437  0.00  0.00    +0.000 A 
ATOM      5  C   UNL     1       5.399   3.472  16.120  0.00  0.00    +0.000 A 
ATOM      6  C   UNL     1       6.200   4.269  15.311  0.00  0.00    +0.000 A 
ATOM      7  F   UNL     1       6.305   3.981  14.008  0.00  0.00    +0.000 F 
ATOM      8  C   UNL     1       6.836   5.417  15.806  0.00  0.00    +0.000 A 
ATOM      9  C   UNL     1       6.696   5.810  17.153  0.00  0.00    +0.000 A 
ATOM     10  C   UNL     1       4.166   3.500  18.362  0.00  0.00    +0.000 C 
ATOM     11  O   UNL     1       3.424   2.550  18.194  0.00  0.00    +0.000 OA
ENDROOT
BRANCH   1  16
ATOM     12  C   UNL     1       2.102   7.658  19.785  0.00  0.00    +0.000 A 
ATOM     13  C   UNL     1       2.458   8.264  18.573  0.00  0.00    +0.000 A 
ATOM     14  C   UNL     1       2.875   7.505  17.481  0.00  0.00    +0.000 A 
ATOM     15  C   UNL     1       3.075   6.139  17.629  0.00  0.00    +0.000 A 
ATOM     16  C   UNL     1       3.032   5.584  18.913  0.00  0.00    +0.000 A 
ATOM     17  C   UNL     1       2.399   6.294  19.945  0.00  0.00    +0.000 A 
BRANCH  12  24
ATOM     18  C   UNL     1       0.091   9.379  23.275  0.00  0.00    +0.000 C 
ATOM     19  N   UNL     1       0.088   9.904  21.937  0.00  0.00    +0.000 N 
ATOM     20  C   UNL     1      -0.670  10.955  21.512  0.00  0.00    +0.000 A 
ATOM     21  N   UNL     1      -0.475  11.149  20.234  0.00  0.00    +0.000 NA
ATOM     22  N   UNL     1       0.435  10.194  19.812  0.00  0.00    +0.000 NA
ATOM     23  C   UNL     1       0.765   9.438  20.838  0.00  0.00    +0.000 A 
ATOM     24  N   UNL     1       1.614   8.388  20.893  0.00  0.00    +0.000 N 
ATOM     25  H   UNL     1       1.874   7.965  21.776  0.00  0.00    +0.000 HD
ENDBRANCH  12  24
ENDBRANCH   1  16
BRANCH   9  26
ATOM     26  C   UNL     1       7.312   7.108  17.606  0.00  0.00    +0.000 C 
ATOM     27  F   UNL     1       8.052   7.006  18.743  0.00  0.00    +0.000 F 
ATOM     28  F   UNL     1       8.156   7.620  16.669  0.00  0.00    +0.000 F 
ATOM     29  F   UNL     1       6.386   8.069  17.841  0.00  0.00    +0.000 F 
ENDBRANCH   9  26
TORSDOF 3
ENDMDL
MODEL 2
REMARK VINA RESULT:      -8.5      3.628      4.888
REMARK  Name = 
REMARK  4 active torsions:
REMARK  status: ('A' for Active; 'I' for Inactive)
REMARK    1  A    between atoms: C_1  and  N_2
REMARK    2  A    between atoms: N_7  and  C_8
REMARK    3  A    between atoms: C_12  and  N_13
REMARK    4  A    between atoms: C_21  and  C_22
REMARK                            x       y       z     vdW  Elec       q    Type
REMARK                         _______ _______ _______ _____ _____    ______ ____
ROOT
ATOM      1  N   UNL     1       2.643   6.262  17.558  0.00  0.00    +0.000 N 
ATOM      2  C   UNL     1       1.676   5.166  17.814  0.00  0.00    +0.000 C 
ATOM      3  C   UNL     1       2.513   4.165  18.550  0.00  0.00    +0.000 A 
ATOM      4  C   UNL     1       3.841   4.356  18.151  0.00  0.00    +0.000 A 
ATOM      5  C   UNL     1       4.905   3.702  18.740  0.00  0.00    +0.000 A 
ATOM      6  C   UNL     1       4.601   2.832  19.780  0.00  0.00    +0.000 A 
ATOM      7  F   UNL     1       5.596   2.229  20.441  0.00  0.00    +0.000 F 
ATOM      8  C   UNL     1       3.281   2.630  20.209  0.00  0.00    +0.000 A 
ATOM      9  C   UNL     1       2.201   3.300  19.597  0.00  0.00    +0.000 A 
ATOM     10  C   UNL     1       3.899   5.620  17.377  0.00  0.00    +0.000 C 
ATOM     11  O   UNL     1       4.917   6.068  16.882  0.00  0.00    +0.000 OA
ENDROOT
BRANCH   1  16
ATOM     12  C   UNL     1       1.341   9.229  19.276  0.00  0.00    +0.000 A 
ATOM     13  C   UNL     1       1.029   8.584  20.479  0.00  0.00    +0.000 A 
ATOM     14  C   UNL     1       1.666   7.403  20.853  0.00  0.00    +0.000 A 
ATOM     15  C   UNL     1       2.525   6.773  19.963  0.00  0.00    +0.000 A 
ATOM     16  C   UNL     1       2.593   7.238  18.645  0.00  0.00    +0.000 A 
ATOM     17  C   UNL     1       2.139   8.533  18.352  0.00  0.00    +0.000 A 
BRANCH  12  24
ATOM     18  C   UNL     1      -0.704  13.071  18.778  0.00  0.00    +0.000 C 
ATOM     19  N   UNL     1      -1.064  11.821  18.168  0.00  0.00    +0.000 N 
ATOM     20  C   UNL     1      -2.198  11.604  17.442  0.00  0.00    +0.000 A 
ATOM     21  N   UNL     1      -2.249  10.353  17.068  0.00  0.00    +0.000 NA
ATOM     22  N   UNL     1      -1.115   9.733  17.566  0.00  0.00    +0.000 NA
ATOM     23  C   UNL     1      -0.408  10.617  18.238  0.00  0.00    +0.000 A 
ATOM     24  N   UNL     1       0.764  10.461  18.893  0.00  0.00    +0.000 N 
ATOM     25  H   UNL     1       1.268  11.255  19.270  0.00  0.00    +0.000 HD
ENDBRANCH  12  24
ENDBRANCH   1  16
BRANCH   9  26
ATOM     26  C   UNL     1       0.816   3.130  20.167  0.00  0.00    +0.000 C 
ATOM     27  F   UNL     1       0.778   2.455  21.347  0.00  0.00    +0.000 F 
ATOM     28  F   UNL     1       0.222   4.330  20.415  0.00  0.00    +0.000 F 
ATOM     29  F   UNL     1      -0.015   2.469  19.324  0.00  0.00    +0.000 F 
ENDBRANCH   9  26
TORSDOF 3
ENDMDL
MODEL 3
REMARK VINA RESULT:      -8.3      6.818      9.268
REMARK  Name = 
REMARK  4 active torsions:
REMARK  status: ('A' for Active; 'I' for Inactive)
REMARK    1  A    between atoms: C_1  and  N_2
REMARK    2  A    between atoms: N_7  and  C_8
REMARK    3  A    between atoms: C_12  and  N_13
REMARK    4  A    between atoms: C_21  and  C_22
REMARK                            x       y       z     vdW  Elec       q    Type
REMARK                         _______ _______ _______ _____ _____    ______ ____
ROOT
ATOM      1  N   UNL     1      -0.334  11.305  18.391  0.00  0.00    +0.000 N 
ATOM      2  C   UNL     1       0.375  10.465  19.388  0.00  0.00    +0.000 C 
ATOM      3  C   UNL     1       0.007  11.124  20.682  0.00  0.00    +0.000 A 
ATOM      4  C   UNL     1      -0.260  12.470  20.405  0.00  0.00    +0.000 A 
ATOM      5  C   UNL     1      -0.772  13.344  21.344  0.00  0.00    +0.000 A 
ATOM      6  C   UNL     1      -1.030  12.820  22.605  0.00  0.00    +0.000 A 
ATOM      7  F   UNL     1      -1.600  13.598  23.532  0.00  0.00    +0.000 F 
ATOM      8  C   UNL     1      -0.784  11.473  22.907  0.00  0.00    +0.000 A 
ATOM      9  C   UNL     1      -0.257  10.589  21.942  0.00  0.00    +0.000 A 
ATOM     10  C   UNL     1      -0.321  12.621  18.931  0.00  0.00    +0.000 C 
ATOM     11  O   UNL     1      -0.531  13.677  18.363  0.00  0.00    +0.000 OA
ENDROOT
BRANCH   1  16
ATOM     12  C   UNL     1      -3.944  11.532  17.793  0.00  0.00    +0.000 A 
ATOM     13  C   UNL     1      -3.940  10.852  16.568  0.00  0.00    +0.000 A 
ATOM     14  C   UNL     1      -2.918   9.964  16.239  0.00  0.00    +0.000 A 
ATOM     15  C   UNL     1      -1.813   9.847  17.071  0.00  0.00    +0.000 A 
ATOM     16  C   UNL     1      -1.661  10.755  18.125  0.00  0.00    +0.000 A 
ATOM     17  C   UNL     1      -2.779  11.474  18.576  0.00  0.00    +0.000 A 
BRANCH  12  24
ATOM     18  C   UNL     1      -6.674  14.566  19.384  0.00  0.00    +0.000 C 
ATOM     19  N   UNL     1      -6.625  13.177  19.752  0.00  0.00    +0.000 N 
ATOM     20  C   UNL     1      -7.335  12.613  20.771  0.00  0.00    +0.000 A 
ATOM     21  N   UNL     1      -7.030  11.346  20.871  0.00  0.00    +0.000 NA
ATOM     22  N   UNL     1      -6.090  11.075  19.891  0.00  0.00    +0.000 NA
ATOM     23  C   UNL     1      -5.840  12.183  19.225  0.00  0.00    +0.000 A 
ATOM     24  N   UNL     1      -4.995  12.391  18.190  0.00  0.00    +0.000 N 
ATOM     25  H   UNL     1      -4.985  13.269  17.684  0.00  0.00    +0.000 HD
ENDBRANCH  12  24
ENDBRANCH   1  16
BRANCH   9  26
ATOM     26  C   UNL     1      -0.113   9.129  22.286  0.00  0.00    +0.000 C 
ATOM     27  F   UNL     1      -0.936   8.308  21.579  0.00  0.00    +0.000 F 
ATOM     28  F   UNL     1       1.147   8.676  22.044  0.00  0.00    +0.000 F 
ATOM     29  F   UNL     1      -0.358   8.877  23.595  0.00  0.00    +0.000 F 
ENDBRANCH   9  26
TORSDOF 3
ENDMDL
MODEL 4
REMARK VINA RESULT:      -8.3      7.016      9.554
REMARK  Name = 
REMARK  4 active torsions:
REMARK  status: ('A' for Active; 'I' for Inactive)
REMARK    1  A    between atoms: C_1  and  N_2
REMARK    2  A    between atoms: N_7  and  C_8
REMARK    3  A    between atoms: C_12  and  N_13
REMARK    4  A    between atoms: C_21  and  C_22
REMARK                            x       y       z     vdW  Elec       q    Type
REMARK                         _______ _______ _______ _____ _____    ______ ____
ROOT
ATOM      1  N   UNL     1      -0.301  11.750  18.608  0.00  0.00    +0.000 N 
ATOM      2  C   UNL     1       0.469  10.972  19.609  0.00  0.00    +0.000 C 
ATOM      3  C   UNL     1      -0.100  11.465  20.905  0.00  0.00    +0.000 A 
ATOM      4  C   UNL     1      -0.577  12.763  20.686  0.00  0.00    +0.000 A 
ATOM      5  C   UNL     1      -1.300  13.468  21.628  0.00  0.00    +0.000 A 
ATOM      6  C   UNL     1      -1.552  12.818  22.831  0.00  0.00    +0.000 A 
ATOM      7  F   UNL     1      -2.314  13.420  23.751  0.00  0.00    +0.000 F 
ATOM      8  C   UNL     1      -1.097  11.513  23.073  0.00  0.00    +0.000 A 
ATOM      9  C   UNL     1      -0.356  10.804  22.105  0.00  0.00    +0.000 A 
ATOM     10  C   UNL     1      -0.557  13.007  19.223  0.00  0.00    +0.000 C 
ATOM     11  O   UNL     1      -0.906  14.050  18.703  0.00  0.00    +0.000 OA
ENDROOT
BRANCH   1  16
ATOM     12  C   UNL     1      -3.606  11.390  17.059  0.00  0.00    +0.000 A 
ATOM     13  C   UNL     1      -3.245  10.376  16.163  0.00  0.00    +0.000 A 
ATOM     14  C   UNL     1      -2.154   9.546  16.412  0.00  0.00    +0.000 A 
ATOM     15  C   UNL     1      -1.323   9.808  17.492  0.00  0.00    +0.000 A 
ATOM     16  C   UNL     1      -1.490  11.004  18.200  0.00  0.00    +0.000 A 
ATOM     17  C   UNL     1      -2.704  11.699  18.092  0.00  0.00    +0.000 A 
BRANCH  12  24
ATOM     18  C   UNL     1      -6.735  14.447  16.832  0.00  0.00    +0.000 C 
ATOM     19  N   UNL     1      -6.762  13.248  17.625  0.00  0.00    +0.000 N 
ATOM     20  C   UNL     1      -7.716  12.945  18.551  0.00  0.00    +0.000 A 
ATOM     21  N   UNL     1      -7.424  11.809  19.127  0.00  0.00    +0.000 NA
ATOM     22  N   UNL     1      -6.242  11.359  18.563  0.00  0.00    +0.000 NA
ATOM     23  C   UNL     1      -5.839  12.233  17.666  0.00  0.00    +0.000 A 
ATOM     24  N   UNL     1      -4.743  12.210  16.875  0.00  0.00    +0.000 N 
ATOM     25  H   UNL     1      -4.611  12.889  16.135  0.00  0.00    +0.000 HD
ENDBRANCH  12  24
ENDBRANCH   1  16
BRANCH   9  26
ATOM     26  C   UNL     1       0.015   9.368  22.373  0.00  0.00    +0.000 C 
ATOM     27  F   UNL     1      -0.189   8.971  23.658  0.00  0.00    +0.000 F 
ATOM     28  F   UNL     1      -0.711   8.508  21.607  0.00  0.00    +0.000 F 
ATOM     29  F   UNL     1       1.316   9.107  22.097  0.00  0.00    +0.000 F 
ENDBRANCH   9  26
TORSDOF 3
ENDMDL
MODEL 5
REMARK VINA RESULT:      -8.3      4.646      8.312
REMARK  Name = 
REMARK  4 active torsions:
REMARK  status: ('A' for Active; 'I' for Inactive)
REMARK    1  A    between atoms: C_1  and  N_2
REMARK    2  A    between atoms: N_7  and  C_8
REMARK    3  A    between atoms: C_12  and  N_13
REMARK    4  A    between atoms: C_21  and  C_22
REMARK                            x       y       z     vdW  Elec       q    Type
REMARK                         _______ _______ _______ _____ _____    ______ ____
ROOT
ATOM      1  N   UNL     1       0.036   9.260  20.808  0.00  0.00    +0.000 N 
ATOM      2  C   UNL     1      -1.136   9.194  19.900  0.00  0.00    +0.000 C 
ATOM      3  C   UNL     1      -1.215  10.596  19.377  0.00  0.00    +0.000 A 
ATOM      4  C   UNL     1      -0.648  11.436  20.343  0.00  0.00    +0.000 A 
ATOM      5  C   UNL     1      -0.420  12.781  20.130  0.00  0.00    +0.000 A 
ATOM      6  C   UNL     1      -0.774  13.281  18.883  0.00  0.00    +0.000 A 
ATOM      7  F   UNL     1      -0.504  14.559  18.590  0.00  0.00    +0.000 F 
ATOM      8  C   UNL     1      -1.332  12.461  17.891  0.00  0.00    +0.000 A 
ATOM      9  C   UNL     1      -1.565  11.089  18.121  0.00  0.00    +0.000 A 
ATOM     10  C   UNL     1       0.019  10.575  21.350  0.00  0.00    +0.000 C 
ATOM     11  O   UNL     1       0.604  11.001  22.329  0.00  0.00    +0.000 OA
ENDROOT
BRANCH   1  16
ATOM     12  C   UNL     1       2.509   6.908  19.469  0.00  0.00    +0.000 A 
ATOM     13  C   UNL     1       2.405   7.319  18.134  0.00  0.00    +0.000 A 
ATOM     14  C   UNL     1       1.944   8.592  17.804  0.00  0.00    +0.000 A 
ATOM     15  C   UNL     1       1.449   9.424  18.800  0.00  0.00    +0.000 A 
ATOM     16  C   UNL     1       1.252   8.900  20.082  0.00  0.00    +0.000 A 
ATOM     17  C   UNL     1       1.919   7.722  20.450  0.00  0.00    +0.000 A 
BRANCH  12  24
ATOM     18  C   UNL     1       4.316   2.943  19.926  0.00  0.00    +0.000 C 
ATOM     19  N   UNL     1       2.920   3.269  20.034  0.00  0.00    +0.000 N 
ATOM     20  C   UNL     1       1.913   2.358  20.156  0.00  0.00    +0.000 A 
ATOM     21  N   UNL     1       0.762   2.975  20.185  0.00  0.00    +0.000 NA
ATOM     22  N   UNL     1       1.025   4.331  20.074  0.00  0.00    +0.000 NA
ATOM     23  C   UNL     1       2.326   4.504  19.973  0.00  0.00    +0.000 A 
ATOM     24  N   UNL     1       3.033   5.649  19.845  0.00  0.00    +0.000 N 
ATOM     25  H   UNL     1       4.044   5.655  19.900  0.00  0.00    +0.000 HD
ENDBRANCH  12  24
ENDBRANCH   1  16
BRANCH   9  26
ATOM     26  C   UNL     1      -2.065  10.230  16.988  0.00  0.00    +0.000 C 
ATOM     27  F   UNL     1      -3.224   9.571  17.259  0.00  0.00    +0.000 F 
ATOM     28  F   UNL     1      -2.319  10.966  15.872  0.00  0.00    +0.000 F 
ATOM     29  F   UNL     1      -1.168   9.284  16.617  0.00  0.00    +0.000 F 
ENDBRANCH   9  26
TORSDOF 3
ENDMDL
MODEL 6
REMARK VINA RESULT:      -8.2      4.562      8.355
REMARK  Name = 
REMARK  4 active torsions:
REMARK  status: ('A' for Active; 'I' for Inactive)
REMARK    1  A    between atoms: C_1  and  N_2
REMARK    2  A    between atoms: N_7  and  C_8
REMARK    3  A    between atoms: C_12  and  N_13
REMARK    4  A    between atoms: C_21  and  C_22
REMARK                            x       y       z     vdW  Elec       q    Type
REMARK                         _______ _______ _______ _____ _____    ______ ____
ROOT
ATOM      1  N   UNL     1       0.077   9.197  20.790  0.00  0.00    +0.000 N 
ATOM      2  C   UNL     1      -1.095   9.125  19.883  0.00  0.00    +0.000 C 
ATOM      3  C   UNL     1      -1.191  10.529  19.370  0.00  0.00    +0.000 A 
ATOM      4  C   UNL     1      -0.632  11.368  20.341  0.00  0.00    +0.000 A 
ATOM      5  C   UNL     1      -0.420  12.718  20.138  0.00  0.00    +0.000 A 
ATOM      6  C   UNL     1      -0.781  13.222  18.894  0.00  0.00    +0.000 A 
ATOM      7  F   UNL     1      -0.527  14.505  18.610  0.00  0.00    +0.000 F 
ATOM      8  C   UNL     1      -1.331  12.402  17.898  0.00  0.00    +0.000 A 
ATOM      9  C   UNL     1      -1.548  11.026  18.118  0.00  0.00    +0.000 A 
ATOM     10  C   UNL     1       0.046  10.508  21.342  0.00  0.00    +0.000 C 
ATOM     11  O   UNL     1       0.627  10.933  22.322  0.00  0.00    +0.000 OA
ENDROOT
BRANCH   1  16
ATOM     12  C   UNL     1       2.493   6.880  19.295  0.00  0.00    +0.000 A 
ATOM     13  C   UNL     1       2.437   7.413  18.001  0.00  0.00    +0.000 A 
ATOM     14  C   UNL     1       2.032   8.728  17.779  0.00  0.00    +0.000 A 
ATOM     15  C   UNL     1       1.544   9.485  18.835  0.00  0.00    +0.000 A 
ATOM     16  C   UNL     1       1.296   8.857  20.061  0.00  0.00    +0.000 A 
ATOM     17  C   UNL     1       1.910   7.624  20.334  0.00  0.00    +0.000 A 
BRANCH  12  24
ATOM     18  C   UNL     1       4.466   2.984  19.646  0.00  0.00    +0.000 C 
ATOM     19  N   UNL     1       3.175   3.244  19.069  0.00  0.00    +0.000 N 
ATOM     20  C   UNL     1       2.417   2.326  18.405  0.00  0.00    +0.000 A 
ATOM     21  N   UNL     1       1.323   2.892  17.966  0.00  0.00    +0.000 NA
ATOM     22  N   UNL     1       1.371   4.221  18.354  0.00  0.00    +0.000 NA
ATOM     23  C   UNL     1       2.493   4.433  19.009  0.00  0.00    +0.000 A 
ATOM     24  N   UNL     1       2.960   5.573  19.567  0.00  0.00    +0.000 N 
ATOM     25  H   UNL     1       3.787   5.574  20.152  0.00  0.00    +0.000 HD
ENDBRANCH  12  24
ENDBRANCH   1  16
BRANCH   9  26
ATOM     26  C   UNL     1      -2.040  10.170  16.979  0.00  0.00    +0.000 C 
ATOM     27  F   UNL     1      -2.311  10.862  15.840  0.00  0.00    +0.000 F 
ATOM     28  F   UNL     1      -1.123   9.229  16.624  0.00  0.00    +0.000 F 
ATOM     29  F   UNL     1      -3.171   9.492  17.290  0.00  0.00    +0.000 F 
ENDBRANCH   9  26
TORSDOF 3
ENDMDL
MODEL 7
REMARK VINA RESULT:      -8.2      3.512      4.829
REMARK  Name = 
REMARK  4 active torsions:
REMARK  status: ('A' for Active; 'I' for Inactive)
REMARK    1  A    between atoms: C_1  and  N_2
REMARK    2  A    between atoms: N_7  and  C_8
REMARK    3  A    between atoms: C_12  and  N_13
REMARK    4  A    between atoms: C_21  and  C_22
REMARK                            x       y       z     vdW  Elec       q    Type
REMARK                         _______ _______ _______ _____ _____    ______ ____
ROOT
ATOM      1  N   UNL     1       2.501   6.595  17.710  0.00  0.00    +0.000 N 
ATOM      2  C   UNL     1       1.592   5.431  17.859  0.00  0.00    +0.000 C 
ATOM      3  C   UNL     1       2.481   4.410  18.501  0.00  0.00    +0.000 A 
ATOM      4  C   UNL     1       3.797   4.707  18.127  0.00  0.00    +0.000 A 
ATOM      5  C   UNL     1       4.894   4.057  18.657  0.00  0.00    +0.000 A 
ATOM      6  C   UNL     1       4.636   3.078  19.610  0.00  0.00    +0.000 A 
ATOM      7  F   UNL     1       5.662   2.469  20.216  0.00  0.00    +0.000 F 
ATOM      8  C   UNL     1       3.329   2.769  20.013  0.00  0.00    +0.000 A 
ATOM      9  C   UNL     1       2.215   3.436  19.462  0.00  0.00    +0.000 A 
ATOM     10  C   UNL     1       3.789   6.039  17.475  0.00  0.00    +0.000 C 
ATOM     11  O   UNL     1       4.781   6.584  17.028  0.00  0.00    +0.000 OA
ENDROOT
BRANCH   1  16
ATOM     12  C   UNL     1       1.069   9.338  19.677  0.00  0.00    +0.000 A 
ATOM     13  C   UNL     1       0.763   8.572  20.809  0.00  0.00    +0.000 A 
ATOM     14  C   UNL     1       1.437   7.383  21.081  0.00  0.00    +0.000 A 
ATOM     15  C   UNL     1       2.332   6.871  20.150  0.00  0.00    +0.000 A 
ATOM     16  C   UNL     1       2.401   7.461  18.883  0.00  0.00    +0.000 A 
ATOM     17  C   UNL     1       1.904   8.762  18.705  0.00  0.00    +0.000 A 
BRANCH  12  24
ATOM     18  C   UNL     1      -0.340  13.245  18.286  0.00  0.00    +0.000 C 
ATOM     19  N   UNL     1       0.320  12.964  19.531  0.00  0.00    +0.000 N 
ATOM     20  C   UNL     1       0.744  13.907  20.421  0.00  0.00    +0.000 A 
ATOM     21  N   UNL     1       1.345  13.325  21.425  0.00  0.00    +0.000 NA
ATOM     22  N   UNL     1       1.316  11.962  21.182  0.00  0.00    +0.000 NA
ATOM     23  C   UNL     1       0.708  11.748  20.035  0.00  0.00    +0.000 A 
ATOM     24  N   UNL     1       0.453  10.581  19.402  0.00  0.00    +0.000 N 
ATOM     25  H   UNL     1      -0.134  10.544  18.578  0.00  0.00    +0.000 HD
ENDBRANCH  12  24
ENDBRANCH   1  16
BRANCH   9  26
ATOM     26  C   UNL     1       0.841   3.142  20.007  0.00  0.00    +0.000 C 
ATOM     27  F   UNL     1       0.840   2.370  21.127  0.00  0.00    +0.000 F 
ATOM     28  F   UNL     1       0.180   4.281  20.350  0.00  0.00    +0.000 F 
ATOM     29  F   UNL     1       0.050   2.507  19.107  0.00  0.00    +0.000 F 
ENDBRANCH   9  26
TORSDOF 3
ENDMDL
MODEL 8
REMARK VINA RESULT:      -8.2      2.173      3.062
REMARK  Name = 
REMARK  4 active torsions:
REMARK  status: ('A' for Active; 'I' for Inactive)
REMARK    1  A    between atoms: C_1  and  N_2
REMARK    2  A    between atoms: N_7  and  C_8
REMARK    3  A    between atoms: C_12  and  N_13
REMARK    4  A    between atoms: C_21  and  C_22
REMARK                            x       y       z     vdW  Elec       q    Type
REMARK                         _______ _______ _______ _____ _____    ______ ____
ROOT
ATOM      1  N   UNL     1       3.160   6.452  20.106  0.00  0.00    +0.000 N 
ATOM      2  C   UNL     1       4.356   6.268  19.248  0.00  0.00    +0.000 C 
ATOM      3  C   UNL     1       4.028   5.007  18.508  0.00  0.00    +0.000 A 
ATOM      4  C   UNL     1       3.157   4.264  19.314  0.00  0.00    +0.000 A 
ATOM      5  C   UNL     1       2.534   3.109  18.883  0.00  0.00    +0.000 A 
ATOM      6  C   UNL     1       2.803   2.708  17.580  0.00  0.00    +0.000 A 
ATOM      7  F   UNL     1       2.168   1.641  17.080  0.00  0.00    +0.000 F 
ATOM      8  C   UNL     1       3.662   3.439  16.746  0.00  0.00    +0.000 A 
ATOM      9  C   UNL     1       4.296   4.615  17.198  0.00  0.00    +0.000 A 
ATOM     10  C   UNL     1       2.723   5.138  20.431  0.00  0.00    +0.000 C 
ATOM     11  O   UNL     1       1.964   4.787  21.314  0.00  0.00    +0.000 OA
ENDROOT
BRANCH   1  16
ATOM     12  C   UNL     1       0.933   9.347  19.784  0.00  0.00    +0.000 A 
ATOM     13  C   UNL     1       1.466   9.818  18.578  0.00  0.00    +0.000 A 
ATOM     14  C   UNL     1       2.144   8.967  17.707  0.00  0.00    +0.000 A 
ATOM     15  C   UNL     1       2.420   7.663  18.095  0.00  0.00    +0.000 A 
ATOM     16  C   UNL     1       2.175   7.285  19.420  0.00  0.00    +0.000 A 
ATOM     17  C   UNL     1       1.300   8.057  20.201  0.00  0.00    +0.000 A 
BRANCH  12  24
ATOM     18  C   UNL     1      -1.805  12.022  21.916  0.00  0.00    +0.000 C 
ATOM     19  N   UNL     1      -0.424  12.274  21.609  0.00  0.00    +0.000 N 
ATOM     20  C   UNL     1       0.218  13.460  21.811  0.00  0.00    +0.000 A 
ATOM     21  N   UNL     1       1.450  13.372  21.385  0.00  0.00    +0.000 NA
ATOM     22  N   UNL     1       1.618  12.091  20.887  0.00  0.00    +0.000 NA
ATOM     23  C   UNL     1       0.484  11.435  21.013  0.00  0.00    +0.000 A 
ATOM     24  N   UNL     1       0.183  10.164  20.663  0.00  0.00    +0.000 N 
ATOM     25  H   UNL     1      -0.697   9.737  20.926  0.00  0.00    +0.000 HD
ENDBRANCH  12  24
ENDBRANCH   1  16
BRANCH   9  26
ATOM     26  C   UNL     1       5.123   5.421  16.229  0.00  0.00    +0.000 C 
ATOM     27  F   UNL     1       4.649   6.676  16.004  0.00  0.00    +0.000 F 
ATOM     28  F   UNL     1       6.399   5.588  16.672  0.00  0.00    +0.000 F 
ATOM     29  F   UNL     1       5.223   4.829  15.014  0.00  0.00    +0.000 F 
ENDBRANCH   9  26
TORSDOF 3
ENDMDL
MODEL 9
REMARK VINA RESULT:      -8.2      2.085      2.997
REMARK  Name = 
REMARK  4 active torsions:
REMARK  status: ('A' for Active; 'I' for Inactive)
REMARK    1  A    between atoms: C_1  and  N_2
REMARK    2  A    between atoms: N_7  and  C_8
REMARK    3  A    between atoms: C_12  and  N_13
REMARK    4  A    between atoms: C_21  and  C_22
REMARK                            x       y       z     vdW  Elec       q    Type
REMARK                         _______ _______ _______ _____ _____    ______ ____
ROOT
ATOM      1  N   UNL     1       3.156   6.284  20.161  0.00  0.00    +0.000 N 
ATOM      2  C   UNL     1       4.350   6.063  19.309  0.00  0.00    +0.000 C 
ATOM      3  C   UNL     1       3.985   4.817  18.561  0.00  0.00    +0.000 A 
ATOM      4  C   UNL     1       3.084   4.100  19.357  0.00  0.00    +0.000 A 
ATOM      5  C   UNL     1       2.426   2.969  18.917  0.00  0.00    +0.000 A 
ATOM      6  C   UNL     1       2.690   2.565  17.613  0.00  0.00    +0.000 A 
ATOM      7  F   UNL     1       2.023   1.523  17.104  0.00  0.00    +0.000 F 
ATOM      8  C   UNL     1       3.578   3.272  16.789  0.00  0.00    +0.000 A 
ATOM      9  C   UNL     1       4.248   4.423  17.250  0.00  0.00    +0.000 A 
ATOM     10  C   UNL     1       2.672   4.984  20.476  0.00  0.00    +0.000 C 
ATOM     11  O   UNL     1       1.897   4.653  21.353  0.00  0.00    +0.000 OA
ENDROOT
BRANCH   1  16
ATOM     12  C   UNL     1       1.189   9.350  19.739  0.00  0.00    +0.000 A 
ATOM     13  C   UNL     1       1.672   9.667  18.463  0.00  0.00    +0.000 A 
ATOM     14  C   UNL     1       2.200   8.687  17.625  0.00  0.00    +0.000 A 
ATOM     15  C   UNL     1       2.382   7.397  18.106  0.00  0.00    +0.000 A 
ATOM     16  C   UNL     1       2.203   7.152  19.472  0.00  0.00    +0.000 A 
ATOM     17  C   UNL     1       1.466   8.067  20.240  0.00  0.00    +0.000 A 
BRANCH  12  24
ATOM     18  C   UNL     1      -0.977  11.725  22.715  0.00  0.00    +0.000 C 
ATOM     19  N   UNL     1      -1.245  11.665  21.304  0.00  0.00    +0.000 N 
ATOM     20  C   UNL     1      -2.320  12.234  20.688  0.00  0.00    +0.000 A 
ATOM     21  N   UNL     1      -2.294  11.956  19.412  0.00  0.00    +0.000 NA
ATOM     22  N   UNL     1      -1.170  11.178  19.188  0.00  0.00    +0.000 NA
ATOM     23  C   UNL     1      -0.545  10.995  20.332  0.00  0.00    +0.000 A 
ATOM     24  N   UNL     1       0.588  10.304  20.591  0.00  0.00    +0.000 N 
ATOM     25  H   UNL     1       1.033  10.342  21.500  0.00  0.00    +0.000 HD
ENDBRANCH  12  24
ENDBRANCH   1  16
BRANCH   9  26
ATOM     26  C   UNL     1       5.107   5.206  16.291  0.00  0.00    +0.000 C 
ATOM     27  F   UNL     1       4.672   6.474  16.061  0.00  0.00    +0.000 F 
ATOM     28  F   UNL     1       6.383   5.336  16.747  0.00  0.00    +0.000 F 
ATOM     29  F   UNL     1       5.203   4.612  15.076  0.00  0.00    +0.000 F 
ENDBRANCH   9  26
TORSDOF 3
ENDMDL
