MODEL 1
REMARK VINA RESULT:      -9.4      0.000      0.000
REMARK  Name = 
REMARK  2 active torsions:
REMARK  status: ('A' for Active; 'I' for Inactive)
REMARK    1  A    between atoms: C_2  and  C_18
REMARK    2  A    between atoms: N_12  and  C_13
REMARK                            x       y       z     vdW  Elec       q    Type
REMARK                         _______ _______ _______ _____ _____    ______ ____
ROOT
ATOM      1  O   UNL     1       1.696   7.927  20.695  0.00  0.00    +0.000 OA
ATOM      2  C   UNL     1       1.423   8.423  19.610  0.00  0.00    +0.000 C 
ATOM      3  N   UNL     1       1.890   8.088  18.359  0.00  0.00    +0.000 N 
ATOM      4  C   UNL     1       2.977   7.272  18.194  0.00  0.00    +0.000 A 
ATOM      5  N   UNL     1       3.958   7.595  17.383  0.00  0.00    +0.000 NA
ATOM      6  C   UNL     1       4.855   6.564  17.461  0.00  0.00    +0.000 A 
ATOM      7  C   UNL     1       6.103   6.427  16.834  0.00  0.00    +0.000 A 
ATOM      8  C   UNL     1       6.825   5.243  17.019  0.00  0.00    +0.000 A 
ATOM      9  C   UNL     1       6.309   4.210  17.800  0.00  0.00    +0.000 A 
ATOM     10  C   UNL     1       5.069   4.336  18.437  0.00  0.00    +0.000 A 
ATOM     11  C   UNL     1       4.367   5.538  18.266  0.00  0.00    +0.000 A 
ATOM     12  N   UNL     1       3.153   6.013  18.731  0.00  0.00    +0.000 N 
ATOM     13  H   UNL     1       1.841   8.851  17.687  0.00  0.00    +0.000 HD
ENDROOT
BRANCH   2  14
ATOM     14  C   UNL     1       0.582   9.698  19.545  0.00  0.00    +0.000 A 
ATOM     15  N   UNL     1       0.552  10.285  18.378  0.00  0.00    +0.000 NA
ATOM     16  N   UNL     1       0.098  11.568  18.340  0.00  0.00    +0.000 N 
ATOM     17  C   UNL     1       0.056  12.375  19.459  0.00  0.00    +0.000 A 
ATOM     18  O   UNL     1       0.102  13.592  19.398  0.00  0.00    +0.000 OA
ATOM     19  C   UNL     1      -0.145  11.669  20.738  0.00  0.00    +0.000 A 
ATOM     20  C   UNL     1      -0.563  12.363  21.873  0.00  0.00    +0.000 A 
ATOM     21  C   UNL     1      -0.948  11.645  23.004  0.00  0.00    +0.000 A 
ATOM     22  C   UNL     1      -0.918  10.248  22.992  0.00  0.00    +0.000 A 
ATOM     23  C   UNL     1      -0.432   9.561  21.873  0.00  0.00    +0.000 A 
ATOM     24  C   UNL     1      -0.011  10.286  20.755  0.00  0.00    +0.000 A 
ATOM     25  H   UNL     1       0.201  12.047  17.450  0.00  0.00    +0.000 HD
ENDBRANCH   2  14
BRANCH  12  26
ATOM     26  C   UNL     1       2.159   5.251  19.455  0.00  0.00    +0.000 C 
ATOM     27  C   UNL     1       2.638   4.627  20.765  0.00  0.00    +0.000 C 
ATOM     28  C   UNL     1       1.733   3.420  20.994  0.00  0.00    +0.000 C 
ATOM     29  C   UNL     1       0.937   3.199  19.709  0.00  0.00    +0.000 C 
ATOM     30  C   UNL     1       1.554   4.102  18.654  0.00  0.00    +0.000 C 
ENDBRANCH  12  26
TORSDOF 2
ENDMDL
MODEL 2
REMARK VINA RESULT:      -9.1      2.052      4.012
REMARK  Name = 
REMARK  2 active torsions:
REMARK  status: ('A' for Active; 'I' for Inactive)
REMARK    1  A    between atoms: C_2  and  C_18
REMARK    2  A    between atoms: N_12  and  C_13
REMARK                            x       y       z     vdW  Elec       q    Type
REMARK                         _______ _______ _______ _____ _____    ______ ____
ROOT
ATOM      1  O   UNL     1       1.990   8.330  18.956  0.00  0.00    +0.000 OA
ATOM      2  C   UNL     1       1.799   8.093  20.141  0.00  0.00    +0.000 C 
ATOM      3  N   UNL     1       1.886   6.894  20.813  0.00  0.00    +0.000 N 
ATOM      4  C   UNL     1       1.956   5.701  20.145  0.00  0.00    +0.000 A 
ATOM      5  N   UNL     1       1.186   4.689  20.469  0.00  0.00    +0.000 NA
ATOM      6  C   UNL     1       1.525   3.677  19.612  0.00  0.00    +0.000 A 
ATOM      7  C   UNL     1       0.972   2.392  19.495  0.00  0.00    +0.000 A 
ATOM      8  C   UNL     1       1.531   1.499  18.575  0.00  0.00    +0.000 A 
ATOM      9  C   UNL     1       2.627   1.870  17.798  0.00  0.00    +0.000 A 
ATOM     10  C   UNL     1       3.184   3.150  17.899  0.00  0.00    +0.000 A 
ATOM     11  C   UNL     1       2.598   4.047  18.805  0.00  0.00    +0.000 A 
ATOM     12  N   UNL     1       2.863   5.357  19.163  0.00  0.00    +0.000 N 
ATOM     13  H   UNL     1       1.324   6.860  21.661  0.00  0.00    +0.000 HD
ENDROOT
BRANCH   2  14
ATOM     14  C   UNL     1       1.226   9.178  21.052  0.00  0.00    +0.000 A 
ATOM     15  N   UNL     1       1.204   8.881  22.325  0.00  0.00    +0.000 NA
ATOM     16  N   UNL     1       0.425   9.655  23.130  0.00  0.00    +0.000 N 
ATOM     17  C   UNL     1      -0.604  10.435  22.642  0.00  0.00    +0.000 A 
ATOM     18  O   UNL     1      -1.567  10.756  23.318  0.00  0.00    +0.000 OA
ATOM     19  C   UNL     1      -0.416  10.937  21.268  0.00  0.00    +0.000 A 
ATOM     20  C   UNL     1      -1.177  12.005  20.794  0.00  0.00    +0.000 A 
ATOM     21  C   UNL     1      -0.836  12.594  19.578  0.00  0.00    +0.000 A 
ATOM     22  C   UNL     1       0.259  12.119  18.851  0.00  0.00    +0.000 A 
ATOM     23  C   UNL     1       0.976  11.003  19.301  0.00  0.00    +0.000 A 
ATOM     24  C   UNL     1       0.606  10.392  20.501  0.00  0.00    +0.000 A 
ATOM     25  H   UNL     1       0.322   9.332  24.088  0.00  0.00    +0.000 HD
ENDBRANCH   2  14
BRANCH  12  26
ATOM     26  C   UNL     1       4.008   6.140  18.752  0.00  0.00    +0.000 C 
ATOM     27  C   UNL     1       4.085   6.453  17.258  0.00  0.00    +0.000 C 
ATOM     28  C   UNL     1       5.567   6.666  16.965  0.00  0.00    +0.000 C 
ATOM     29  C   UNL     1       6.344   6.216  18.200  0.00  0.00    +0.000 C 
ATOM     30  C   UNL     1       5.351   5.506  19.104  0.00  0.00    +0.000 C 
ENDBRANCH  12  26
TORSDOF 2
ENDMDL
MODEL 3
REMARK VINA RESULT:      -9.0      1.612      2.233
REMARK  Name = 
REMARK  2 active torsions:
REMARK  status: ('A' for Active; 'I' for Inactive)
REMARK    1  A    between atoms: C_2  and  C_18
REMARK    2  A    between atoms: N_12  and  C_13
REMARK                            x       y       z     vdW  Elec       q    Type
REMARK                         _______ _______ _______ _____ _____    ______ ____
ROOT
ATOM      1  O   UNL     1       1.675   8.141  20.650  0.00  0.00    +0.000 OA
ATOM      2  C   UNL     1       1.435   8.718  19.599  0.00  0.00    +0.000 C 
ATOM      3  N   UNL     1       1.879   8.428  18.328  0.00  0.00    +0.000 N 
ATOM      4  C   UNL     1       2.910   7.555  18.110  0.00  0.00    +0.000 A 
ATOM      5  N   UNL     1       3.910   7.860  17.316  0.00  0.00    +0.000 NA
ATOM      6  C   UNL     1       4.738   6.770  17.329  0.00  0.00    +0.000 A 
ATOM      7  C   UNL     1       5.975   6.589  16.689  0.00  0.00    +0.000 A 
ATOM      8  C   UNL     1       6.617   5.351  16.801  0.00  0.00    +0.000 A 
ATOM      9  C   UNL     1       6.034   4.310  17.521  0.00  0.00    +0.000 A 
ATOM     10  C   UNL     1       4.806   4.478  18.170  0.00  0.00    +0.000 A 
ATOM     11  C   UNL     1       4.184   5.732  18.073  0.00  0.00    +0.000 A 
ATOM     12  N   UNL     1       3.004   6.257  18.570  0.00  0.00    +0.000 N 
ATOM     13  H   UNL     1       1.881   9.232  17.702  0.00  0.00    +0.000 HD
ENDROOT
BRANCH   2  14
ATOM     14  C   UNL     1       0.680  10.047  19.613  0.00  0.00    +0.000 A 
ATOM     15  N   UNL     1       1.100  10.916  20.494  0.00  0.00    +0.000 NA
ATOM     16  N   UNL     1       0.278  11.966  20.771  0.00  0.00    +0.000 N 
ATOM     17  C   UNL     1      -1.073  11.947  20.492  0.00  0.00    +0.000 A 
ATOM     18  O   UNL     1      -1.884  12.620  21.105  0.00  0.00    +0.000 OA
ATOM     19  C   UNL     1      -1.465  11.123  19.332  0.00  0.00    +0.000 A 
ATOM     20  C   UNL     1      -2.710  11.296  18.728  0.00  0.00    +0.000 A 
ATOM     21  C   UNL     1      -2.970  10.661  17.515  0.00  0.00    +0.000 A 
ATOM     22  C   UNL     1      -1.989   9.866  16.915  0.00  0.00    +0.000 A 
ATOM     23  C   UNL     1      -0.767   9.642  17.562  0.00  0.00    +0.000 A 
ATOM     24  C   UNL     1      -0.526  10.250  18.797  0.00  0.00    +0.000 A 
ATOM     25  H   UNL     1       0.564  12.558  21.546  0.00  0.00    +0.000 HD
ENDBRANCH   2  14
BRANCH  12  26
ATOM     26  C   UNL     1       1.962   5.520  19.251  0.00  0.00    +0.000 C 
ATOM     27  C   UNL     1       2.322   5.014  20.648  0.00  0.00    +0.000 C 
ATOM     28  C   UNL     1       1.430   3.799  20.881  0.00  0.00    +0.000 C 
ATOM     29  C   UNL     1       0.774   3.453  19.547  0.00  0.00    +0.000 C 
ATOM     30  C   UNL     1       1.471   4.292  18.489  0.00  0.00    +0.000 C 
ENDBRANCH  12  26
TORSDOF 2
ENDMDL
MODEL 4
REMARK VINA RESULT:      -8.7      1.548      3.469
REMARK  Name = 
REMARK  2 active torsions:
REMARK  status: ('A' for Active; 'I' for Inactive)
REMARK    1  A    between atoms: C_2  and  C_18
REMARK    2  A    between atoms: N_12  and  C_13
REMARK                            x       y       z     vdW  Elec       q    Type
REMARK                         _______ _______ _______ _____ _____    ______ ____
ROOT
ATOM      1  O   UNL     1       2.552   8.173  17.231  0.00  0.00    +0.000 OA
ATOM      2  C   UNL     1       2.229   8.317  18.402  0.00  0.00    +0.000 C 
ATOM      3  N   UNL     1       2.263   7.402  19.431  0.00  0.00    +0.000 N 
ATOM      4  C   UNL     1       2.437   6.065  19.196  0.00  0.00    +0.000 A 
ATOM      5  N   UNL     1       1.657   5.165  19.750  0.00  0.00    +0.000 NA
ATOM      6  C   UNL     1       2.117   3.955  19.306  0.00  0.00    +0.000 A 
ATOM      7  C   UNL     1       1.610   2.669  19.556  0.00  0.00    +0.000 A 
ATOM      8  C   UNL     1       2.291   1.564  19.037  0.00  0.00    +0.000 A 
ATOM      9  C   UNL     1       3.462   1.731  18.300  0.00  0.00    +0.000 A 
ATOM     10  C   UNL     1       3.975   3.007  18.037  0.00  0.00    +0.000 A 
ATOM     11  C   UNL     1       3.268   4.109  18.539  0.00  0.00    +0.000 A 
ATOM     12  N   UNL     1       3.460   5.479  18.478  0.00  0.00    +0.000 N 
ATOM     13  H   UNL     1       1.607   7.608  20.182  0.00  0.00    +0.000 HD
ENDROOT
BRANCH   2  14
ATOM     14  C   UNL     1       1.529   9.600  18.848  0.00  0.00    +0.000 A 
ATOM     15  N   UNL     1       1.743  10.642  18.089  0.00  0.00    +0.000 NA
ATOM     16  N   UNL     1       1.420  11.862  18.603  0.00  0.00    +0.000 N 
ATOM     17  C   UNL     1       1.271  12.081  19.957  0.00  0.00    +0.000 A 
ATOM     18  O   UNL     1       1.438  13.175  20.472  0.00  0.00    +0.000 OA
ATOM     19  C   UNL     1       0.801  10.920  20.736  0.00  0.00    +0.000 A 
ATOM     20  C   UNL     1       0.269  11.091  22.013  0.00  0.00    +0.000 A 
ATOM     21  C   UNL     1      -0.359  10.015  22.637  0.00  0.00    +0.000 A 
ATOM     22  C   UNL     1      -0.455   8.783  21.983  0.00  0.00    +0.000 A 
ATOM     23  C   UNL     1       0.142   8.601  20.729  0.00  0.00    +0.000 A 
ATOM     24  C   UNL     1       0.804   9.673  20.125  0.00  0.00    +0.000 A 
ATOM     25  H   UNL     1       1.710  12.664  18.051  0.00  0.00    +0.000 HD
ENDBRANCH   2  14
BRANCH  12  26
ATOM     26  C   UNL     1       4.628   6.155  17.956  0.00  0.00    +0.000 C 
ATOM     27  C   UNL     1       4.931   5.895  16.481  0.00  0.00    +0.000 C 
ATOM     28  C   UNL     1       6.432   6.121  16.330  0.00  0.00    +0.000 C 
ATOM     29  C   UNL     1       7.018   6.237  17.735  0.00  0.00    +0.000 C 
ATOM     30  C   UNL     1       5.919   5.825  18.701  0.00  0.00    +0.000 C 
ENDBRANCH  12  26
TORSDOF 2
ENDMDL
MODEL 5
REMARK VINA RESULT:      -8.6      1.858      2.432
REMARK  Name = 
REMARK  2 active torsions:
REMARK  status: ('A' for Active; 'I' for Inactive)
REMARK    1  A    between atoms: C_2  and  C_18
REMARK    2  A    between atoms: N_12  and  C_13
REMARK                            x       y       z     vdW  Elec       q    Type
REMARK                         _______ _______ _______ _____ _____    ______ ____
ROOT
ATOM      1  O   UNL     1       2.199   6.583  21.133  0.00  0.00    +0.000 OA
ATOM      2  C   UNL     1       1.836   7.502  20.413  0.00  0.00    +0.000 C 
ATOM      3  N   UNL     1       2.006   7.660  19.055  0.00  0.00    +0.000 N 
ATOM      4  C   UNL     1       2.877   6.878  18.345  0.00  0.00    +0.000 A 
ATOM      5  N   UNL     1       3.743   7.403  17.509  0.00  0.00    +0.000 NA
ATOM      6  C   UNL     1       4.434   6.346  16.981  0.00  0.00    +0.000 A 
ATOM      7  C   UNL     1       5.506   6.352  16.074  0.00  0.00    +0.000 A 
ATOM      8  C   UNL     1       6.017   5.130  15.626  0.00  0.00    +0.000 A 
ATOM      9  C   UNL     1       5.464   3.926  16.059  0.00  0.00    +0.000 A 
ATOM     10  C   UNL     1       4.401   3.904  16.968  0.00  0.00    +0.000 A 
ATOM     11  C   UNL     1       3.914   5.135  17.432  0.00  0.00    +0.000 A 
ATOM     12  N   UNL     1       2.909   5.499  18.312  0.00  0.00    +0.000 N 
ATOM     13  H   UNL     1       1.982   8.631  18.751  0.00  0.00    +0.000 HD
ENDROOT
BRANCH   2  14
ATOM     14  C   UNL     1       1.247   8.769  21.030  0.00  0.00    +0.000 A 
ATOM     15  N   UNL     1       1.392   8.876  22.325  0.00  0.00    +0.000 NA
ATOM     16  N   UNL     1       0.622   9.801  22.962  0.00  0.00    +0.000 N 
ATOM     17  C   UNL     1      -0.531  10.317  22.407  0.00  0.00    +0.000 A 
ATOM     18  O   UNL     1      -1.447  10.759  23.080  0.00  0.00    +0.000 OA
ATOM     19  C   UNL     1      -0.545  10.386  20.934  0.00  0.00    +0.000 A 
ATOM     20  C   UNL     1      -1.464  11.199  20.271  0.00  0.00    +0.000 A 
ATOM     21  C   UNL     1      -1.319  11.410  18.901  0.00  0.00    +0.000 A 
ATOM     22  C   UNL     1      -0.261  10.816  18.208  0.00  0.00    +0.000 A 
ATOM     23  C   UNL     1       0.616   9.947  18.867  0.00  0.00    +0.000 A 
ATOM     24  C   UNL     1       0.444   9.707  20.233  0.00  0.00    +0.000 A 
ATOM     25  H   UNL     1       0.657   9.780  23.978  0.00  0.00    +0.000 HD
ENDBRANCH   2  14
BRANCH  12  26
ATOM     26  C   UNL     1       1.934   4.611  18.908  0.00  0.00    +0.000 C 
ATOM     27  C   UNL     1       2.471   3.685  19.998  0.00  0.00    +0.000 C 
ATOM     28  C   UNL     1       1.535   2.480  20.003  0.00  0.00    +0.000 C 
ATOM     29  C   UNL     1       0.651   2.586  18.763  0.00  0.00    +0.000 C 
ATOM     30  C   UNL     1       1.234   3.697  17.906  0.00  0.00    +0.000 C 
ENDBRANCH  12  26
TORSDOF 2
ENDMDL
MODEL 6
REMARK VINA RESULT:      -8.6      1.856      2.148
REMARK  Name = 
REMARK  2 active torsions:
REMARK  status: ('A' for Active; 'I' for Inactive)
REMARK    1  A    between atoms: C_2  and  C_18
REMARK    2  A    between atoms: N_12  and  C_13
REMARK                            x       y       z     vdW  Elec       q    Type
REMARK                         _______ _______ _______ _____ _____    ______ ____
ROOT
ATOM      1  O   UNL     1       1.679   8.493  19.741  0.00  0.00    +0.000 OA
ATOM      2  C   UNL     1       1.717   8.959  18.611  0.00  0.00    +0.000 C 
ATOM      3  N   UNL     1       2.423   8.519  17.513  0.00  0.00    +0.000 N 
ATOM      4  C   UNL     1       3.428   7.597  17.629  0.00  0.00    +0.000 A 
ATOM      5  N   UNL     1       4.598   7.784  17.063  0.00  0.00    +0.000 NA
ATOM      6  C   UNL     1       5.340   6.677  17.376  0.00  0.00    +0.000 A 
ATOM      7  C   UNL     1       6.678   6.391  17.063  0.00  0.00    +0.000 A 
ATOM      8  C   UNL     1       7.210   5.155  17.443  0.00  0.00    +0.000 A 
ATOM      9  C   UNL     1       6.423   4.215  18.106  0.00  0.00    +0.000 A 
ATOM     10  C   UNL     1       5.089   4.490  18.432  0.00  0.00    +0.000 A 
ATOM     11  C   UNL     1       4.575   5.743  18.070  0.00  0.00    +0.000 A 
ATOM     12  N   UNL     1       3.343   6.355  18.224  0.00  0.00    +0.000 N 
ATOM     13  H   UNL     1       2.610   9.250  16.829  0.00  0.00    +0.000 HD
ENDROOT
BRANCH   2  14
ATOM     14  C   UNL     1       1.051  10.303  18.318  0.00  0.00    +0.000 A 
ATOM     15  N   UNL     1       1.842  11.341  18.386  0.00  0.00    +0.000 NA
ATOM     16  N   UNL     1       1.252  12.567  18.454  0.00  0.00    +0.000 N 
ATOM     17  C   UNL     1      -0.060  12.740  18.846  0.00  0.00    +0.000 A 
ATOM     18  O   UNL     1      -0.469  13.774  19.346  0.00  0.00    +0.000 OA
ATOM     19  C   UNL     1      -0.965  11.618  18.532  0.00  0.00    +0.000 A 
ATOM     20  C   UNL     1      -2.347  11.799  18.537  0.00  0.00    +0.000 A 
ATOM     21  C   UNL     1      -3.165  10.789  18.034  0.00  0.00    +0.000 A 
ATOM     22  C   UNL     1      -2.601   9.615  17.527  0.00  0.00    +0.000 A 
ATOM     23  C   UNL     1      -1.216   9.413  17.589  0.00  0.00    +0.000 A 
ATOM     24  C   UNL     1      -0.403  10.412  18.131  0.00  0.00    +0.000 A 
ATOM     25  H   UNL     1       1.877  13.348  18.634  0.00  0.00    +0.000 HD
ENDBRANCH   2  14
BRANCH  12  26
ATOM     26  C   UNL     1       2.134   5.727  18.714  0.00  0.00    +0.000 C 
ATOM     27  C   UNL     1       2.146   5.348  20.194  0.00  0.00    +0.000 C 
ATOM     28  C   UNL     1       1.155   4.195  20.324  0.00  0.00    +0.000 C 
ATOM     29  C   UNL     1       0.792   3.746  18.911  0.00  0.00    +0.000 C 
ATOM     30  C   UNL     1       1.754   4.450  17.969  0.00  0.00    +0.000 C 
ENDBRANCH  12  26
TORSDOF 2
ENDMDL
MODEL 7
REMARK VINA RESULT:      -8.5      2.010      3.878
REMARK  Name = 
REMARK  2 active torsions:
REMARK  status: ('A' for Active; 'I' for Inactive)
REMARK    1  A    between atoms: C_2  and  C_18
REMARK    2  A    between atoms: N_12  and  C_13
REMARK                            x       y       z     vdW  Elec       q    Type
REMARK                         _______ _______ _______ _____ _____    ______ ____
ROOT
ATOM      1  O   UNL     1       2.148   8.254  17.092  0.00  0.00    +0.000 OA
ATOM      2  C   UNL     1       2.007   8.771  18.191  0.00  0.00    +0.000 C 
ATOM      3  N   UNL     1       2.187   8.219  19.440  0.00  0.00    +0.000 N 
ATOM      4  C   UNL     1       2.309   6.867  19.615  0.00  0.00    +0.000 A 
ATOM      5  N   UNL     1       1.612   6.229  20.527  0.00  0.00    +0.000 NA
ATOM      6  C   UNL     1       1.987   4.916  20.426  0.00  0.00    +0.000 A 
ATOM      7  C   UNL     1       1.510   3.802  21.135  0.00  0.00    +0.000 A 
ATOM      8  C   UNL     1       2.093   2.553  20.900  0.00  0.00    +0.000 A 
ATOM      9  C   UNL     1       3.140   2.417  19.991  0.00  0.00    +0.000 A 
ATOM     10  C   UNL     1       3.621   3.517  19.272  0.00  0.00    +0.000 A 
ATOM     11  C   UNL     1       3.010   4.759  19.495  0.00  0.00    +0.000 A 
ATOM     12  N   UNL     1       3.205   6.030  18.982  0.00  0.00    +0.000 N 
ATOM     13  H   UNL     1       1.654   8.684  20.173  0.00  0.00    +0.000 HD
ENDROOT
BRANCH   2  14
ATOM     14  C   UNL     1       1.397  10.168  18.305  0.00  0.00    +0.000 A 
ATOM     15  N   UNL     1       2.239  11.118  18.616  0.00  0.00    +0.000 NA
ATOM     16  N   UNL     1       1.712  12.300  19.042  0.00  0.00    +0.000 N 
ATOM     17  C   UNL     1       0.424  12.407  19.527  0.00  0.00    +0.000 A 
ATOM     18  O   UNL     1       0.083  13.280  20.308  0.00  0.00    +0.000 OA
ATOM     19  C   UNL     1      -0.544  11.447  18.964  0.00  0.00    +0.000 A 
ATOM     20  C   UNL     1      -1.915  11.671  19.082  0.00  0.00    +0.000 A 
ATOM     21  C   UNL     1      -2.798  10.868  18.363  0.00  0.00    +0.000 A 
ATOM     22  C   UNL     1      -2.309   9.856  17.531  0.00  0.00    +0.000 A 
ATOM     23  C   UNL     1      -0.935   9.595  17.471  0.00  0.00    +0.000 A 
ATOM     24  C   UNL     1      -0.056  10.377  18.224  0.00  0.00    +0.000 A 
ATOM     25  H   UNL     1       2.379  12.978  19.397  0.00  0.00    +0.000 HD
ENDBRANCH   2  14
BRANCH  12  26
ATOM     26  C   UNL     1       4.288   6.443  18.115  0.00  0.00    +0.000 C 
ATOM     27  C   UNL     1       4.311   5.786  16.736  0.00  0.00    +0.000 C 
ATOM     28  C   UNL     1       5.769   5.832  16.289  0.00  0.00    +0.000 C 
ATOM     29  C   UNL     1       6.601   6.255  17.497  0.00  0.00    +0.000 C 
ATOM     30  C   UNL     1       5.676   6.205  18.702  0.00  0.00    +0.000 C 
ENDBRANCH  12  26
TORSDOF 2
ENDMDL
MODEL 8
REMARK VINA RESULT:      -8.0      1.958      3.952
REMARK  Name = 
REMARK  2 active torsions:
REMARK  status: ('A' for Active; 'I' for Inactive)
REMARK    1  A    between atoms: C_2  and  C_18
REMARK    2  A    between atoms: N_12  and  C_13
REMARK                            x       y       z     vdW  Elec       q    Type
REMARK                         _______ _______ _______ _____ _____    ______ ____
ROOT
ATOM      1  O   UNL     1       2.194   8.263  17.569  0.00  0.00    +0.000 OA
ATOM      2  C   UNL     1       1.905   8.415  18.748  0.00  0.00    +0.000 C 
ATOM      3  N   UNL     1       1.976   7.511  19.784  0.00  0.00    +0.000 N 
ATOM      4  C   UNL     1       2.151   6.172  19.556  0.00  0.00    +0.000 A 
ATOM      5  N   UNL     1       1.393   5.273  20.141  0.00  0.00    +0.000 NA
ATOM      6  C   UNL     1       1.847   4.061  19.695  0.00  0.00    +0.000 A 
ATOM      7  C   UNL     1       1.355   2.775  19.971  0.00  0.00    +0.000 A 
ATOM      8  C   UNL     1       2.028   1.669  19.443  0.00  0.00    +0.000 A 
ATOM      9  C   UNL     1       3.175   1.836  18.670  0.00  0.00    +0.000 A 
ATOM     10  C   UNL     1       3.672   3.112  18.380  0.00  0.00    +0.000 A 
ATOM     11  C   UNL     1       2.974   4.216  18.892  0.00  0.00    +0.000 A 
ATOM     12  N   UNL     1       3.155   5.586  18.814  0.00  0.00    +0.000 N 
ATOM     13  H   UNL     1       1.340   7.719  20.552  0.00  0.00    +0.000 HD
ENDROOT
BRANCH   2  14
ATOM     14  C   UNL     1       1.211   9.699  19.203  0.00  0.00    +0.000 A 
ATOM     15  N   UNL     1       1.816  10.347  20.163  0.00  0.00    +0.000 NA
ATOM     16  N   UNL     1       1.095  11.299  20.819  0.00  0.00    +0.000 N 
ATOM     17  C   UNL     1      -0.284  11.332  20.800  0.00  0.00    +0.000 A 
ATOM     18  O   UNL     1      -0.945  11.840  21.690  0.00  0.00    +0.000 OA
ATOM     19  C   UNL     1      -0.911  10.792  19.579  0.00  0.00    +0.000 A 
ATOM     20  C   UNL     1      -2.238  11.088  19.272  0.00  0.00    +0.000 A 
ATOM     21  C   UNL     1      -2.738  10.745  18.018  0.00  0.00    +0.000 A 
ATOM     22  C   UNL     1      -1.912  10.117  17.081  0.00  0.00    +0.000 A 
ATOM     23  C   UNL     1      -0.601   9.762  17.421  0.00  0.00    +0.000 A 
ATOM     24  C   UNL     1      -0.117  10.073  18.694  0.00  0.00    +0.000 A 
ATOM     25  H   UNL     1       1.539  11.700  21.640  0.00  0.00    +0.000 HD
ENDBRANCH   2  14
BRANCH  12  26
ATOM     26  C   UNL     1       4.303   6.263  18.251  0.00  0.00    +0.000 C 
ATOM     27  C   UNL     1       4.501   6.078  16.747  0.00  0.00    +0.000 C 
ATOM     28  C   UNL     1       5.994   6.279  16.508  0.00  0.00    +0.000 C 
ATOM     29  C   UNL     1       6.674   6.306  17.874  0.00  0.00    +0.000 C 
ATOM     30  C   UNL     1       5.631   5.866  18.888  0.00  0.00    +0.000 C 
ENDBRANCH  12  26
TORSDOF 2
ENDMDL
MODEL 9
REMARK VINA RESULT:      -8.0      1.732      2.332
REMARK  Name = 
REMARK  2 active torsions:
REMARK  status: ('A' for Active; 'I' for Inactive)
REMARK    1  A    between atoms: C_2  and  C_18
REMARK    2  A    between atoms: N_12  and  C_13
REMARK                            x       y       z     vdW  Elec       q    Type
REMARK                         _______ _______ _______ _____ _____    ______ ____
ROOT
ATOM      1  O   UNL     1       2.036   7.351  21.561  0.00  0.00    +0.000 OA
ATOM      2  C   UNL     1       1.543   8.156  20.783  0.00  0.00    +0.000 C 
ATOM      3  N   UNL     1       1.597   8.180  19.407  0.00  0.00    +0.000 N 
ATOM      4  C   UNL     1       2.476   7.395  18.710  0.00  0.00    +0.000 A 
ATOM      5  N   UNL     1       3.229   7.892  17.756  0.00  0.00    +0.000 NA
ATOM      6  C   UNL     1       3.966   6.841  17.282  0.00  0.00    +0.000 A 
ATOM      7  C   UNL     1       4.963   6.832  16.293  0.00  0.00    +0.000 A 
ATOM      8  C   UNL     1       5.542   5.612  15.930  0.00  0.00    +0.000 A 
ATOM      9  C   UNL     1       5.127   4.422  16.527  0.00  0.00    +0.000 A 
ATOM     10  C   UNL     1       4.140   4.417  17.519  0.00  0.00    +0.000 A 
ATOM     11  C   UNL     1       3.586   5.649  17.895  0.00  0.00    +0.000 A 
ATOM     12  N   UNL     1       2.623   6.027  18.814  0.00  0.00    +0.000 N 
ATOM     13  H   UNL     1       1.467   9.108  19.009  0.00  0.00    +0.000 HD
ENDROOT
BRANCH   2  14
ATOM     14  C   UNL     1       0.896   9.434  21.316  0.00  0.00    +0.000 A 
ATOM     15  N   UNL     1       0.511   9.382  22.564  0.00  0.00    +0.000 NA
ATOM     16  N   UNL     1      -0.346  10.352  22.990  0.00  0.00    +0.000 N 
ATOM     17  C   UNL     1      -1.108  11.105  22.120  0.00  0.00    +0.000 A 
ATOM     18  O   UNL     1      -2.164  11.621  22.444  0.00  0.00    +0.000 OA
ATOM     19  C   UNL     1      -0.512  11.325  20.789  0.00  0.00    +0.000 A 
ATOM     20  C   UNL     1      -0.985  12.341  19.960  0.00  0.00    +0.000 A 
ATOM     21  C   UNL     1      -0.271  12.664  18.807  0.00  0.00    +0.000 A 
ATOM     22  C   UNL     1       0.906  11.977  18.495  0.00  0.00    +0.000 A 
ATOM     23  C   UNL     1       1.336  10.913  19.296  0.00  0.00    +0.000 A 
ATOM     24  C   UNL     1       0.596  10.567  20.430  0.00  0.00    +0.000 A 
ATOM     25  H   UNL     1      -0.731  10.223  23.922  0.00  0.00    +0.000 HD
ENDBRANCH   2  14
BRANCH  12  26
ATOM     26  C   UNL     1       1.775   5.137  19.576  0.00  0.00    +0.000 C 
ATOM     27  C   UNL     1       2.430   4.490  20.795  0.00  0.00    +0.000 C 
ATOM     28  C   UNL     1       1.662   3.193  21.028  0.00  0.00    +0.000 C 
ATOM     29  C   UNL     1       0.770   2.968  19.810  0.00  0.00    +0.000 C 
ATOM     30  C   UNL     1       1.201   3.980  18.762  0.00  0.00    +0.000 C 
ENDBRANCH  12  26
TORSDOF 2
ENDMDL
