MODEL 1
REMARK VINA RESULT:      -8.3      0.000      0.000
REMARK  Name = 
REMARK  2 active torsions:
REMARK  status: ('A' for Active; 'I' for Inactive)
REMARK    1  A    between atoms: N_16  and  C_17
REMARK    2  A    between atoms: C_17  and  C_18
REMARK                            x       y       z     vdW  Elec       q    Type
REMARK                         _______ _______ _______ _____ _____    ______ ____
ROOT
ATOM      1  O   UNL     1       1.080   8.317  21.535  0.00  0.00    +0.000 OA
ATOM      2  C   UNL     1       1.526   8.136  20.413  0.00  0.00    +0.000 C 
ATOM      3  N   UNL     1       2.395   7.137  20.070  0.00  0.00    +0.000 N 
ATOM      4  C   UNL     1       2.666   7.117  18.642  0.00  0.00    +0.000 C 
ATOM      5  C   UNL     1       4.154   6.995  18.357  0.00  0.00    +0.000 C 
ATOM      6  C   UNL     1       4.687   5.562  18.535  0.00  0.00    +0.000 C 
ATOM      7  C   UNL     1       3.657   4.456  18.567  0.00  0.00    +0.000 A 
ATOM      8  C   UNL     1       4.051   3.159  18.934  0.00  0.00    +0.000 A 
ATOM      9  C   UNL     1       3.123   2.116  18.973  0.00  0.00    +0.000 A 
ATOM     10  C   UNL     1       1.795   2.351  18.627  0.00  0.00    +0.000 A 
ATOM     11  C   UNL     1       1.395   3.627  18.256  0.00  0.00    +0.000 A 
ATOM     12  C   UNL     1       2.315   4.682  18.243  0.00  0.00    +0.000 A 
ATOM     13  C   UNL     1       1.860   6.059  17.870  0.00  0.00    +0.000 C 
ATOM     14  C   UNL     1       2.043   8.472  18.243  0.00  0.00    +0.000 C 
ATOM     15  O   UNL     1       2.132   9.004  17.156  0.00  0.00    +0.000 OA
ATOM     16  N   UNL     1       1.290   8.896  19.309  0.00  0.00    +0.000 N 
ATOM     17  H   UNL     1       2.605   6.387  20.714  0.00  0.00    +0.000 HD
ENDROOT
BRANCH  16  18
ATOM     18  C   UNL     1       0.300   9.928  19.237  0.00  0.00    +0.000 C 
BRANCH  18  19
ATOM     19  C   UNL     1       0.850  11.231  19.866  0.00  0.00    +0.000 C 
ATOM     20  O   UNL     1       1.848  11.790  19.449  0.00  0.00    +0.000 OA
ATOM     21  N   UNL     1       0.101  11.655  20.955  0.00  0.00    +0.000 N 
ATOM     22  C   UNL     1      -1.187  11.077  21.416  0.00  0.00    +0.000 C 
ATOM     23  C   UNL     1      -1.258  11.485  22.870  0.00  0.00    +0.000 C 
ATOM     24  C   UNL     1      -0.713  12.860  22.710  0.00  0.00    +0.000 A 
ATOM     25  C   UNL     1      -1.110  14.027  23.327  0.00  0.00    +0.000 A 
ATOM     26  C   UNL     1      -0.524  15.217  22.896  0.00  0.00    +0.000 A 
ATOM     27  C   UNL     1       0.516  15.204  21.946  0.00  0.00    +0.000 A 
ATOM     28  C   UNL     1       0.921  14.013  21.331  0.00  0.00    +0.000 A 
ATOM     29  C   UNL     1       0.224  12.873  21.658  0.00  0.00    +0.000 A 
ENDBRANCH  18  19
ENDBRANCH  16  18
TORSDOF 2
ENDMDL
MODEL 2
REMARK VINA RESULT:      -8.1      1.677      2.153
REMARK  Name = 
REMARK  2 active torsions:
REMARK  status: ('A' for Active; 'I' for Inactive)
REMARK    1  A    between atoms: N_16  and  C_17
REMARK    2  A    between atoms: C_17  and  C_18
REMARK                            x       y       z     vdW  Elec       q    Type
REMARK                         _______ _______ _______ _____ _____    ______ ____
ROOT
ATOM      1  O   UNL     1       1.447   7.913  21.803  0.00  0.00    +0.000 OA
ATOM      2  C   UNL     1       1.718   7.921  20.613  0.00  0.00    +0.000 C 
ATOM      3  N   UNL     1       2.566   7.040  19.998  0.00  0.00    +0.000 N 
ATOM      4  C   UNL     1       2.609   7.239  18.559  0.00  0.00    +0.000 C 
ATOM      5  C   UNL     1       4.038   7.257  18.041  0.00  0.00    +0.000 C 
ATOM      6  C   UNL     1       4.655   5.853  17.922  0.00  0.00    +0.000 C 
ATOM      7  C   UNL     1       3.695   4.686  17.943  0.00  0.00    +0.000 A 
ATOM      8  C   UNL     1       4.198   3.380  18.050  0.00  0.00    +0.000 A 
ATOM      9  C   UNL     1       3.336   2.282  18.071  0.00  0.00    +0.000 A 
ATOM     10  C   UNL     1       1.961   2.474  17.966  0.00  0.00    +0.000 A 
ATOM     11  C   UNL     1       1.451   3.759  17.853  0.00  0.00    +0.000 A 
ATOM     12  C   UNL     1       2.310   4.865  17.860  0.00  0.00    +0.000 A 
ATOM     13  C   UNL     1       1.740   6.247  17.768  0.00  0.00    +0.000 C 
ATOM     14  C   UNL     1       1.872   8.591  18.464  0.00  0.00    +0.000 C 
ATOM     15  O   UNL     1       1.764   9.275  17.467  0.00  0.00    +0.000 OA
ATOM     16  N   UNL     1       1.277   8.810  19.681  0.00  0.00    +0.000 N 
ATOM     17  H   UNL     1       2.908   6.223  20.485  0.00  0.00    +0.000 HD
ENDROOT
BRANCH  16  18
ATOM     18  C   UNL     1       0.243   9.774  19.912  0.00  0.00    +0.000 C 
BRANCH  18  19
ATOM     19  C   UNL     1       0.838  11.034  20.586  0.00  0.00    +0.000 C 
ATOM     20  O   UNL     1       1.391  10.999  21.669  0.00  0.00    +0.000 OA
ATOM     21  N   UNL     1       0.638  12.185  19.835  0.00  0.00    +0.000 N 
ATOM     22  C   UNL     1       0.082  12.252  18.460  0.00  0.00    +0.000 C 
ATOM     23  C   UNL     1      -0.438  13.668  18.356  0.00  0.00    +0.000 C 
ATOM     24  C   UNL     1       0.678  14.335  19.080  0.00  0.00    +0.000 A 
ATOM     25  C   UNL     1       1.300  15.532  18.800  0.00  0.00    +0.000 A 
ATOM     26  C   UNL     1       2.422  15.870  19.557  0.00  0.00    +0.000 A 
ATOM     27  C   UNL     1       2.828  15.066  20.640  0.00  0.00    +0.000 A 
ATOM     28  C   UNL     1       2.185  13.855  20.925  0.00  0.00    +0.000 A 
ATOM     29  C   UNL     1       1.179  13.467  20.071  0.00  0.00    +0.000 A 
ENDBRANCH  18  19
ENDBRANCH  16  18
TORSDOF 2
ENDMDL
MODEL 3
REMARK VINA RESULT:      -7.9      1.935      8.594
REMARK  Name = 
REMARK  2 active torsions:
REMARK  status: ('A' for Active; 'I' for Inactive)
REMARK    1  A    between atoms: N_16  and  C_17
REMARK    2  A    between atoms: C_17  and  C_18
REMARK                            x       y       z     vdW  Elec       q    Type
REMARK                         _______ _______ _______ _____ _____    ______ ____
ROOT
ATOM      1  O   UNL     1      -1.534  10.032  17.861  0.00  0.00    +0.000 OA
ATOM      2  C   UNL     1      -0.936  10.852  18.538  0.00  0.00    +0.000 C 
ATOM      3  N   UNL     1      -1.527  11.871  19.233  0.00  0.00    +0.000 N 
ATOM      4  C   UNL     1      -0.565  12.620  20.026  0.00  0.00    +0.000 C 
ATOM      5  C   UNL     1      -0.745  14.120  19.852  0.00  0.00    +0.000 C 
ATOM      6  C   UNL     1      -1.930  14.683  20.655  0.00  0.00    +0.000 C 
ATOM      7  C   UNL     1      -2.476  13.809  21.760  0.00  0.00    +0.000 A 
ATOM      8  C   UNL     1      -3.680  14.164  22.390  0.00  0.00    +0.000 A 
ATOM      9  C   UNL     1      -4.209  13.378  23.414  0.00  0.00    +0.000 A 
ATOM     10  C   UNL     1      -3.533  12.235  23.836  0.00  0.00    +0.000 A 
ATOM     11  C   UNL     1      -2.339  11.877  23.227  0.00  0.00    +0.000 A 
ATOM     12  C   UNL     1      -1.819  12.647  22.180  0.00  0.00    +0.000 A 
ATOM     13  C   UNL     1      -0.545  12.228  21.513  0.00  0.00    +0.000 C 
ATOM     14  C   UNL     1       0.746  12.056  19.440  0.00  0.00    +0.000 C 
ATOM     15  O   UNL     1       1.864  12.467  19.670  0.00  0.00    +0.000 OA
ATOM     16  N   UNL     1       0.412  10.946  18.705  0.00  0.00    +0.000 N 
ATOM     17  H   UNL     1      -2.531  11.912  19.343  0.00  0.00    +0.000 HD
ENDROOT
BRANCH  16  18
ATOM     18  C   UNL     1       1.349   9.954  18.270  0.00  0.00    +0.000 C 
BRANCH  18  19
ATOM     19  C   UNL     1       1.466   8.836  19.334  0.00  0.00    +0.000 C 
ATOM     20  O   UNL     1       0.922   8.906  20.421  0.00  0.00    +0.000 OA
ATOM     21  N   UNL     1       2.275   7.787  18.919  0.00  0.00    +0.000 N 
ATOM     22  C   UNL     1       2.852   7.605  17.563  0.00  0.00    +0.000 C 
ATOM     23  C   UNL     1       4.038   6.698  17.802  0.00  0.00    +0.000 C 
ATOM     24  C   UNL     1       3.399   5.808  18.807  0.00  0.00    +0.000 A 
ATOM     25  C   UNL     1       3.507   4.441  18.947  0.00  0.00    +0.000 A 
ATOM     26  C   UNL     1       2.690   3.822  19.893  0.00  0.00    +0.000 A 
ATOM     27  C   UNL     1       1.871   4.586  20.747  0.00  0.00    +0.000 A 
ATOM     28  C   UNL     1       1.773   5.976  20.605  0.00  0.00    +0.000 A 
ATOM     29  C   UNL     1       2.471   6.547  19.566  0.00  0.00    +0.000 A 
ENDBRANCH  18  19
ENDBRANCH  16  18
TORSDOF 2
ENDMDL
MODEL 4
REMARK VINA RESULT:      -7.7      1.342      1.625
REMARK  Name = 
REMARK  2 active torsions:
REMARK  status: ('A' for Active; 'I' for Inactive)
REMARK    1  A    between atoms: N_16  and  C_17
REMARK    2  A    between atoms: C_17  and  C_18
REMARK                            x       y       z     vdW  Elec       q    Type
REMARK                         _______ _______ _______ _____ _____    ______ ____
ROOT
ATOM      1  O   UNL     1       1.226   8.328  21.537  0.00  0.00    +0.000 OA
ATOM      2  C   UNL     1       1.611   8.129  20.396  0.00  0.00    +0.000 C 
ATOM      3  N   UNL     1       2.465   7.127  20.024  0.00  0.00    +0.000 N 
ATOM      4  C   UNL     1       2.658   7.082  18.584  0.00  0.00    +0.000 C 
ATOM      5  C   UNL     1       4.129   6.961  18.220  0.00  0.00    +0.000 C 
ATOM      6  C   UNL     1       4.678   5.535  18.395  0.00  0.00    +0.000 C 
ATOM      7  C   UNL     1       3.659   4.424  18.505  0.00  0.00    +0.000 A 
ATOM      8  C   UNL     1       4.079   3.136  18.874  0.00  0.00    +0.000 A 
ATOM      9  C   UNL     1       3.161   2.090  18.982  0.00  0.00    +0.000 A 
ATOM     10  C   UNL     1       1.815   2.312  18.705  0.00  0.00    +0.000 A 
ATOM     11  C   UNL     1       1.388   3.579  18.334  0.00  0.00    +0.000 A 
ATOM     12  C   UNL     1       2.300   4.638  18.251  0.00  0.00    +0.000 A 
ATOM     13  C   UNL     1       1.817   6.005  17.878  0.00  0.00    +0.000 C 
ATOM     14  C   UNL     1       2.007   8.426  18.195  0.00  0.00    +0.000 C 
ATOM     15  O   UNL     1       2.032   8.938  17.095  0.00  0.00    +0.000 OA
ATOM     16  N   UNL     1       1.310   8.867  19.293  0.00  0.00    +0.000 N 
ATOM     17  H   UNL     1       2.715   6.391  20.670  0.00  0.00    +0.000 HD
ENDROOT
BRANCH  16  18
ATOM     18  C   UNL     1       0.312   9.893  19.256  0.00  0.00    +0.000 C 
BRANCH  18  19
ATOM     19  C   UNL     1       0.985  11.285  19.302  0.00  0.00    +0.000 C 
ATOM     20  O   UNL     1       2.168  11.449  19.068  0.00  0.00    +0.000 OA
ATOM     21  N   UNL     1       0.102  12.293  19.664  0.00  0.00    +0.000 N 
ATOM     22  C   UNL     1      -1.367  12.156  19.835  0.00  0.00    +0.000 C 
ATOM     23  C   UNL     1      -1.728  13.311  20.742  0.00  0.00    +0.000 C 
ATOM     24  C   UNL     1      -0.823  14.323  20.133  0.00  0.00    +0.000 A 
ATOM     25  C   UNL     1      -1.059  15.658  19.885  0.00  0.00    +0.000 A 
ATOM     26  C   UNL     1      -0.090  16.363  19.172  0.00  0.00    +0.000 A 
ATOM     27  C   UNL     1       1.131  15.754  18.822  0.00  0.00    +0.000 A 
ATOM     28  C   UNL     1       1.367  14.399  19.085  0.00  0.00    +0.000 A 
ATOM     29  C   UNL     1       0.337  13.685  19.652  0.00  0.00    +0.000 A 
ENDBRANCH  18  19
ENDBRANCH  16  18
TORSDOF 2
ENDMDL
MODEL 5
REMARK VINA RESULT:      -7.7      1.838      2.650
REMARK  Name = 
REMARK  2 active torsions:
REMARK  status: ('A' for Active; 'I' for Inactive)
REMARK    1  A    between atoms: N_16  and  C_17
REMARK    2  A    between atoms: C_17  and  C_18
REMARK                            x       y       z     vdW  Elec       q    Type
REMARK                         _______ _______ _______ _____ _____    ______ ____
ROOT
ATOM      1  O   UNL     1       1.283   8.223  21.669  0.00  0.00    +0.000 OA
ATOM      2  C   UNL     1       1.669   8.073  20.521  0.00  0.00    +0.000 C 
ATOM      3  N   UNL     1       2.469   7.049  20.093  0.00  0.00    +0.000 N 
ATOM      4  C   UNL     1       2.675   7.082  18.655  0.00  0.00    +0.000 C 
ATOM      5  C   UNL     1       4.141   6.899  18.296  0.00  0.00    +0.000 C 
ATOM      6  C   UNL     1       4.606   5.435  18.386  0.00  0.00    +0.000 C 
ATOM      7  C   UNL     1       3.523   4.381  18.417  0.00  0.00    +0.000 A 
ATOM      8  C   UNL     1       3.864   3.050  18.707  0.00  0.00    +0.000 A 
ATOM      9  C   UNL     1       2.886   2.054  18.742  0.00  0.00    +0.000 A 
ATOM     10  C   UNL     1       1.558   2.372  18.469  0.00  0.00    +0.000 A 
ATOM     11  C   UNL     1       1.209   3.682  18.174  0.00  0.00    +0.000 A 
ATOM     12  C   UNL     1       2.182   4.689  18.166  0.00  0.00    +0.000 A 
ATOM     13  C   UNL     1       1.782   6.102  17.875  0.00  0.00    +0.000 C 
ATOM     14  C   UNL     1       2.107   8.483  18.346  0.00  0.00    +0.000 C 
ATOM     15  O   UNL     1       2.175   9.061  17.281  0.00  0.00    +0.000 OA
ATOM     16  N   UNL     1       1.424   8.895  19.463  0.00  0.00    +0.000 N 
ATOM     17  H   UNL     1       2.668   6.260  20.693  0.00  0.00    +0.000 HD
ENDROOT
BRANCH  16  18
ATOM     18  C   UNL     1       0.487   9.977  19.483  0.00  0.00    +0.000 C 
BRANCH  18  19
ATOM     19  C   UNL     1       1.023  11.122  20.376  0.00  0.00    +0.000 C 
ATOM     20  O   UNL     1       0.885  11.131  21.585  0.00  0.00    +0.000 OA
ATOM     21  N   UNL     1       1.637  12.128  19.641  0.00  0.00    +0.000 N 
ATOM     22  C   UNL     1       1.935  12.099  18.187  0.00  0.00    +0.000 C 
ATOM     23  C   UNL     1       2.049  13.561  17.818  0.00  0.00    +0.000 C 
ATOM     24  C   UNL     1       2.773  14.010  19.038  0.00  0.00    +0.000 A 
ATOM     25  C   UNL     1       3.806  14.916  19.148  0.00  0.00    +0.000 A 
ATOM     26  C   UNL     1       4.408  15.059  20.398  0.00  0.00    +0.000 A 
ATOM     27  C   UNL     1       3.900  14.383  21.524  0.00  0.00    +0.000 A 
ATOM     28  C   UNL     1       2.843  13.471  21.406  0.00  0.00    +0.000 A 
ATOM     29  C   UNL     1       2.365  13.230  20.139  0.00  0.00    +0.000 A 
ENDBRANCH  18  19
ENDBRANCH  16  18
TORSDOF 2
ENDMDL
MODEL 6
REMARK VINA RESULT:      -7.6      2.264      3.410
REMARK  Name = 
REMARK  2 active torsions:
REMARK  status: ('A' for Active; 'I' for Inactive)
REMARK    1  A    between atoms: N_16  and  C_17
REMARK    2  A    between atoms: C_17  and  C_18
REMARK                            x       y       z     vdW  Elec       q    Type
REMARK                         _______ _______ _______ _____ _____    ______ ____
ROOT
ATOM      1  O   UNL     1       1.254   8.438  21.242  0.00  0.00    +0.000 OA
ATOM      2  C   UNL     1       1.839   8.034  20.251  0.00  0.00    +0.000 C 
ATOM      3  N   UNL     1       2.416   6.799  20.133  0.00  0.00    +0.000 N 
ATOM      4  C   UNL     1       2.948   6.570  18.800  0.00  0.00    +0.000 C 
ATOM      5  C   UNL     1       4.356   5.998  18.850  0.00  0.00    +0.000 C 
ATOM      6  C   UNL     1       4.384   4.495  19.180  0.00  0.00    +0.000 C 
ATOM      7  C   UNL     1       3.084   3.740  19.019  0.00  0.00    +0.000 A 
ATOM      8  C   UNL     1       2.986   2.425  19.500  0.00  0.00    +0.000 A 
ATOM      9  C   UNL     1       1.799   1.702  19.365  0.00  0.00    +0.000 A 
ATOM     10  C   UNL     1       0.701   2.278  18.731  0.00  0.00    +0.000 A 
ATOM     11  C   UNL     1       0.787   3.575  18.246  0.00  0.00    +0.000 A 
ATOM     12  C   UNL     1       1.966   4.314  18.404  0.00  0.00    +0.000 A 
ATOM     13  C   UNL     1       2.031   5.723  17.901  0.00  0.00    +0.000 C 
ATOM     14  C   UNL     1       2.856   8.004  18.237  0.00  0.00    +0.000 C 
ATOM     15  O   UNL     1       3.316   8.385  17.181  0.00  0.00    +0.000 OA
ATOM     16  N   UNL     1       2.069   8.724  19.100  0.00  0.00    +0.000 N 
ATOM     17  H   UNL     1       2.257   6.083  20.829  0.00  0.00    +0.000 HD
ENDROOT
BRANCH  16  18
ATOM     18  C   UNL     1       1.472   9.987  18.785  0.00  0.00    +0.000 C 
BRANCH  18  19
ATOM     19  C   UNL     1       0.127   9.766  18.052  0.00  0.00    +0.000 C 
ATOM     20  O   UNL     1      -0.032   8.889  17.223  0.00  0.00    +0.000 OA
ATOM     21  N   UNL     1      -0.841  10.689  18.424  0.00  0.00    +0.000 N 
ATOM     22  C   UNL     1      -0.729  11.690  19.515  0.00  0.00    +0.000 C 
ATOM     23  C   UNL     1      -1.739  12.748  19.131  0.00  0.00    +0.000 C 
ATOM     24  C   UNL     1      -2.803  11.829  18.644  0.00  0.00    +0.000 A 
ATOM     25  C   UNL     1      -4.168  11.913  18.817  0.00  0.00    +0.000 A 
ATOM     26  C   UNL     1      -4.943  10.841  18.376  0.00  0.00    +0.000 A 
ATOM     27  C   UNL     1      -4.355   9.767  17.679  0.00  0.00    +0.000 A 
ATOM     28  C   UNL     1      -2.968   9.693  17.498  0.00  0.00    +0.000 A 
ATOM     29  C   UNL     1      -2.209  10.685  18.075  0.00  0.00    +0.000 A 
ENDBRANCH  18  19
ENDBRANCH  16  18
TORSDOF 2
ENDMDL
MODEL 7
REMARK VINA RESULT:      -7.5      8.002     11.484
REMARK  Name = 
REMARK  2 active torsions:
REMARK  status: ('A' for Active; 'I' for Inactive)
REMARK    1  A    between atoms: N_16  and  C_17
REMARK    2  A    between atoms: C_17  and  C_18
REMARK                            x       y       z     vdW  Elec       q    Type
REMARK                         _______ _______ _______ _____ _____    ______ ____
ROOT
ATOM      1  O   UNL     1       5.884  18.498  20.260  0.00  0.00    +0.000 OA
ATOM      2  C   UNL     1       5.398  17.532  19.694  0.00  0.00    +0.000 C 
ATOM      3  N   UNL     1       4.061  17.243  19.651  0.00  0.00    +0.000 N 
ATOM      4  C   UNL     1       3.779  16.086  18.818  0.00  0.00    +0.000 C 
ATOM      5  C   UNL     1       2.834  15.116  19.510  0.00  0.00    +0.000 C 
ATOM      6  C   UNL     1       1.366  15.573  19.469  0.00  0.00    +0.000 C 
ATOM      7  C   UNL     1       1.017  16.645  18.462  0.00  0.00    +0.000 A 
ATOM      8  C   UNL     1      -0.247  17.254  18.513  0.00  0.00    +0.000 A 
ATOM      9  C   UNL     1      -0.599  18.247  17.597  0.00  0.00    +0.000 A 
ATOM     10  C   UNL     1       0.301  18.630  16.605  0.00  0.00    +0.000 A 
ATOM     11  C   UNL     1       1.550  18.031  16.539  0.00  0.00    +0.000 A 
ATOM     12  C   UNL     1       1.918  17.055  17.474  0.00  0.00    +0.000 A 
ATOM     13  C   UNL     1       3.282  16.441  17.407  0.00  0.00    +0.000 C 
ATOM     14  C   UNL     1       5.215  15.556  18.621  0.00  0.00    +0.000 C 
ATOM     15  O   UNL     1       5.520  14.502  18.103  0.00  0.00    +0.000 OA
ATOM     16  N   UNL     1       6.069  16.545  19.040  0.00  0.00    +0.000 N 
ATOM     17  H   UNL     1       3.375  17.913  19.971  0.00  0.00    +0.000 HD
ENDROOT
BRANCH  16  18
ATOM     18  C   UNL     1       7.466  16.590  18.729  0.00  0.00    +0.000 C 
BRANCH  18  19
ATOM     19  C   UNL     1       8.251  15.666  19.691  0.00  0.00    +0.000 C 
ATOM     20  O   UNL     1       7.893  15.455  20.835  0.00  0.00    +0.000 OA
ATOM     21  N   UNL     1       9.402  15.148  19.113  0.00  0.00    +0.000 N 
ATOM     22  C   UNL     1       9.808  15.279  17.690  0.00  0.00    +0.000 C 
ATOM     23  C   UNL     1      11.304  15.067  17.727  0.00  0.00    +0.000 C 
ATOM     24  C   UNL     1      11.317  13.972  18.734  0.00  0.00    +0.000 A 
ATOM     25  C   UNL     1      12.091  12.831  18.764  0.00  0.00    +0.000 A 
ATOM     26  C   UNL     1      11.810  11.887  19.752  0.00  0.00    +0.000 A 
ATOM     27  C   UNL     1      10.847  12.148  20.745  0.00  0.00    +0.000 A 
ATOM     28  C   UNL     1      10.071  13.314  20.713  0.00  0.00    +0.000 A 
ATOM     29  C   UNL     1      10.258  14.159  19.644  0.00  0.00    +0.000 A 
ENDBRANCH  18  19
ENDBRANCH  16  18
TORSDOF 2
ENDMDL
MODEL 8
REMARK VINA RESULT:      -7.5      1.844      3.274
REMARK  Name = 
REMARK  2 active torsions:
REMARK  status: ('A' for Active; 'I' for Inactive)
REMARK    1  A    between atoms: N_16  and  C_17
REMARK    2  A    between atoms: C_17  and  C_18
REMARK                            x       y       z     vdW  Elec       q    Type
REMARK                         _______ _______ _______ _____ _____    ______ ____
ROOT
ATOM      1  O   UNL     1       2.235   9.497  17.903  0.00  0.00    +0.000 OA
ATOM      2  C   UNL     1       2.263   8.407  18.453  0.00  0.00    +0.000 C 
ATOM      3  N   UNL     1       2.656   7.241  17.856  0.00  0.00    +0.000 N 
ATOM      4  C   UNL     1       2.679   6.130  18.793  0.00  0.00    +0.000 C 
ATOM      5  C   UNL     1       2.000   4.898  18.216  0.00  0.00    +0.000 C 
ATOM      6  C   UNL     1       2.881   4.140  17.208  0.00  0.00    +0.000 C 
ATOM      7  C   UNL     1       4.358   4.458  17.225  0.00  0.00    +0.000 A 
ATOM      8  C   UNL     1       5.182   3.964  16.200  0.00  0.00    +0.000 A 
ATOM      9  C   UNL     1       6.550   4.240  16.189  0.00  0.00    +0.000 A 
ATOM     10  C   UNL     1       7.117   4.997  17.212  0.00  0.00    +0.000 A 
ATOM     11  C   UNL     1       6.315   5.486  18.233  0.00  0.00    +0.000 A 
ATOM     12  C   UNL     1       4.937   5.235  18.234  0.00  0.00    +0.000 A 
ATOM     13  C   UNL     1       4.082   5.795  19.328  0.00  0.00    +0.000 C 
ATOM     14  C   UNL     1       1.936   6.779  19.979  0.00  0.00    +0.000 C 
ATOM     15  O   UNL     1       1.563   6.209  20.984  0.00  0.00    +0.000 OA
ATOM     16  N   UNL     1       1.880   8.127  19.729  0.00  0.00    +0.000 N 
ATOM     17  H   UNL     1       3.095   7.246  16.946  0.00  0.00    +0.000 HD
ENDROOT
BRANCH  16  18
ATOM     18  C   UNL     1       1.570   9.119  20.714  0.00  0.00    +0.000 C 
BRANCH  18  19
ATOM     19  C   UNL     1       0.237   9.820  20.356  0.00  0.00    +0.000 C 
ATOM     20  O   UNL     1      -0.797   9.205  20.168  0.00  0.00    +0.000 OA
ATOM     21  N   UNL     1       0.372  11.197  20.246  0.00  0.00    +0.000 N 
ATOM     22  C   UNL     1       1.578  11.993  20.587  0.00  0.00    +0.000 C 
ATOM     23  C   UNL     1       1.407  13.260  19.781  0.00  0.00    +0.000 C 
ATOM     24  C   UNL     1      -0.058  13.420  19.986  0.00  0.00    +0.000 A 
ATOM     25  C   UNL     1      -0.781  14.571  20.212  0.00  0.00    +0.000 A 
ATOM     26  C   UNL     1      -2.137  14.435  20.512  0.00  0.00    +0.000 A 
ATOM     27  C   UNL     1      -2.759  13.171  20.471  0.00  0.00    +0.000 A 
ATOM     28  C   UNL     1      -2.019  12.006  20.231  0.00  0.00    +0.000 A 
ATOM     29  C   UNL     1      -0.658  12.150  20.090  0.00  0.00    +0.000 A 
ENDBRANCH  18  19
ENDBRANCH  16  18
TORSDOF 2
ENDMDL
MODEL 9
REMARK VINA RESULT:      -7.4      1.645      8.742
REMARK  Name = 
REMARK  2 active torsions:
REMARK  status: ('A' for Active; 'I' for Inactive)
REMARK    1  A    between atoms: N_16  and  C_17
REMARK    2  A    between atoms: C_17  and  C_18
REMARK                            x       y       z     vdW  Elec       q    Type
REMARK                         _______ _______ _______ _____ _____    ______ ____
ROOT
ATOM      1  O   UNL     1      -0.368   7.783  21.648  0.00  0.00    +0.000 OA
ATOM      2  C   UNL     1      -0.099   8.739  20.939  0.00  0.00    +0.000 C 
ATOM      3  N   UNL     1      -0.919   9.816  20.736  0.00  0.00    +0.000 N 
ATOM      4  C   UNL     1      -0.283  10.840  19.925  0.00  0.00    +0.000 C 
ATOM      5  C   UNL     1      -1.206  11.334  18.823  0.00  0.00    +0.000 C 
ATOM      6  C   UNL     1      -2.275  12.319  19.328  0.00  0.00    +0.000 C 
ATOM      7  C   UNL     1      -2.034  12.945  20.682  0.00  0.00    +0.000 A 
ATOM      8  C   UNL     1      -3.060  13.684  21.293  0.00  0.00    +0.000 A 
ATOM      9  C   UNL     1      -2.867  14.275  22.543  0.00  0.00    +0.000 A 
ATOM     10  C   UNL     1      -1.640  14.151  23.190  0.00  0.00    +0.000 A 
ATOM     11  C   UNL     1      -0.616  13.430  22.595  0.00  0.00    +0.000 A 
ATOM     12  C   UNL     1      -0.814  12.811  21.354  0.00  0.00    +0.000 A 
ATOM     13  C   UNL     1       0.292  12.011  20.740  0.00  0.00    +0.000 C 
ATOM     14  C   UNL     1       0.946  10.049  19.429  0.00  0.00    +0.000 C 
ATOM     15  O   UNL     1       1.740  10.419  18.588  0.00  0.00    +0.000 OA
ATOM     16  N   UNL     1       1.026   8.911  20.192  0.00  0.00    +0.000 N 
ATOM     17  H   UNL     1      -1.753   9.946  21.292  0.00  0.00    +0.000 HD
ENDROOT
BRANCH  16  18
ATOM     18  C   UNL     1       2.186   8.077  20.279  0.00  0.00    +0.000 C 
BRANCH  18  19
ATOM     19  C   UNL     1       2.213   7.085  19.090  0.00  0.00    +0.000 C 
ATOM     20  O   UNL     1       2.391   7.444  17.941  0.00  0.00    +0.000 OA
ATOM     21  N   UNL     1       1.982   5.774  19.485  0.00  0.00    +0.000 N 
ATOM     22  C   UNL     1       1.884   5.280  20.881  0.00  0.00    +0.000 C 
ATOM     23  C   UNL     1       1.093   3.998  20.749  0.00  0.00    +0.000 C 
ATOM     24  C   UNL     1       1.728   3.510  19.496  0.00  0.00    +0.000 A 
ATOM     25  C   UNL     1       2.094   2.225  19.153  0.00  0.00    +0.000 A 
ATOM     26  C   UNL     1       2.805   2.051  17.965  0.00  0.00    +0.000 A 
ATOM     27  C   UNL     1       3.036   3.138  17.100  0.00  0.00    +0.000 A 
ATOM     28  C   UNL     1       2.653   4.439  17.450  0.00  0.00    +0.000 A 
ATOM     29  C   UNL     1       2.091   4.610  18.694  0.00  0.00    +0.000 A 
ENDBRANCH  18  19
ENDBRANCH  16  18
TORSDOF 2
ENDMDL
