MODEL 1
REMARK VINA RESULT:      -8.7      0.000      0.000
REMARK  Name = 
REMARK  5 active torsions:
REMARK  status: ('A' for Active; 'I' for Inactive)
REMARK    1  A    between atoms: C_2  and  C_3
REMARK    2  A    between atoms: C_3  and  C_4
REMARK    3  A    between atoms: N_13  and  C_14
REMARK    4  A    between atoms: C_14  and  C_15
REMARK    5  A    between atoms: C_15  and  C_16
REMARK                            x       y       z     vdW  Elec       q    Type
REMARK                         _______ _______ _______ _____ _____    ______ ____
ROOT
ATOM      1  O   UNL     1       5.079   3.397  18.950  0.00  0.00    +0.000 OA
ATOM      2  C   UNL     1       4.856   3.999  17.901  0.00  0.00    +0.000 C 
ATOM      3  N   UNL     1       4.359   5.278  17.861  0.00  0.00    +0.000 N 
ATOM      4  H   UNL     1       4.344   5.751  16.970  0.00  0.00    +0.000 HD
ENDROOT
BRANCH   2   5
ATOM      5  C   UNL     1       5.115   3.397  16.527  0.00  0.00    +0.000 C 
BRANCH   5   6
ATOM      6  C   UNL     1       6.102   4.197  15.740  0.00  0.00    +0.000 A 
ATOM      7  C   UNL     1       6.924   5.190  16.233  0.00  0.00    +0.000 A 
ATOM      8  N   UNL     1       7.667   5.695  15.199  0.00  0.00    +0.000 N 
ATOM      9  C   UNL     1       7.335   5.058  14.023  0.00  0.00    +0.000 A 
ATOM     10  C   UNL     1       7.819   5.259  12.723  0.00  0.00    +0.000 A 
ATOM     11  C   UNL     1       7.291   4.461  11.704  0.00  0.00    +0.000 A 
ATOM     12  C   UNL     1       6.320   3.502  11.976  0.00  0.00    +0.000 A 
ATOM     13  C   UNL     1       5.844   3.317  13.282  0.00  0.00    +0.000 A 
ATOM     14  C   UNL     1       6.359   4.108  14.331  0.00  0.00    +0.000 A 
ATOM     15  H   UNL     1       8.352   6.428  15.275  0.00  0.00    +0.000 HD
ENDBRANCH   5   6
ENDBRANCH   2   5
BRANCH   3  16
ATOM     16  C   UNL     1       4.107   6.066  19.049  0.00  0.00    +0.000 C 
BRANCH  16  17
ATOM     17  C   UNL     1       2.602   6.289  19.188  0.00  0.00    +0.000 C 
ATOM     18  C   UNL     1       1.957   7.398  18.378  0.00  0.00    +0.000 C 
ATOM     19  C   UNL     1       2.158   7.585  19.852  0.00  0.00    +0.000 C 
BRANCH  17  20
ATOM     20  C   UNL     1       1.830   4.998  19.465  0.00  0.00    +0.000 A 
ATOM     21  C   UNL     1       1.372   4.200  18.398  0.00  0.00    +0.000 A 
ATOM     22  C   UNL     1       0.960   2.879  18.597  0.00  0.00    +0.000 A 
ATOM     23  C   UNL     1       0.961   2.340  19.880  0.00  0.00    +0.000 A 
ATOM     24  C   UNL     1       1.328   3.140  20.951  0.00  0.00    +0.000 A 
ATOM     25  F   UNL     1       1.345   2.625  22.187  0.00  0.00    +0.000 F 
ATOM     26  C   UNL     1       1.747   4.453  20.758  0.00  0.00    +0.000 A 
ENDBRANCH  17  20
ENDBRANCH  16  17
ENDBRANCH   3  16
TORSDOF 5
ENDMDL
MODEL 2
REMARK VINA RESULT:      -8.4      2.742      6.822
REMARK  Name = 
REMARK  5 active torsions:
REMARK  status: ('A' for Active; 'I' for Inactive)
REMARK    1  A    between atoms: C_2  and  C_3
REMARK    2  A    between atoms: C_3  and  C_4
REMARK    3  A    between atoms: N_13  and  C_14
REMARK    4  A    between atoms: C_14  and  C_15
REMARK    5  A    between atoms: C_15  and  C_16
REMARK                            x       y       z     vdW  Elec       q    Type
REMARK                         _______ _______ _______ _____ _____    ______ ____
ROOT
ATOM      1  O   UNL     1       4.957   2.966  19.228  0.00  0.00    +0.000 OA
ATOM      2  C   UNL     1       4.089   3.235  18.399  0.00  0.00    +0.000 C 
ATOM      3  N   UNL     1       4.362   3.453  17.072  0.00  0.00    +0.000 N 
ATOM      4  H   UNL     1       3.583   3.522  16.435  0.00  0.00    +0.000 HD
ENDROOT
BRANCH   2   5
ATOM      5  C   UNL     1       2.612   3.345  18.749  0.00  0.00    +0.000 C 
BRANCH   5   6
ATOM      6  C   UNL     1       2.304   4.601  19.498  0.00  0.00    +0.000 A 
ATOM      7  C   UNL     1       1.882   4.684  20.810  0.00  0.00    +0.000 A 
ATOM      8  N   UNL     1       1.688   6.004  21.124  0.00  0.00    +0.000 N 
ATOM      9  C   UNL     1       1.962   6.795  20.028  0.00  0.00    +0.000 A 
ATOM     10  C   UNL     1       1.883   8.186  19.881  0.00  0.00    +0.000 A 
ATOM     11  C   UNL     1       2.220   8.727  18.637  0.00  0.00    +0.000 A 
ATOM     12  C   UNL     1       2.622   7.908  17.586  0.00  0.00    +0.000 A 
ATOM     13  C   UNL     1       2.692   6.518  17.749  0.00  0.00    +0.000 A 
ATOM     14  C   UNL     1       2.358   5.944  18.995  0.00  0.00    +0.000 A 
ATOM     15  H   UNL     1       1.384   6.354  22.016  0.00  0.00    +0.000 HD
ENDBRANCH   5   6
ENDBRANCH   2   5
BRANCH   3  16
ATOM     16  C   UNL     1       5.690   3.329  16.506  0.00  0.00    +0.000 C 
BRANCH  16  17
ATOM     17  C   UNL     1       6.134   4.691  15.975  0.00  0.00    +0.000 C 
ATOM     18  C   UNL     1       5.391   5.285  14.794  0.00  0.00    +0.000 C 
ATOM     19  C   UNL     1       6.762   4.716  14.589  0.00  0.00    +0.000 C 
BRANCH  17  20
ATOM     20  C   UNL     1       6.684   5.608  17.069  0.00  0.00    +0.000 A 
ATOM     21  C   UNL     1       7.355   5.065  18.182  0.00  0.00    +0.000 A 
ATOM     22  C   UNL     1       8.143   5.859  19.020  0.00  0.00    +0.000 A 
ATOM     23  C   UNL     1       8.244   7.227  18.783  0.00  0.00    +0.000 A 
ATOM     24  C   UNL     1       7.521   7.790  17.742  0.00  0.00    +0.000 A 
ATOM     25  F   UNL     1       7.624   9.102  17.499  0.00  0.00    +0.000 F 
ATOM     26  C   UNL     1       6.742   7.002  16.900  0.00  0.00    +0.000 A 
ENDBRANCH  17  20
ENDBRANCH  16  17
ENDBRANCH   3  16
TORSDOF 5
ENDMDL
MODEL 3
REMARK VINA RESULT:      -8.4      4.034      8.057
REMARK  Name = 
REMARK  5 active torsions:
REMARK  status: ('A' for Active; 'I' for Inactive)
REMARK    1  A    between atoms: C_2  and  C_3
REMARK    2  A    between atoms: C_3  and  C_4
REMARK    3  A    between atoms: N_13  and  C_14
REMARK    4  A    between atoms: C_14  and  C_15
REMARK    5  A    between atoms: C_15  and  C_16
REMARK                            x       y       z     vdW  Elec       q    Type
REMARK                         _______ _______ _______ _____ _____    ______ ____
ROOT
ATOM      1  O   UNL     1       1.678   8.225  20.172  0.00  0.00    +0.000 OA
ATOM      2  C   UNL     1       2.038   8.159  18.999  0.00  0.00    +0.000 C 
ATOM      3  N   UNL     1       2.788   7.122  18.502  0.00  0.00    +0.000 N 
ATOM      4  H   UNL     1       2.916   7.069  17.503  0.00  0.00    +0.000 HD
ENDROOT
BRANCH   2   5
ATOM      5  C   UNL     1       1.685   9.214  17.961  0.00  0.00    +0.000 C 
BRANCH   5   6
ATOM      6  C   UNL     1       0.751  10.247  18.503  0.00  0.00    +0.000 A 
ATOM      7  C   UNL     1       1.065  11.223  19.428  0.00  0.00    +0.000 A 
ATOM      8  N   UNL     1      -0.061  11.961  19.684  0.00  0.00    +0.000 N 
ATOM      9  C   UNL     1      -1.121  11.474  18.949  0.00  0.00    +0.000 A 
ATOM     10  C   UNL     1      -2.456  11.898  18.907  0.00  0.00    +0.000 A 
ATOM     11  C   UNL     1      -3.330  11.207  18.063  0.00  0.00    +0.000 A 
ATOM     12  C   UNL     1      -2.884  10.136  17.293  0.00  0.00    +0.000 A 
ATOM     13  C   UNL     1      -1.546   9.723  17.351  0.00  0.00    +0.000 A 
ATOM     14  C   UNL     1      -0.641  10.403  18.194  0.00  0.00    +0.000 A 
ATOM     15  H   UNL     1      -0.118  12.740  20.317  0.00  0.00    +0.000 HD
ENDBRANCH   5   6
ENDBRANCH   2   5
BRANCH   3  16
ATOM     16  C   UNL     1       3.177   5.975  19.296  0.00  0.00    +0.000 C 
BRANCH  16  17
ATOM     17  C   UNL     1       3.163   4.730  18.412  0.00  0.00    +0.000 C 
ATOM     18  C   UNL     1       1.890   4.387  17.663  0.00  0.00    +0.000 C 
ATOM     19  C   UNL     1       2.277   3.577  18.863  0.00  0.00    +0.000 C 
BRANCH  17  20
ATOM     20  C   UNL     1       4.524   4.432  17.780  0.00  0.00    +0.000 A 
ATOM     21  C   UNL     1       4.622   4.140  16.405  0.00  0.00    +0.000 A 
ATOM     22  C   UNL     1       5.847   4.184  15.733  0.00  0.00    +0.000 A 
ATOM     23  C   UNL     1       7.010   4.485  16.436  0.00  0.00    +0.000 A 
ATOM     24  C   UNL     1       6.942   4.691  17.805  0.00  0.00    +0.000 A 
ATOM     25  F   UNL     1       8.055   4.995  18.485  0.00  0.00    +0.000 F 
ATOM     26  C   UNL     1       5.724   4.656  18.477  0.00  0.00    +0.000 A 
ENDBRANCH  17  20
ENDBRANCH  16  17
ENDBRANCH   3  16
TORSDOF 5
ENDMDL
MODEL 4
REMARK VINA RESULT:      -8.3      2.816      7.573
REMARK  Name = 
REMARK  5 active torsions:
REMARK  status: ('A' for Active; 'I' for Inactive)
REMARK    1  A    between atoms: C_2  and  C_3
REMARK    2  A    between atoms: C_3  and  C_4
REMARK    3  A    between atoms: N_13  and  C_14
REMARK    4  A    between atoms: C_14  and  C_15
REMARK    5  A    between atoms: C_15  and  C_16
REMARK                            x       y       z     vdW  Elec       q    Type
REMARK                         _______ _______ _______ _____ _____    ______ ____
ROOT
ATOM      1  O   UNL     1       2.090   4.770  17.778  0.00  0.00    +0.000 OA
ATOM      2  C   UNL     1       3.076   5.189  18.381  0.00  0.00    +0.000 C 
ATOM      3  N   UNL     1       4.358   4.797  18.085  0.00  0.00    +0.000 N 
ATOM      4  H   UNL     1       5.117   5.296  18.524  0.00  0.00    +0.000 HD
ENDROOT
BRANCH   2   5
ATOM      5  C   UNL     1       2.989   6.197  19.517  0.00  0.00    +0.000 C 
BRANCH   5   6
ATOM      6  C   UNL     1       2.388   7.492  19.075  0.00  0.00    +0.000 A 
ATOM      7  C   UNL     1       2.601   8.116  17.862  0.00  0.00    +0.000 A 
ATOM      8  N   UNL     1       1.891   9.289  17.843  0.00  0.00    +0.000 N 
ATOM      9  C   UNL     1       1.223   9.455  19.037  0.00  0.00    +0.000 A 
ATOM     10  C   UNL     1       0.400  10.504  19.469  0.00  0.00    +0.000 A 
ATOM     11  C   UNL     1      -0.151  10.411  20.751  0.00  0.00    +0.000 A 
ATOM     12  C   UNL     1       0.112   9.313  21.565  0.00  0.00    +0.000 A 
ATOM     13  C   UNL     1       0.941   8.275  21.119  0.00  0.00    +0.000 A 
ATOM     14  C   UNL     1       1.510   8.340  19.829  0.00  0.00    +0.000 A 
ATOM     15  H   UNL     1       1.861   9.941  17.079  0.00  0.00    +0.000 HD
ENDBRANCH   5   6
ENDBRANCH   2   5
BRANCH   3  16
ATOM     16  C   UNL     1       4.679   3.899  16.995  0.00  0.00    +0.000 C 
BRANCH  16  17
ATOM     17  C   UNL     1       5.737   4.552  16.107  0.00  0.00    +0.000 C 
ATOM     18  C   UNL     1       5.343   4.974  14.704  0.00  0.00    +0.000 C 
ATOM     19  C   UNL     1       6.200   3.759  14.894  0.00  0.00    +0.000 C 
BRANCH  17  20
ATOM     20  C   UNL     1       6.750   5.383  16.897  0.00  0.00    +0.000 A 
ATOM     21  C   UNL     1       6.891   6.761  16.645  0.00  0.00    +0.000 A 
ATOM     22  C   UNL     1       7.551   7.605  17.544  0.00  0.00    +0.000 A 
ATOM     23  C   UNL     1       8.120   7.076  18.699  0.00  0.00    +0.000 A 
ATOM     24  C   UNL     1       8.063   5.708  18.918  0.00  0.00    +0.000 A 
ATOM     25  F   UNL     1       8.595   5.194  20.034  0.00  0.00    +0.000 F 
ATOM     26  C   UNL     1       7.399   4.866  18.031  0.00  0.00    +0.000 A 
ENDBRANCH  17  20
ENDBRANCH  16  17
ENDBRANCH   3  16
TORSDOF 5
ENDMDL
MODEL 5
REMARK VINA RESULT:      -8.2      0.874      1.311
REMARK  Name = 
REMARK  5 active torsions:
REMARK  status: ('A' for Active; 'I' for Inactive)
REMARK    1  A    between atoms: C_2  and  C_3
REMARK    2  A    between atoms: C_3  and  C_4
REMARK    3  A    between atoms: N_13  and  C_14
REMARK    4  A    between atoms: C_14  and  C_15
REMARK    5  A    between atoms: C_15  and  C_16
REMARK                            x       y       z     vdW  Elec       q    Type
REMARK                         _______ _______ _______ _____ _____    ______ ____
ROOT
ATOM      1  O   UNL     1       5.401   3.814  19.049  0.00  0.00    +0.000 OA
ATOM      2  C   UNL     1       5.068   4.246  17.947  0.00  0.00    +0.000 C 
ATOM      3  N   UNL     1       4.455   5.461  17.773  0.00  0.00    +0.000 N 
ATOM      4  H   UNL     1       4.348   5.806  16.831  0.00  0.00    +0.000 HD
ENDROOT
BRANCH   2   5
ATOM      5  C   UNL     1       5.308   3.488  16.650  0.00  0.00    +0.000 C 
BRANCH   5   6
ATOM      6  C   UNL     1       6.240   4.216  15.737  0.00  0.00    +0.000 A 
ATOM      7  C   UNL     1       7.132   5.204  16.103  0.00  0.00    +0.000 A 
ATOM      8  N   UNL     1       7.792   5.635  14.981  0.00  0.00    +0.000 N 
ATOM      9  C   UNL     1       7.334   4.953  13.874  0.00  0.00    +0.000 A 
ATOM     10  C   UNL     1       7.703   5.075  12.527  0.00  0.00    +0.000 A 
ATOM     11  C   UNL     1       7.061   4.247  11.602  0.00  0.00    +0.000 A 
ATOM     12  C   UNL     1       6.092   3.334  12.009  0.00  0.00    +0.000 A 
ATOM     13  C   UNL     1       5.734   3.228  13.360  0.00  0.00    +0.000 A 
ATOM     14  C   UNL     1       6.365   4.051  14.317  0.00  0.00    +0.000 A 
ATOM     15  H   UNL     1       8.501   6.347  14.958  0.00  0.00    +0.000 HD
ENDBRANCH   5   6
ENDBRANCH   2   5
BRANCH   3  16
ATOM     16  C   UNL     1       4.194   6.379  18.863  0.00  0.00    +0.000 C 
BRANCH  16  17
ATOM     17  C   UNL     1       2.718   6.293  19.245  0.00  0.00    +0.000 C 
ATOM     18  C   UNL     1       1.725   7.165  18.500  0.00  0.00    +0.000 C 
ATOM     19  C   UNL     1       2.106   7.520  19.906  0.00  0.00    +0.000 C 
BRANCH  17  20
ATOM     20  C   UNL     1       2.304   4.898  19.717  0.00  0.00    +0.000 A 
ATOM     21  C   UNL     1       2.497   4.513  21.058  0.00  0.00    +0.000 A 
ATOM     22  C   UNL     1       1.852   3.398  21.599  0.00  0.00    +0.000 A 
ATOM     23  C   UNL     1       1.025   2.618  20.795  0.00  0.00    +0.000 A 
ATOM     24  C   UNL     1       0.892   2.936  19.452  0.00  0.00    +0.000 A 
ATOM     25  F   UNL     1       0.088   2.199  18.674  0.00  0.00    +0.000 F 
ATOM     26  C   UNL     1       1.526   4.050  18.910  0.00  0.00    +0.000 A 
ENDBRANCH  17  20
ENDBRANCH  16  17
ENDBRANCH   3  16
TORSDOF 5
ENDMDL
MODEL 6
REMARK VINA RESULT:      -8.2      2.393      6.825
REMARK  Name = 
REMARK  5 active torsions:
REMARK  status: ('A' for Active; 'I' for Inactive)
REMARK    1  A    between atoms: C_2  and  C_3
REMARK    2  A    between atoms: C_3  and  C_4
REMARK    3  A    between atoms: N_13  and  C_14
REMARK    4  A    between atoms: C_14  and  C_15
REMARK    5  A    between atoms: C_15  and  C_16
REMARK                            x       y       z     vdW  Elec       q    Type
REMARK                         _______ _______ _______ _____ _____    ______ ____
ROOT
ATOM      1  O   UNL     1       3.923   1.727  18.221  0.00  0.00    +0.000 OA
ATOM      2  C   UNL     1       3.477   2.743  17.690  0.00  0.00    +0.000 C 
ATOM      3  N   UNL     1       4.228   3.553  16.874  0.00  0.00    +0.000 N 
ATOM      4  H   UNL     1       3.751   4.280  16.363  0.00  0.00    +0.000 HD
ENDROOT
BRANCH   2   5
ATOM      5  C   UNL     1       2.041   3.212  17.867  0.00  0.00    +0.000 C 
BRANCH   5   6
ATOM      6  C   UNL     1       1.903   4.191  18.987  0.00  0.00    +0.000 A 
ATOM      7  C   UNL     1       1.605   3.889  20.301  0.00  0.00    +0.000 A 
ATOM      8  N   UNL     1       1.548   5.057  21.016  0.00  0.00    +0.000 N 
ATOM      9  C   UNL     1       1.789   6.130  20.186  0.00  0.00    +0.000 A 
ATOM     10  C   UNL     1       1.811   7.502  20.473  0.00  0.00    +0.000 A 
ATOM     11  C   UNL     1       2.082   8.380  19.420  0.00  0.00    +0.000 A 
ATOM     12  C   UNL     1       2.321   7.905  18.134  0.00  0.00    +0.000 A 
ATOM     13  C   UNL     1       2.292   6.530  17.864  0.00  0.00    +0.000 A 
ATOM     14  C   UNL     1       2.022   5.619  18.907  0.00  0.00    +0.000 A 
ATOM     15  H   UNL     1       1.353   5.130  22.000  0.00  0.00    +0.000 HD
ENDBRANCH   5   6
ENDBRANCH   2   5
BRANCH   3  16
ATOM     16  C   UNL     1       5.599   3.258  16.512  0.00  0.00    +0.000 C 
BRANCH  16  17
ATOM     17  C   UNL     1       6.199   4.471  15.803  0.00  0.00    +0.000 C 
ATOM     18  C   UNL     1       5.423   5.099  14.661  0.00  0.00    +0.000 C 
ATOM     19  C   UNL     1       6.639   4.275  14.359  0.00  0.00    +0.000 C 
BRANCH  17  20
ATOM     20  C   UNL     1       7.034   5.353  16.733  0.00  0.00    +0.000 A 
ATOM     21  C   UNL     1       7.070   6.749  16.548  0.00  0.00    +0.000 A 
ATOM     22  C   UNL     1       7.542   7.607  17.545  0.00  0.00    +0.000 A 
ATOM     23  C   UNL     1       8.028   7.079  18.739  0.00  0.00    +0.000 A 
ATOM     24  C   UNL     1       8.077   5.703  18.901  0.00  0.00    +0.000 A 
ATOM     25  F   UNL     1       8.529   5.189  20.052  0.00  0.00    +0.000 F 
ATOM     26  C   UNL     1       7.600   4.845  17.915  0.00  0.00    +0.000 A 
ENDBRANCH  17  20
ENDBRANCH  16  17
ENDBRANCH   3  16
TORSDOF 5
ENDMDL
MODEL 7
REMARK VINA RESULT:      -8.2      3.056      6.873
REMARK  Name = 
REMARK  5 active torsions:
REMARK  status: ('A' for Active; 'I' for Inactive)
REMARK    1  A    between atoms: C_2  and  C_3
REMARK    2  A    between atoms: C_3  and  C_4
REMARK    3  A    between atoms: N_13  and  C_14
REMARK    4  A    between atoms: C_14  and  C_15
REMARK    5  A    between atoms: C_15  and  C_16
REMARK                            x       y       z     vdW  Elec       q    Type
REMARK                         _______ _______ _______ _____ _____    ______ ____
ROOT
ATOM      1  O   UNL     1       4.444   7.029  15.716  0.00  0.00    +0.000 OA
ATOM      2  C   UNL     1       4.374   7.267  16.920  0.00  0.00    +0.000 C 
ATOM      3  N   UNL     1       5.448   7.160  17.769  0.00  0.00    +0.000 N 
ATOM      4  H   UNL     1       5.344   7.513  18.708  0.00  0.00    +0.000 HD
ENDROOT
BRANCH   2   5
ATOM      5  C   UNL     1       3.092   7.717  17.606  0.00  0.00    +0.000 C 
BRANCH   5   6
ATOM      6  C   UNL     1       2.645   6.750  18.653  0.00  0.00    +0.000 A 
ATOM      7  C   UNL     1       2.319   7.056  19.959  0.00  0.00    +0.000 A 
ATOM      8  N   UNL     1       1.976   5.898  20.607  0.00  0.00    +0.000 N 
ATOM      9  C   UNL     1       2.087   4.826  19.748  0.00  0.00    +0.000 A 
ATOM     10  C   UNL     1       1.861   3.462  19.978  0.00  0.00    +0.000 A 
ATOM     11  C   UNL     1       2.060   2.583  18.910  0.00  0.00    +0.000 A 
ATOM     12  C   UNL     1       2.466   3.050  17.664  0.00  0.00    +0.000 A 
ATOM     13  C   UNL     1       2.691   4.417  17.452  0.00  0.00    +0.000 A 
ATOM     14  C   UNL     1       2.498   5.329  18.512  0.00  0.00    +0.000 A 
ATOM     15  H   UNL     1       1.691   5.830  21.569  0.00  0.00    +0.000 HD
ENDBRANCH   5   6
ENDBRANCH   2   5
BRANCH   3  16
ATOM     16  C   UNL     1       6.781   6.816  17.319  0.00  0.00    +0.000 C 
BRANCH  16  17
ATOM     17  C   UNL     1       6.925   5.296  17.304  0.00  0.00    +0.000 C 
ATOM     18  C   UNL     1       6.397   4.507  18.487  0.00  0.00    +0.000 C 
ATOM     19  C   UNL     1       7.876   4.685  18.322  0.00  0.00    +0.000 C 
BRANCH  17  20
ATOM     20  C   UNL     1       6.846   4.703  15.896  0.00  0.00    +0.000 A 
ATOM     21  C   UNL     1       5.834   3.780  15.567  0.00  0.00    +0.000 A 
ATOM     22  C   UNL     1       5.531   3.469  14.239  0.00  0.00    +0.000 A 
ATOM     23  C   UNL     1       6.264   4.050  13.208  0.00  0.00    +0.000 A 
ATOM     24  C   UNL     1       7.318   4.895  13.518  0.00  0.00    +0.000 A 
ATOM     25  F   UNL     1       8.019   5.469  12.531  0.00  0.00    +0.000 F 
ATOM     26  C   UNL     1       7.619   5.214  14.839  0.00  0.00    +0.000 A 
ENDBRANCH  17  20
ENDBRANCH  16  17
ENDBRANCH   3  16
TORSDOF 5
ENDMDL
MODEL 8
REMARK VINA RESULT:      -8.0      3.392      7.970
REMARK  Name = 
REMARK  5 active torsions:
REMARK  status: ('A' for Active; 'I' for Inactive)
REMARK    1  A    between atoms: C_2  and  C_3
REMARK    2  A    between atoms: C_3  and  C_4
REMARK    3  A    between atoms: N_13  and  C_14
REMARK    4  A    between atoms: C_14  and  C_15
REMARK    5  A    between atoms: C_15  and  C_16
REMARK                            x       y       z     vdW  Elec       q    Type
REMARK                         _______ _______ _______ _____ _____    ______ ____
ROOT
ATOM      1  O   UNL     1       3.675   8.042  17.814  0.00  0.00    +0.000 OA
ATOM      2  C   UNL     1       2.526   7.798  18.177  0.00  0.00    +0.000 C 
ATOM      3  N   UNL     1       2.197   6.708  18.943  0.00  0.00    +0.000 N 
ATOM      4  H   UNL     1       1.263   6.660  19.320  0.00  0.00    +0.000 HD
ENDROOT
BRANCH   2   5
ATOM      5  C   UNL     1       1.339   8.684  17.827  0.00  0.00    +0.000 C 
BRANCH   5   6
ATOM      6  C   UNL     1       1.161   9.799  18.805  0.00  0.00    +0.000 A 
ATOM      7  C   UNL     1       1.550  11.111  18.623  0.00  0.00    +0.000 A 
ATOM      8  N   UNL     1       1.231  11.822  19.751  0.00  0.00    +0.000 N 
ATOM      9  C   UNL     1       0.650  10.990  20.684  0.00  0.00    +0.000 A 
ATOM     10  C   UNL     1       0.187  11.273  21.976  0.00  0.00    +0.000 A 
ATOM     11  C   UNL     1      -0.361  10.219  22.714  0.00  0.00    +0.000 A 
ATOM     12  C   UNL     1      -0.443   8.937  22.178  0.00  0.00    +0.000 A 
ATOM     13  C   UNL     1       0.028   8.671  20.885  0.00  0.00    +0.000 A 
ATOM     14  C   UNL     1       0.586   9.716  20.117  0.00  0.00    +0.000 A 
ATOM     15  H   UNL     1       1.399  12.803  19.890  0.00  0.00    +0.000 HD
ENDBRANCH   5   6
ENDBRANCH   2   5
BRANCH   3  16
ATOM     16  C   UNL     1       3.180   5.772  19.450  0.00  0.00    +0.000 C 
BRANCH  16  17
ATOM     17  C   UNL     1       3.232   4.556  18.526  0.00  0.00    +0.000 C 
ATOM     18  C   UNL     1       1.977   4.169  17.767  0.00  0.00    +0.000 C 
ATOM     19  C   UNL     1       2.412   3.343  18.940  0.00  0.00    +0.000 C 
BRANCH  17  20
ATOM     20  C   UNL     1       4.605   4.354  17.883  0.00  0.00    +0.000 A 
ATOM     21  C   UNL     1       4.712   4.057  16.511  0.00  0.00    +0.000 A 
ATOM     22  C   UNL     1       5.925   4.185  15.827  0.00  0.00    +0.000 A 
ATOM     23  C   UNL     1       7.069   4.577  16.515  0.00  0.00    +0.000 A 
ATOM     24  C   UNL     1       6.998   4.790  17.883  0.00  0.00    +0.000 A 
ATOM     25  F   UNL     1       8.091   5.182  18.550  0.00  0.00    +0.000 F 
ATOM     26  C   UNL     1       5.791   4.673  18.567  0.00  0.00    +0.000 A 
ENDBRANCH  17  20
ENDBRANCH  16  17
ENDBRANCH   3  16
TORSDOF 5
ENDMDL
MODEL 9
REMARK VINA RESULT:      -7.9      3.756      8.122
REMARK  Name = 
REMARK  5 active torsions:
REMARK  status: ('A' for Active; 'I' for Inactive)
REMARK    1  A    between atoms: C_2  and  C_3
REMARK    2  A    between atoms: C_3  and  C_4
REMARK    3  A    between atoms: N_13  and  C_14
REMARK    4  A    between atoms: C_14  and  C_15
REMARK    5  A    between atoms: C_15  and  C_16
REMARK                            x       y       z     vdW  Elec       q    Type
REMARK                         _______ _______ _______ _____ _____    ______ ____
ROOT
ATOM      1  O   UNL     1       2.485  10.323  17.968  0.00  0.00    +0.000 OA
ATOM      2  C   UNL     1       1.807   9.302  17.872  0.00  0.00    +0.000 C 
ATOM      3  N   UNL     1       2.352   8.051  17.723  0.00  0.00    +0.000 N 
ATOM      4  H   UNL     1       1.737   7.255  17.800  0.00  0.00    +0.000 HD
ENDROOT
BRANCH   2   5
ATOM      5  C   UNL     1       0.286   9.308  17.918  0.00  0.00    +0.000 C 
BRANCH   5   6
ATOM      6  C   UNL     1      -0.243  10.278  18.924  0.00  0.00    +0.000 A 
ATOM      7  C   UNL     1      -0.702  11.553  18.662  0.00  0.00    +0.000 A 
ATOM      8  N   UNL     1      -1.084  12.131  19.845  0.00  0.00    +0.000 N 
ATOM      9  C   UNL     1      -0.867  11.258  20.889  0.00  0.00    +0.000 A 
ATOM     10  C   UNL     1      -1.087  11.426  22.262  0.00  0.00    +0.000 A 
ATOM     11  C   UNL     1      -0.767  10.358  23.106  0.00  0.00    +0.000 A 
ATOM     12  C   UNL     1      -0.249   9.172  22.594  0.00  0.00    +0.000 A 
ATOM     13  C   UNL     1      -0.032   9.022  21.218  0.00  0.00    +0.000 A 
ATOM     14  C   UNL     1      -0.346  10.083  20.342  0.00  0.00    +0.000 A 
ATOM     15  H   UNL     1      -1.460  13.058  19.947  0.00  0.00    +0.000 HD
ENDBRANCH   5   6
ENDBRANCH   2   5
BRANCH   3  16
ATOM     16  C   UNL     1       3.779   7.805  17.726  0.00  0.00    +0.000 C 
BRANCH  16  17
ATOM     17  C   UNL     1       4.025   6.298  17.758  0.00  0.00    +0.000 C 
ATOM     18  C   UNL     1       5.457   5.798  17.777  0.00  0.00    +0.000 C 
ATOM     19  C   UNL     1       4.652   5.677  16.518  0.00  0.00    +0.000 C 
BRANCH  17  20
ATOM     20  C   UNL     1       2.940   5.532  18.518  0.00  0.00    +0.000 A 
ATOM     21  C   UNL     1       2.001   4.747  17.820  0.00  0.00    +0.000 A 
ATOM     22  C   UNL     1       1.216   3.793  18.474  0.00  0.00    +0.000 A 
ATOM     23  C   UNL     1       1.327   3.632  19.852  0.00  0.00    +0.000 A 
ATOM     24  C   UNL     1       2.185   4.456  20.564  0.00  0.00    +0.000 A 
ATOM     25  F   UNL     1       2.309   4.298  21.888  0.00  0.00    +0.000 F 
ATOM     26  C   UNL     1       2.976   5.401  19.917  0.00  0.00    +0.000 A 
ENDBRANCH  17  20
ENDBRANCH  16  17
ENDBRANCH   3  16
TORSDOF 5
ENDMDL
