MODEL 1
REMARK VINA RESULT:      -9.2      0.000      0.000
REMARK  Name = 
REMARK  5 active torsions:
REMARK  status: ('A' for Active; 'I' for Inactive)
REMARK    1  A    between atoms: C_5  and  C_6
REMARK    2  A    between atoms: C_6  and  N_7
REMARK    3  A    between atoms: C_15  and  C_16
REMARK    4  A    between atoms: N_22  and  C_23
REMARK    5  A    between atoms: C_27  and  C_28
REMARK                            x       y       z     vdW  Elec       q    Type
REMARK                         _______ _______ _______ _____ _____    ______ ____
ROOT
ATOM      1  O   UNL     1       2.348   7.985  17.445  0.00  0.00    +0.000 OA
ATOM      2  C   UNL     1       1.991   7.989  18.610  0.00  0.00    +0.000 C 
ATOM      3  C   UNL     1       1.180   9.073  19.148  0.00  0.00    +0.000 A 
ATOM      4  C   UNL     1       0.703  10.170  18.464  0.00  0.00    +0.000 A 
ATOM      5  C   UNL     1      -0.103  11.073  19.155  0.00  0.00    +0.000 A 
ATOM      6  C   UNL     1      -0.340  10.865  20.537  0.00  0.00    +0.000 A 
ATOM      7  C   UNL     1       0.188   9.754  21.233  0.00  0.00    +0.000 A 
ATOM      8  C   UNL     1       0.945   8.846  20.499  0.00  0.00    +0.000 A 
ATOM      9  C   UNL     1       1.635   7.580  20.905  0.00  0.00    +0.000 C 
ATOM     10  N   UNL     1       2.235   7.109  19.660  0.00  0.00    +0.000 N 
ENDROOT
BRANCH  10  11
ATOM     11  C   UNL     1       3.083   5.973  19.581  0.00  0.00    +0.000 A 
ATOM     12  C   UNL     1       2.751   4.768  20.221  0.00  0.00    +0.000 A 
ATOM     13  C   UNL     1       3.520   3.614  20.044  0.00  0.00    +0.000 A 
ATOM     14  C   UNL     1       4.631   3.644  19.212  0.00  0.00    +0.000 A 
ATOM     15  C   UNL     1       4.986   4.841  18.597  0.00  0.00    +0.000 A 
ATOM     16  C   UNL     1       4.246   6.008  18.806  0.00  0.00    +0.000 A 
BRANCH  15  17
ATOM     17  C   UNL     1       6.108   4.857  17.645  0.00  0.00    +0.000 C 
ATOM     18  C   UNL     1       6.270   5.079  16.319  0.00  0.00    +0.000 C 
ATOM     19  N   UNL     1       7.552   4.800  16.310  0.00  0.00    +0.000 N 
ATOM     20  C   UNL     1       7.593   4.662  17.740  0.00  0.00    +0.000 C 
ATOM     21  H   UNL     1       8.228   5.434  15.894  0.00  0.00    +0.000 HD
ENDBRANCH  15  17
ENDBRANCH  10  11
BRANCH   7  22
ATOM     22  C   UNL     1      -0.060   9.566  22.707  0.00  0.00    +0.000 C 
ATOM     23  F   UNL     1       1.074   9.337  23.425  0.00  0.00    +0.000 F 
ATOM     24  F   UNL     1      -0.652  10.651  23.275  0.00  0.00    +0.000 F 
ATOM     25  F   UNL     1      -0.885   8.515  22.962  0.00  0.00    +0.000 F 
ENDBRANCH   7  22
BRANCH   5  26
ATOM     26  C   UNL     1      -0.740  12.230  18.408  0.00  0.00    +0.000 C 
BRANCH  26  27
ATOM     27  N   UNL     1      -2.095  11.980  17.895  0.00  0.00    +0.000 NA
ATOM     28  C   UNL     1      -3.088  11.753  18.936  0.00  0.00    +0.000 C 
ATOM     29  C   UNL     1      -4.509  12.009  18.522  0.00  0.00    +0.000 C 
ATOM     30  C   UNL     1      -5.060  11.894  17.307  0.00  0.00    +0.000 C 
ATOM     31  O   UNL     1      -4.511  11.383  16.165  0.00  0.00    +0.000 OA
ATOM     32  C   UNL     1      -3.479  10.426  16.390  0.00  0.00    +0.000 C 
ATOM     33  C   UNL     1      -2.127  11.044  16.763  0.00  0.00    +0.000 C 
ENDBRANCH  26  27
ENDBRANCH   5  26
TORSDOF 5
ENDMDL
MODEL 2
REMARK VINA RESULT:      -9.2      2.987      4.313
REMARK  Name = 
REMARK  5 active torsions:
REMARK  status: ('A' for Active; 'I' for Inactive)
REMARK    1  A    between atoms: C_5  and  C_6
REMARK    2  A    between atoms: C_6  and  N_7
REMARK    3  A    between atoms: C_15  and  C_16
REMARK    4  A    between atoms: N_22  and  C_23
REMARK    5  A    between atoms: C_27  and  C_28
REMARK                            x       y       z     vdW  Elec       q    Type
REMARK                         _______ _______ _______ _____ _____    ______ ____
ROOT
ATOM      1  O   UNL     1       2.120   9.861  17.154  0.00  0.00    +0.000 OA
ATOM      2  C   UNL     1       1.754   9.464  18.246  0.00  0.00    +0.000 C 
ATOM      3  C   UNL     1       1.056  10.343  19.175  0.00  0.00    +0.000 A 
ATOM      4  C   UNL     1       0.704  11.658  18.965  0.00  0.00    +0.000 A 
ATOM      5  C   UNL     1      -0.009  12.313  19.969  0.00  0.00    +0.000 A 
ATOM      6  C   UNL     1      -0.280  11.627  21.179  0.00  0.00    +0.000 A 
ATOM      7  C   UNL     1       0.122  10.289  21.393  0.00  0.00    +0.000 A 
ATOM      8  C   UNL     1       0.787   9.651  20.349  0.00  0.00    +0.000 A 
ATOM      9  C   UNL     1       1.336   8.262  20.232  0.00  0.00    +0.000 C 
ATOM     10  N   UNL     1       1.895   8.234  18.882  0.00  0.00    +0.000 N 
ENDROOT
BRANCH  10  11
ATOM     11  C   UNL     1       2.619   7.132  18.358  0.00  0.00    +0.000 A 
ATOM     12  C   UNL     1       3.902   7.293  17.813  0.00  0.00    +0.000 A 
ATOM     13  C   UNL     1       4.666   6.194  17.410  0.00  0.00    +0.000 A 
ATOM     14  C   UNL     1       4.160   4.909  17.556  0.00  0.00    +0.000 A 
ATOM     15  C   UNL     1       2.876   4.740  18.067  0.00  0.00    +0.000 A 
ATOM     16  C   UNL     1       2.092   5.839  18.431  0.00  0.00    +0.000 A 
BRANCH  15  17
ATOM     17  C   UNL     1       2.371   3.380  18.308  0.00  0.00    +0.000 C 
ATOM     18  C   UNL     1       2.846   2.118  18.189  0.00  0.00    +0.000 C 
ATOM     19  N   UNL     1       1.718   1.536  18.522  0.00  0.00    +0.000 N 
ATOM     20  C   UNL     1       1.092   2.792  18.832  0.00  0.00    +0.000 C 
ATOM     21  H   UNL     1       1.685   0.820  19.241  0.00  0.00    +0.000 HD
ENDBRANCH  15  17
ENDBRANCH  10  11
BRANCH   7  22
ATOM     22  C   UNL     1      -0.157   9.587  22.696  0.00  0.00    +0.000 C 
ATOM     23  F   UNL     1      -0.862   8.431  22.553  0.00  0.00    +0.000 F 
ATOM     24  F   UNL     1       0.983   9.253  23.359  0.00  0.00    +0.000 F 
ATOM     25  F   UNL     1      -0.874  10.361  23.556  0.00  0.00    +0.000 F 
ENDBRANCH   7  22
BRANCH   5  26
ATOM     26  C   UNL     1      -0.514  13.723  19.729  0.00  0.00    +0.000 C 
BRANCH  26  27
ATOM     27  N   UNL     1       0.501  14.688  19.278  0.00  0.00    +0.000 NA
ATOM     28  C   UNL     1       1.600  14.870  20.216  0.00  0.00    +0.000 C 
ATOM     29  C   UNL     1       2.865  15.406  19.611  0.00  0.00    +0.000 C 
ATOM     30  C   UNL     1       3.012  16.207  18.548  0.00  0.00    +0.000 C 
ATOM     31  O   UNL     1       2.047  16.852  17.828  0.00  0.00    +0.000 OA
ATOM     32  C   UNL     1       0.855  17.127  18.559  0.00  0.00    +0.000 C 
ATOM     33  C   UNL     1      -0.073  15.917  18.715  0.00  0.00    +0.000 C 
ENDBRANCH  26  27
ENDBRANCH   5  26
TORSDOF 5
ENDMDL
MODEL 3
REMARK VINA RESULT:      -9.2      2.305      3.411
REMARK  Name = 
REMARK  5 active torsions:
REMARK  status: ('A' for Active; 'I' for Inactive)
REMARK    1  A    between atoms: C_5  and  C_6
REMARK    2  A    between atoms: C_6  and  N_7
REMARK    3  A    between atoms: C_15  and  C_16
REMARK    4  A    between atoms: N_22  and  C_23
REMARK    5  A    between atoms: C_27  and  C_28
REMARK                            x       y       z     vdW  Elec       q    Type
REMARK                         _______ _______ _______ _____ _____    ______ ____
ROOT
ATOM      1  O   UNL     1       2.708   8.048  17.472  0.00  0.00    +0.000 OA
ATOM      2  C   UNL     1       2.232   8.023  18.594  0.00  0.00    +0.000 C 
ATOM      3  C   UNL     1       1.457   9.143  19.111  0.00  0.00    +0.000 A 
ATOM      4  C   UNL     1       1.142  10.309  18.448  0.00  0.00    +0.000 A 
ATOM      5  C   UNL     1       0.341  11.241  19.107  0.00  0.00    +0.000 A 
ATOM      6  C   UNL     1      -0.054  10.984  20.444  0.00  0.00    +0.000 A 
ATOM      7  C   UNL     1       0.311   9.800  21.123  0.00  0.00    +0.000 A 
ATOM      8  C   UNL     1       1.067   8.869  20.416  0.00  0.00    +0.000 A 
ATOM      9  C   UNL     1       1.609   7.531  20.815  0.00  0.00    +0.000 C 
ATOM     10  N   UNL     1       2.297   7.074  19.610  0.00  0.00    +0.000 N 
ENDROOT
BRANCH  10  11
ATOM     11  C   UNL     1       3.056   5.877  19.549  0.00  0.00    +0.000 A 
ATOM     12  C   UNL     1       2.587   4.684  20.121  0.00  0.00    +0.000 A 
ATOM     13  C   UNL     1       3.274   3.477  19.957  0.00  0.00    +0.000 A 
ATOM     14  C   UNL     1       4.441   3.442  19.207  0.00  0.00    +0.000 A 
ATOM     15  C   UNL     1       4.932   4.625  18.661  0.00  0.00    +0.000 A 
ATOM     16  C   UNL     1       4.272   5.842  18.859  0.00  0.00    +0.000 A 
BRANCH  15  17
ATOM     17  C   UNL     1       6.117   4.580  17.790  0.00  0.00    +0.000 C 
ATOM     18  C   UNL     1       7.449   4.772  17.932  0.00  0.00    +0.000 C 
ATOM     19  N   UNL     1       7.725   4.626  16.658  0.00  0.00    +0.000 N 
ATOM     20  C   UNL     1       6.370   4.262  16.345  0.00  0.00    +0.000 C 
ATOM     21  H   UNL     1       8.452   3.990  16.343  0.00  0.00    +0.000 HD
ENDBRANCH  15  17
ENDBRANCH  10  11
BRANCH   7  22
ATOM     22  C   UNL     1      -0.103   9.559  22.552  0.00  0.00    +0.000 C 
ATOM     23  F   UNL     1      -0.772  10.606  23.109  0.00  0.00    +0.000 F 
ATOM     24  F   UNL     1      -0.920   8.479  22.679  0.00  0.00    +0.000 F 
ATOM     25  F   UNL     1       0.962   9.319  23.364  0.00  0.00    +0.000 F 
ENDBRANCH   7  22
BRANCH   5  26
ATOM     26  C   UNL     1      -0.122  12.483  18.369  0.00  0.00    +0.000 C 
BRANCH  26  27
ATOM     27  N   UNL     1       0.736  13.666  18.526  0.00  0.00    +0.000 NA
ATOM     28  C   UNL     1       2.162  13.373  18.475  0.00  0.00    +0.000 C 
ATOM     29  C   UNL     1       3.036  14.538  18.113  0.00  0.00    +0.000 C 
ATOM     30  C   UNL     1       2.828  15.843  18.336  0.00  0.00    +0.000 C 
ATOM     31  O   UNL     1       1.841  16.435  19.071  0.00  0.00    +0.000 OA
ATOM     32  C   UNL     1       1.305  15.611  20.104  0.00  0.00    +0.000 C 
ATOM     33  C   UNL     1       0.304  14.563  19.606  0.00  0.00    +0.000 C 
ENDBRANCH  26  27
ENDBRANCH   5  26
TORSDOF 5
ENDMDL
MODEL 4
REMARK VINA RESULT:      -9.1      2.310      3.324
REMARK  Name = 
REMARK  5 active torsions:
REMARK  status: ('A' for Active; 'I' for Inactive)
REMARK    1  A    between atoms: C_5  and  C_6
REMARK    2  A    between atoms: C_6  and  N_7
REMARK    3  A    between atoms: C_15  and  C_16
REMARK    4  A    between atoms: N_22  and  C_23
REMARK    5  A    between atoms: C_27  and  C_28
REMARK                            x       y       z     vdW  Elec       q    Type
REMARK                         _______ _______ _______ _____ _____    ______ ____
ROOT
ATOM      1  O   UNL     1       2.676   8.171  17.536  0.00  0.00    +0.000 OA
ATOM      2  C   UNL     1       2.187   8.129  18.651  0.00  0.00    +0.000 C 
ATOM      3  C   UNL     1       1.435   9.255  19.190  0.00  0.00    +0.000 A 
ATOM      4  C   UNL     1       1.157  10.446  18.554  0.00  0.00    +0.000 A 
ATOM      5  C   UNL     1       0.373  11.381  19.230  0.00  0.00    +0.000 A 
ATOM      6  C   UNL     1      -0.044  11.099  20.555  0.00  0.00    +0.000 A 
ATOM      7  C   UNL     1       0.281   9.888  21.206  0.00  0.00    +0.000 A 
ATOM      8  C   UNL     1       1.021   8.957  20.482  0.00  0.00    +0.000 A 
ATOM      9  C   UNL     1       1.524   7.595  20.851  0.00  0.00    +0.000 C 
ATOM     10  N   UNL     1       2.214   7.152  19.642  0.00  0.00    +0.000 N 
ENDROOT
BRANCH  10  11
ATOM     11  C   UNL     1       2.943   5.937  19.558  0.00  0.00    +0.000 A 
ATOM     12  C   UNL     1       2.428   4.739  20.077  0.00  0.00    +0.000 A 
ATOM     13  C   UNL     1       3.087   3.521  19.887  0.00  0.00    +0.000 A 
ATOM     14  C   UNL     1       4.270   3.479  19.164  0.00  0.00    +0.000 A 
ATOM     15  C   UNL     1       4.806   4.666  18.671  0.00  0.00    +0.000 A 
ATOM     16  C   UNL     1       4.173   5.893  18.896  0.00  0.00    +0.000 A 
BRANCH  15  17
ATOM     17  C   UNL     1       6.010   4.618  17.828  0.00  0.00    +0.000 C 
ATOM     18  C   UNL     1       7.341   4.793  18.003  0.00  0.00    +0.000 C 
ATOM     19  N   UNL     1       7.645   4.660  16.733  0.00  0.00    +0.000 N 
ATOM     20  C   UNL     1       6.294   4.315  16.385  0.00  0.00    +0.000 C 
ATOM     21  H   UNL     1       8.372   4.021  16.428  0.00  0.00    +0.000 HD
ENDBRANCH  15  17
ENDBRANCH  10  11
BRANCH   7  22
ATOM     22  C   UNL     1      -0.155   9.620  22.622  0.00  0.00    +0.000 C 
ATOM     23  F   UNL     1      -0.851  10.648  23.182  0.00  0.00    +0.000 F 
ATOM     24  F   UNL     1      -0.958   8.526  22.719  0.00  0.00    +0.000 F 
ATOM     25  F   UNL     1       0.897   9.384  23.451  0.00  0.00    +0.000 F 
ENDBRANCH   7  22
BRANCH   5  26
ATOM     26  C   UNL     1      -0.049  12.654  18.520  0.00  0.00    +0.000 C 
BRANCH  26  27
ATOM     27  N   UNL     1       0.652  13.875  18.946  0.00  0.00    +0.000 NA
ATOM     28  C   UNL     1      -0.150  15.085  18.837  0.00  0.00    +0.000 C 
ATOM     29  C   UNL     1       0.297  16.222  19.709  0.00  0.00    +0.000 C 
ATOM     30  C   UNL     1       1.532  16.509  20.143  0.00  0.00    +0.000 C 
ATOM     31  O   UNL     1       2.716  15.926  19.791  0.00  0.00    +0.000 OA
ATOM     32  C   UNL     1       2.716  15.335  18.494  0.00  0.00    +0.000 C 
ATOM     33  C   UNL     1       2.026  13.967  18.434  0.00  0.00    +0.000 C 
ENDBRANCH  26  27
ENDBRANCH   5  26
TORSDOF 5
ENDMDL
MODEL 5
REMARK VINA RESULT:      -9.1      2.699      3.747
REMARK  Name = 
REMARK  5 active torsions:
REMARK  status: ('A' for Active; 'I' for Inactive)
REMARK    1  A    between atoms: C_5  and  C_6
REMARK    2  A    between atoms: C_6  and  N_7
REMARK    3  A    between atoms: C_15  and  C_16
REMARK    4  A    between atoms: N_22  and  C_23
REMARK    5  A    between atoms: C_27  and  C_28
REMARK                            x       y       z     vdW  Elec       q    Type
REMARK                         _______ _______ _______ _____ _____    ______ ____
ROOT
ATOM      1  O   UNL     1       2.263   9.215  17.096  0.00  0.00    +0.000 OA
ATOM      2  C   UNL     1       1.881   8.933  18.219  0.00  0.00    +0.000 C 
ATOM      3  C   UNL     1       1.242   9.926  19.072  0.00  0.00    +0.000 A 
ATOM      4  C   UNL     1       0.966  11.237  18.753  0.00  0.00    +0.000 A 
ATOM      5  C   UNL     1       0.299  12.014  19.700  0.00  0.00    +0.000 A 
ATOM      6  C   UNL     1      -0.003  11.449  20.964  0.00  0.00    +0.000 A 
ATOM      7  C   UNL     1       0.321  10.112  21.288  0.00  0.00    +0.000 A 
ATOM      8  C   UNL     1       0.941   9.352  20.301  0.00  0.00    +0.000 A 
ATOM      9  C   UNL     1       1.407   7.928  20.300  0.00  0.00    +0.000 C 
ATOM     10  N   UNL     1       1.955   7.755  18.956  0.00  0.00    +0.000 N 
ENDROOT
BRANCH  10  11
ATOM     11  C   UNL     1       2.610   6.572  18.525  0.00  0.00    +0.000 A 
ATOM     12  C   UNL     1       1.975   5.321  18.585  0.00  0.00    +0.000 A 
ATOM     13  C   UNL     1       2.570   4.176  18.050  0.00  0.00    +0.000 A 
ATOM     14  C   UNL     1       3.810   4.264  17.433  0.00  0.00    +0.000 A 
ATOM     15  C   UNL     1       4.462   5.494  17.395  0.00  0.00    +0.000 A 
ATOM     16  C   UNL     1       3.891   6.633  17.969  0.00  0.00    +0.000 A 
BRANCH  15  17
ATOM     17  C   UNL     1       5.734   5.612  16.664  0.00  0.00    +0.000 C 
ATOM     18  C   UNL     1       6.204   5.261  15.444  0.00  0.00    +0.000 C 
ATOM     19  N   UNL     1       7.433   5.657  15.674  0.00  0.00    +0.000 N 
ATOM     20  C   UNL     1       7.078   6.215  16.950  0.00  0.00    +0.000 C 
ATOM     21  H   UNL     1       7.921   6.270  15.028  0.00  0.00    +0.000 HD
ENDBRANCH  15  17
ENDBRANCH  10  11
BRANCH   7  22
ATOM     22  C   UNL     1       0.010   9.540  22.647  0.00  0.00    +0.000 C 
ATOM     23  F   UNL     1      -0.639  10.410  23.469  0.00  0.00    +0.000 F 
ATOM     24  F   UNL     1      -0.776   8.432  22.574  0.00  0.00    +0.000 F 
ATOM     25  F   UNL     1       1.131   9.157  23.315  0.00  0.00    +0.000 F 
ENDBRANCH   7  22
BRANCH   5  26
ATOM     26  C   UNL     1      -0.125  13.427  19.343  0.00  0.00    +0.000 C 
BRANCH  26  27
ATOM     27  N   UNL     1       0.971  14.349  19.011  0.00  0.00    +0.000 NA
ATOM     28  C   UNL     1       2.128  14.231  19.887  0.00  0.00    +0.000 C 
ATOM     29  C   UNL     1       3.417  14.738  19.307  0.00  0.00    +0.000 C 
ATOM     30  C   UNL     1       3.603  15.710  18.404  0.00  0.00    +0.000 C 
ATOM     31  O   UNL     1       2.687  16.579  17.886  0.00  0.00    +0.000 OA
ATOM     32  C   UNL     1       1.571  16.831  18.737  0.00  0.00    +0.000 C 
ATOM     33  C   UNL     1       0.518  15.717  18.727  0.00  0.00    +0.000 C 
ENDBRANCH  26  27
ENDBRANCH   5  26
TORSDOF 5
ENDMDL
MODEL 6
REMARK VINA RESULT:      -8.8      2.658      3.549
REMARK  Name = 
REMARK  5 active torsions:
REMARK  status: ('A' for Active; 'I' for Inactive)
REMARK    1  A    between atoms: C_5  and  C_6
REMARK    2  A    between atoms: C_6  and  N_7
REMARK    3  A    between atoms: C_15  and  C_16
REMARK    4  A    between atoms: N_22  and  C_23
REMARK    5  A    between atoms: C_27  and  C_28
REMARK                            x       y       z     vdW  Elec       q    Type
REMARK                         _______ _______ _______ _____ _____    ______ ____
ROOT
ATOM      1  O   UNL     1       2.315   9.026  17.147  0.00  0.00    +0.000 OA
ATOM      2  C   UNL     1       1.923   8.801  18.279  0.00  0.00    +0.000 C 
ATOM      3  C   UNL     1       1.230   9.821  19.055  0.00  0.00    +0.000 A 
ATOM      4  C   UNL     1       0.909  11.097  18.647  0.00  0.00    +0.000 A 
ATOM      5  C   UNL     1       0.194  11.906  19.530  0.00  0.00    +0.000 A 
ATOM      6  C   UNL     1      -0.110  11.412  20.823  0.00  0.00    +0.000 A 
ATOM      7  C   UNL     1       0.261  10.113  21.239  0.00  0.00    +0.000 A 
ATOM      8  C   UNL     1       0.928   9.316  20.313  0.00  0.00    +0.000 A 
ATOM      9  C   UNL     1       1.449   7.914  20.412  0.00  0.00    +0.000 C 
ATOM     10  N   UNL     1       2.029   7.677  19.092  0.00  0.00    +0.000 N 
ENDROOT
BRANCH  10  11
ATOM     11  C   UNL     1       2.737   6.496  18.750  0.00  0.00    +0.000 A 
ATOM     12  C   UNL     1       2.227   5.224  19.053  0.00  0.00    +0.000 A 
ATOM     13  C   UNL     1       2.861   4.060  18.610  0.00  0.00    +0.000 A 
ATOM     14  C   UNL     1       4.015   4.150  17.844  0.00  0.00    +0.000 A 
ATOM     15  C   UNL     1       4.547   5.406  17.563  0.00  0.00    +0.000 A 
ATOM     16  C   UNL     1       3.940   6.571  18.042  0.00  0.00    +0.000 A 
BRANCH  15  17
ATOM     17  C   UNL     1       5.717   5.511  16.677  0.00  0.00    +0.000 C 
ATOM     18  C   UNL     1       6.980   5.989  16.769  0.00  0.00    +0.000 C 
ATOM     19  N   UNL     1       7.281   5.765  15.512  0.00  0.00    +0.000 N 
ATOM     20  C   UNL     1       6.032   5.097  15.269  0.00  0.00    +0.000 C 
ATOM     21  H   UNL     1       8.125   5.263  15.251  0.00  0.00    +0.000 HD
ENDBRANCH  15  17
ENDBRANCH  10  11
BRANCH   7  22
ATOM     22  C   UNL     1      -0.054   9.617  22.626  0.00  0.00    +0.000 C 
ATOM     23  F   UNL     1       1.049   9.260  23.340  0.00  0.00    +0.000 F 
ATOM     24  F   UNL     1      -0.701  10.551  23.375  0.00  0.00    +0.000 F 
ATOM     25  F   UNL     1      -0.864   8.524  22.613  0.00  0.00    +0.000 F 
ENDBRANCH   7  22
BRANCH   5  26
ATOM     26  C   UNL     1      -0.277  13.275  19.075  0.00  0.00    +0.000 C 
BRANCH  26  27
ATOM     27  N   UNL     1       0.529  14.409  19.549  0.00  0.00    +0.000 NA
ATOM     28  C   UNL     1      -0.259  15.533  20.033  0.00  0.00    +0.000 C 
ATOM     29  C   UNL     1       0.462  16.455  20.974  0.00  0.00    +0.000 C 
ATOM     30  C   UNL     1       1.771  16.733  21.035  0.00  0.00    +0.000 C 
ATOM     31  O   UNL     1       2.762  16.361  20.173  0.00  0.00    +0.000 OA
ATOM     32  C   UNL     1       2.318  16.111  18.841  0.00  0.00    +0.000 C 
ATOM     33  C   UNL     1       1.646  14.746  18.656  0.00  0.00    +0.000 C 
ENDBRANCH  26  27
ENDBRANCH   5  26
TORSDOF 5
ENDMDL
MODEL 7
REMARK VINA RESULT:      -8.8      3.165      4.552
REMARK  Name = 
REMARK  5 active torsions:
REMARK  status: ('A' for Active; 'I' for Inactive)
REMARK    1  A    between atoms: C_5  and  C_6
REMARK    2  A    between atoms: C_6  and  N_7
REMARK    3  A    between atoms: C_15  and  C_16
REMARK    4  A    between atoms: N_22  and  C_23
REMARK    5  A    between atoms: C_27  and  C_28
REMARK                            x       y       z     vdW  Elec       q    Type
REMARK                         _______ _______ _______ _____ _____    ______ ____
ROOT
ATOM      1  O   UNL     1       2.202   9.799  17.158  0.00  0.00    +0.000 OA
ATOM      2  C   UNL     1       1.826   9.394  18.244  0.00  0.00    +0.000 C 
ATOM      3  C   UNL     1       1.152  10.276  19.188  0.00  0.00    +0.000 A 
ATOM      4  C   UNL     1       0.834  11.603  19.000  0.00  0.00    +0.000 A 
ATOM      5  C   UNL     1       0.138  12.259  20.014  0.00  0.00    +0.000 A 
ATOM      6  C   UNL     1      -0.149  11.561  21.214  0.00  0.00    +0.000 A 
ATOM      7  C   UNL     1       0.219  10.210  21.406  0.00  0.00    +0.000 A 
ATOM      8  C   UNL     1       0.866   9.572  20.351  0.00  0.00    +0.000 A 
ATOM      9  C   UNL     1       1.379   8.171  20.211  0.00  0.00    +0.000 C 
ATOM     10  N   UNL     1       1.936   8.151  18.861  0.00  0.00    +0.000 N 
ENDROOT
BRANCH  10  11
ATOM     11  C   UNL     1       2.631   7.039  18.318  0.00  0.00    +0.000 A 
ATOM     12  C   UNL     1       3.906   7.181  17.748  0.00  0.00    +0.000 A 
ATOM     13  C   UNL     1       4.643   6.071  17.326  0.00  0.00    +0.000 A 
ATOM     14  C   UNL     1       4.119   4.794  17.477  0.00  0.00    +0.000 A 
ATOM     15  C   UNL     1       2.843   4.644  18.014  0.00  0.00    +0.000 A 
ATOM     16  C   UNL     1       2.084   5.754  18.396  0.00  0.00    +0.000 A 
BRANCH  15  17
ATOM     17  C   UNL     1       2.319   3.291  18.260  0.00  0.00    +0.000 C 
ATOM     18  C   UNL     1       1.120   2.741  18.561  0.00  0.00    +0.000 C 
ATOM     19  N   UNL     1       1.582   1.519  18.690  0.00  0.00    +0.000 N 
ATOM     20  C   UNL     1       2.895   1.905  18.251  0.00  0.00    +0.000 C 
ATOM     21  H   UNL     1       1.151   0.737  18.206  0.00  0.00    +0.000 HD
ENDBRANCH  15  17
ENDBRANCH  10  11
BRANCH   7  22
ATOM     22  C   UNL     1      -0.077   9.495  22.698  0.00  0.00    +0.000 C 
ATOM     23  F   UNL     1      -0.805  10.238  23.578  0.00  0.00    +0.000 F 
ATOM     24  F   UNL     1      -0.781   8.346  22.505  0.00  0.00    +0.000 F 
ATOM     25  F   UNL     1       1.055   9.132  23.359  0.00  0.00    +0.000 F 
ENDBRANCH   7  22
BRANCH   5  26
ATOM     26  C   UNL     1      -0.330  13.686  19.797  0.00  0.00    +0.000 C 
BRANCH  26  27
ATOM     27  N   UNL     1       0.680  14.726  20.045  0.00  0.00    +0.000 NA
ATOM     28  C   UNL     1       1.513  15.027  18.889  0.00  0.00    +0.000 C 
ATOM     29  C   UNL     1       2.169  16.377  18.916  0.00  0.00    +0.000 C 
ATOM     30  C   UNL     1       2.548  17.103  19.976  0.00  0.00    +0.000 C 
ATOM     31  O   UNL     1       2.564  16.744  21.293  0.00  0.00    +0.000 OA
ATOM     32  C   UNL     1       2.691  15.342  21.517  0.00  0.00    +0.000 C 
ATOM     33  C   UNL     1       1.388  14.560  21.321  0.00  0.00    +0.000 C 
ENDBRANCH  26  27
ENDBRANCH   5  26
TORSDOF 5
ENDMDL
MODEL 8
REMARK VINA RESULT:      -8.8      2.519      3.478
REMARK  Name = 
REMARK  5 active torsions:
REMARK  status: ('A' for Active; 'I' for Inactive)
REMARK    1  A    between atoms: C_5  and  C_6
REMARK    2  A    between atoms: C_6  and  N_7
REMARK    3  A    between atoms: C_15  and  C_16
REMARK    4  A    between atoms: N_22  and  C_23
REMARK    5  A    between atoms: C_27  and  C_28
REMARK                            x       y       z     vdW  Elec       q    Type
REMARK                         _______ _______ _______ _____ _____    ______ ____
ROOT
ATOM      1  O   UNL     1       1.784   9.640  17.096  0.00  0.00    +0.000 OA
ATOM      2  C   UNL     1       1.548   9.267  18.232  0.00  0.00    +0.000 C 
ATOM      3  C   UNL     1       0.835  10.120  19.174  0.00  0.00    +0.000 A 
ATOM      4  C   UNL     1       0.329  11.379  18.934  0.00  0.00    +0.000 A 
ATOM      5  C   UNL     1      -0.370  12.011  19.962  0.00  0.00    +0.000 A 
ATOM      6  C   UNL     1      -0.471  11.367  21.221  0.00  0.00    +0.000 A 
ATOM      7  C   UNL     1       0.086  10.091  21.462  0.00  0.00    +0.000 A 
ATOM      8  C   UNL     1       0.732   9.469  20.397  0.00  0.00    +0.000 A 
ATOM      9  C   UNL     1       1.414   8.139  20.299  0.00  0.00    +0.000 C 
ATOM     10  N   UNL     1       1.868   8.095  18.911  0.00  0.00    +0.000 N 
ENDROOT
BRANCH  10  11
ATOM     11  C   UNL     1       2.662   7.046  18.380  0.00  0.00    +0.000 A 
ATOM     12  C   UNL     1       3.922   7.297  17.813  0.00  0.00    +0.000 A 
ATOM     13  C   UNL     1       4.757   6.255  17.403  0.00  0.00    +0.000 A 
ATOM     14  C   UNL     1       4.349   4.938  17.563  0.00  0.00    +0.000 A 
ATOM     15  C   UNL     1       3.090   4.678  18.096  0.00  0.00    +0.000 A 
ATOM     16  C   UNL     1       2.233   5.718  18.467  0.00  0.00    +0.000 A 
BRANCH  15  17
ATOM     17  C   UNL     1       2.689   3.285  18.351  0.00  0.00    +0.000 C 
ATOM     18  C   UNL     1       3.313   2.093  18.493  0.00  0.00    +0.000 C 
ATOM     19  N   UNL     1       2.207   1.394  18.597  0.00  0.00    +0.000 N 
ATOM     20  C   UNL     1       1.389   2.576  18.601  0.00  0.00    +0.000 C 
ATOM     21  H   UNL     1       2.064   0.738  19.359  0.00  0.00    +0.000 HD
ENDBRANCH  15  17
ENDBRANCH  10  11
BRANCH   7  22
ATOM     22  C   UNL     1      -0.016   9.437  22.815  0.00  0.00    +0.000 C 
ATOM     23  F   UNL     1      -0.718  10.169  23.723  0.00  0.00    +0.000 F 
ATOM     24  F   UNL     1      -0.627   8.222  22.758  0.00  0.00    +0.000 F 
ATOM     25  F   UNL     1       1.204   9.214  23.374  0.00  0.00    +0.000 F 
ENDBRANCH   7  22
BRANCH   5  26
ATOM     26  C   UNL     1      -1.039  13.347  19.699  0.00  0.00    +0.000 C 
BRANCH  26  27
ATOM     27  N   UNL     1      -2.207  13.643  20.541  0.00  0.00    +0.000 NA
ATOM     28  C   UNL     1      -3.420  12.947  20.134  0.00  0.00    +0.000 C 
ATOM     29  C   UNL     1      -4.456  12.798  21.211  0.00  0.00    +0.000 C 
ATOM     30  C   UNL     1      -4.697  13.599  22.257  0.00  0.00    +0.000 C 
ATOM     31  O   UNL     1      -4.160  14.823  22.536  0.00  0.00    +0.000 OA
ATOM     32  C   UNL     1      -3.714  15.542  21.389  0.00  0.00    +0.000 C 
ATOM     33  C   UNL     1      -2.359  15.072  20.847  0.00  0.00    +0.000 C 
ENDBRANCH  26  27
ENDBRANCH   5  26
TORSDOF 5
ENDMDL
MODEL 9
REMARK VINA RESULT:      -8.8      3.326      4.432
REMARK  Name = 
REMARK  5 active torsions:
REMARK  status: ('A' for Active; 'I' for Inactive)
REMARK    1  A    between atoms: C_5  and  C_6
REMARK    2  A    between atoms: C_6  and  N_7
REMARK    3  A    between atoms: C_15  and  C_16
REMARK    4  A    between atoms: N_22  and  C_23
REMARK    5  A    between atoms: C_27  and  C_28
REMARK                            x       y       z     vdW  Elec       q    Type
REMARK                         _______ _______ _______ _____ _____    ______ ____
ROOT
ATOM      1  O   UNL     1       2.202   9.869  17.215  0.00  0.00    +0.000 OA
ATOM      2  C   UNL     1       1.810   9.447  18.289  0.00  0.00    +0.000 C 
ATOM      3  C   UNL     1       1.133  10.318  19.242  0.00  0.00    +0.000 A 
ATOM      4  C   UNL     1       0.828  11.651  19.074  0.00  0.00    +0.000 A 
ATOM      5  C   UNL     1       0.126  12.295  20.093  0.00  0.00    +0.000 A 
ATOM      6  C   UNL     1      -0.181  11.577  21.276  0.00  0.00    +0.000 A 
ATOM      7  C   UNL     1       0.173  10.220  21.447  0.00  0.00    +0.000 A 
ATOM      8  C   UNL     1       0.826   9.596  20.389  0.00  0.00    +0.000 A 
ATOM      9  C   UNL     1       1.329   8.193  20.229  0.00  0.00    +0.000 C 
ATOM     10  N   UNL     1       1.902   8.193  18.884  0.00  0.00    +0.000 N 
ENDROOT
BRANCH  10  11
ATOM     11  C   UNL     1       2.593   7.084  18.330  0.00  0.00    +0.000 A 
ATOM     12  C   UNL     1       3.835   7.241  17.694  0.00  0.00    +0.000 A 
ATOM     13  C   UNL     1       4.574   6.139  17.257  0.00  0.00    +0.000 A 
ATOM     14  C   UNL     1       4.087   4.855  17.459  0.00  0.00    +0.000 A 
ATOM     15  C   UNL     1       2.843   4.689  18.062  0.00  0.00    +0.000 A 
ATOM     16  C   UNL     1       2.080   5.791  18.461  0.00  0.00    +0.000 A 
BRANCH  15  17
ATOM     17  C   UNL     1       2.363   3.331  18.361  0.00  0.00    +0.000 C 
ATOM     18  C   UNL     1       2.913   2.103  18.507  0.00  0.00    +0.000 C 
ATOM     19  N   UNL     1       1.769   1.480  18.663  0.00  0.00    +0.000 N 
ATOM     20  C   UNL     1       1.030   2.713  18.671  0.00  0.00    +0.000 C 
ATOM     21  H   UNL     1       1.612   0.849  19.444  0.00  0.00    +0.000 HD
ENDBRANCH  15  17
ENDBRANCH  10  11
BRANCH   7  22
ATOM     22  C   UNL     1      -0.145   9.484  22.723  0.00  0.00    +0.000 C 
ATOM     23  F   UNL     1      -0.871  10.220  23.610  0.00  0.00    +0.000 F 
ATOM     24  F   UNL     1      -0.861   8.349  22.501  0.00  0.00    +0.000 F 
ATOM     25  F   UNL     1       0.976   9.094  23.387  0.00  0.00    +0.000 F 
ENDBRANCH   7  22
BRANCH   5  26
ATOM     26  C   UNL     1      -0.327  13.729  19.897  0.00  0.00    +0.000 C 
BRANCH  26  27
ATOM     27  N   UNL     1      -0.241  14.587  21.088  0.00  0.00    +0.000 NA
ATOM     28  C   UNL     1      -1.241  15.644  21.129  0.00  0.00    +0.000 C 
ATOM     29  C   UNL     1      -1.530  16.189  22.498  0.00  0.00    +0.000 C 
ATOM     30  C   UNL     1      -0.716  16.265  23.558  0.00  0.00    +0.000 C 
ATOM     31  O   UNL     1       0.621  15.998  23.627  0.00  0.00    +0.000 OA
ATOM     32  C   UNL     1       1.315  16.159  22.393  0.00  0.00    +0.000 C 
ATOM     33  C   UNL     1       1.133  14.989  21.419  0.00  0.00    +0.000 C 
ENDBRANCH  26  27
ENDBRANCH   5  26
TORSDOF 5
ENDMDL
