MODEL 1
REMARK VINA RESULT:      -7.4      0.000      0.000
REMARK  Name = 
REMARK  3 active torsions:
REMARK  status: ('A' for Active; 'I' for Inactive)
REMARK    1  A    between atoms: C_8  and  C_9
REMARK    2  A    between atoms: C_13  and  C_14
REMARK    3  A    between atoms: C_14  and  O_16
REMARK                            x       y       z     vdW  Elec       q    Type
REMARK                         _______ _______ _______ _____ _____    ______ ____
ROOT
ATOM      1  C   UNL     1      -1.063  12.404  21.884  0.00  0.00    +0.000 C 
ATOM      2  O   UNL     1      -0.160  12.505  22.716  0.00  0.00    +0.000 OA
ATOM      3  N   UNL     1      -0.875  11.668  20.708  0.00  0.00    +0.000 N 
ATOM      4  C   UNL     1       0.270  10.729  20.669  0.00  0.00    +0.000 C 
ATOM      5  C   UNL     1       0.247  10.051  19.299  0.00  0.00    +0.000 C 
ATOM      6  C   UNL     1      -1.114  10.435  18.793  0.00  0.00    +0.000 A 
ATOM      7  C   UNL     1      -1.769   9.916  17.682  0.00  0.00    +0.000 A 
ATOM      8  C   UNL     1      -2.991  10.477  17.319  0.00  0.00    +0.000 A 
ATOM      9  C   UNL     1      -3.482  11.593  18.003  0.00  0.00    +0.000 A 
ATOM     10  C   UNL     1      -2.782  12.127  19.092  0.00  0.00    +0.000 A 
ATOM     11  C   UNL     1      -1.656  11.473  19.554  0.00  0.00    +0.000 A 
ENDROOT
BRANCH   1  19
ATOM     12  O   UNL     1      -7.895  12.140  23.981  0.00  0.00    +0.000 OA
ATOM     13  C   UNL     1      -6.909  12.822  23.719  0.00  0.00    +0.000 C 
ATOM     14  C   UNL     1      -6.910  14.349  23.688  0.00  0.00    +0.000 C 
ATOM     15  O   UNL     1      -5.988  15.001  22.821  0.00  0.00    +0.000 OA
ATOM     16  C   UNL     1      -4.788  14.353  22.706  0.00  0.00    +0.000 A 
ATOM     17  C   UNL     1      -3.745  15.054  22.105  0.00  0.00    +0.000 A 
ATOM     18  C   UNL     1      -2.532  14.407  21.846  0.00  0.00    +0.000 A 
ATOM     19  C   UNL     1      -2.349  13.066  22.223  0.00  0.00    +0.000 A 
ATOM     20  C   UNL     1      -3.352  12.418  22.943  0.00  0.00    +0.000 A 
ATOM     21  C   UNL     1      -4.595  13.026  23.091  0.00  0.00    +0.000 A 
ATOM     22  N   UNL     1      -5.675  12.260  23.530  0.00  0.00    +0.000 N 
ATOM     23  H   UNL     1      -5.610  11.254  23.616  0.00  0.00    +0.000 HD
ENDBRANCH   1  19
BRANCH   5  24
ATOM     24  C   UNL     1       1.376  10.584  18.441  0.00  0.00    +0.000 C 
ATOM     25  O   UNL     1       1.874  11.689  18.616  0.00  0.00    +0.000 OA
BRANCH  24  26
ATOM     26  O   UNL     1       1.795   9.770  17.448  0.00  0.00    +0.000 OA
ATOM     27  H   UNL     1       1.220   8.993  17.280  0.00  0.00    +0.000 HD
ENDBRANCH  24  26
ENDBRANCH   5  24
TORSDOF 3
ENDMDL
MODEL 2
REMARK VINA RESULT:      -7.3      8.466     12.946
REMARK  Name = 
REMARK  3 active torsions:
REMARK  status: ('A' for Active; 'I' for Inactive)
REMARK    1  A    between atoms: C_8  and  C_9
REMARK    2  A    between atoms: C_13  and  C_14
REMARK    3  A    between atoms: C_14  and  O_16
REMARK                            x       y       z     vdW  Elec       q    Type
REMARK                         _______ _______ _______ _____ _____    ______ ____
ROOT
ATOM      1  C   UNL     1       4.917   3.243  18.742  0.00  0.00    +0.000 C 
ATOM      2  O   UNL     1       5.315   2.124  19.070  0.00  0.00    +0.000 OA
ATOM      3  N   UNL     1       3.889   3.875  19.452  0.00  0.00    +0.000 N 
ATOM      4  C   UNL     1       3.565   3.343  20.796  0.00  0.00    +0.000 C 
ATOM      5  C   UNL     1       2.432   4.203  21.357  0.00  0.00    +0.000 C 
ATOM      6  C   UNL     1       2.429   5.362  20.401  0.00  0.00    +0.000 A 
ATOM      7  C   UNL     1       1.748   6.564  20.549  0.00  0.00    +0.000 A 
ATOM      8  C   UNL     1       1.795   7.479  19.500  0.00  0.00    +0.000 A 
ATOM      9  C   UNL     1       2.431   7.141  18.302  0.00  0.00    +0.000 A 
ATOM     10  C   UNL     1       3.072   5.904  18.159  0.00  0.00    +0.000 A 
ATOM     11  C   UNL     1       3.166   5.065  19.253  0.00  0.00    +0.000 A 
ENDROOT
BRANCH   1  19
ATOM     12  O   UNL     1       6.809   3.387  11.847  0.00  0.00    +0.000 OA
ATOM     13  C   UNL     1       6.776   3.958  12.933  0.00  0.00    +0.000 C 
ATOM     14  C   UNL     1       7.440   5.305  13.210  0.00  0.00    +0.000 C 
ATOM     15  O   UNL     1       7.877   5.575  14.538  0.00  0.00    +0.000 OA
ATOM     16  C   UNL     1       7.065   5.044  15.503  0.00  0.00    +0.000 A 
ATOM     17  C   UNL     1       7.262   5.485  16.809  0.00  0.00    +0.000 A 
ATOM     18  C   UNL     1       6.550   4.891  17.857  0.00  0.00    +0.000 A 
ATOM     19  C   UNL     1       5.613   3.879  17.594  0.00  0.00    +0.000 A 
ATOM     20  C   UNL     1       5.329   3.541  16.271  0.00  0.00    +0.000 A 
ATOM     21  C   UNL     1       6.122   4.048  15.246  0.00  0.00    +0.000 A 
ATOM     22  N   UNL     1       6.038   3.473  13.978  0.00  0.00    +0.000 N 
ATOM     23  H   UNL     1       5.518   2.619  13.818  0.00  0.00    +0.000 HD
ENDBRANCH   1  19
BRANCH   5  24
ATOM     24  C   UNL     1       1.136   3.418  21.348  0.00  0.00    +0.000 C 
ATOM     25  O   UNL     1       0.856   2.595  22.211  0.00  0.00    +0.000 OA
BRANCH  24  26
ATOM     26  O   UNL     1       0.306   3.664  20.311  0.00  0.00    +0.000 OA
ATOM     27  H   UNL     1       0.753   3.825  19.453  0.00  0.00    +0.000 HD
ENDBRANCH  24  26
ENDBRANCH   5  24
TORSDOF 3
ENDMDL
MODEL 3
REMARK VINA RESULT:      -7.3      5.702      8.547
REMARK  Name = 
REMARK  3 active torsions:
REMARK  status: ('A' for Active; 'I' for Inactive)
REMARK    1  A    between atoms: C_8  and  C_9
REMARK    2  A    between atoms: C_13  and  C_14
REMARK    3  A    between atoms: C_14  and  O_16
REMARK                            x       y       z     vdW  Elec       q    Type
REMARK                         _______ _______ _______ _____ _____    ______ ____
ROOT
ATOM      1  C   UNL     1       3.516   6.407  18.115  0.00  0.00    +0.000 C 
ATOM      2  O   UNL     1       4.326   6.704  17.236  0.00  0.00    +0.000 OA
ATOM      3  N   UNL     1       3.490   5.117  18.660  0.00  0.00    +0.000 N 
ATOM      4  C   UNL     1       4.674   4.259  18.431  0.00  0.00    +0.000 C 
ATOM      5  C   UNL     1       4.402   2.925  19.128  0.00  0.00    +0.000 C 
ATOM      6  C   UNL     1       3.208   3.263  19.974  0.00  0.00    +0.000 A 
ATOM      7  C   UNL     1       2.659   2.490  20.990  0.00  0.00    +0.000 A 
ATOM      8  C   UNL     1       1.486   2.936  21.593  0.00  0.00    +0.000 A 
ATOM      9  C   UNL     1       0.839   4.078  21.111  0.00  0.00    +0.000 A 
ATOM     10  C   UNL     1       1.388   4.816  20.055  0.00  0.00    +0.000 A 
ATOM     11  C   UNL     1       2.632   4.468  19.567  0.00  0.00    +0.000 A 
ENDROOT
BRANCH   1  19
ATOM     12  O   UNL     1      -0.646   9.423  23.087  0.00  0.00    +0.000 OA
ATOM     13  C   UNL     1      -0.097   9.510  21.993  0.00  0.00    +0.000 C 
ATOM     14  C   UNL     1      -0.294  10.676  21.027  0.00  0.00    +0.000 C 
ATOM     15  O   UNL     1      -0.151  10.423  19.633  0.00  0.00    +0.000 OA
ATOM     16  C   UNL     1       0.812   9.495  19.339  0.00  0.00    +0.000 A 
ATOM     17  C   UNL     1       1.203   9.391  18.007  0.00  0.00    +0.000 A 
ATOM     18  C   UNL     1       2.091   8.380  17.621  0.00  0.00    +0.000 A 
ATOM     19  C   UNL     1       2.617   7.496  18.577  0.00  0.00    +0.000 A 
ATOM     20  C   UNL     1       2.320   7.695  19.925  0.00  0.00    +0.000 A 
ATOM     21  C   UNL     1       1.349   8.623  20.286  0.00  0.00    +0.000 A 
ATOM     22  N   UNL     1       0.839   8.598  21.585  0.00  0.00    +0.000 N 
ATOM     23  H   UNL     1       1.059   7.845  22.224  0.00  0.00    +0.000 HD
ENDBRANCH   1  19
BRANCH   5  24
ATOM     24  C   UNL     1       4.121   1.852  18.097  0.00  0.00    +0.000 C 
ATOM     25  O   UNL     1       3.655   2.103  16.991  0.00  0.00    +0.000 OA
BRANCH  24  26
ATOM     26  O   UNL     1       4.395   0.585  18.475  0.00  0.00    +0.000 OA
ATOM     27  H   UNL     1       5.181   0.185  18.044  0.00  0.00    +0.000 HD
ENDBRANCH  24  26
ENDBRANCH   5  24
TORSDOF 3
ENDMDL
MODEL 4
REMARK VINA RESULT:      -7.3      5.617      8.642
REMARK  Name = 
REMARK  3 active torsions:
REMARK  status: ('A' for Active; 'I' for Inactive)
REMARK    1  A    between atoms: C_8  and  C_9
REMARK    2  A    between atoms: C_13  and  C_14
REMARK    3  A    between atoms: C_14  and  O_16
REMARK                            x       y       z     vdW  Elec       q    Type
REMARK                         _______ _______ _______ _____ _____    ______ ____
ROOT
ATOM      1  C   UNL     1       1.790   5.704  19.730  0.00  0.00    +0.000 C 
ATOM      2  O   UNL     1       1.033   5.264  20.596  0.00  0.00    +0.000 OA
ATOM      3  N   UNL     1       2.619   4.845  18.998  0.00  0.00    +0.000 N 
ATOM      4  C   UNL     1       2.294   3.400  19.026  0.00  0.00    +0.000 C 
ATOM      5  C   UNL     1       3.329   2.691  18.151  0.00  0.00    +0.000 C 
ATOM      6  C   UNL     1       3.966   3.849  17.437  0.00  0.00    +0.000 A 
ATOM      7  C   UNL     1       4.828   3.786  16.348  0.00  0.00    +0.000 A 
ATOM      8  C   UNL     1       5.392   4.973  15.888  0.00  0.00    +0.000 A 
ATOM      9  C   UNL     1       5.165   6.170  16.574  0.00  0.00    +0.000 A 
ATOM     10  C   UNL     1       4.329   6.201  17.696  0.00  0.00    +0.000 A 
ATOM     11  C   UNL     1       3.640   5.058  18.054  0.00  0.00    +0.000 A 
ENDROOT
BRANCH   1  19
ATOM     12  O   UNL     1       0.261  12.358  21.858  0.00  0.00    +0.000 OA
ATOM     13  C   UNL     1       0.767  11.621  21.016  0.00  0.00    +0.000 C 
ATOM     14  C   UNL     1       1.340  12.109  19.687  0.00  0.00    +0.000 C 
ATOM     15  O   UNL     1       1.321  11.212  18.581  0.00  0.00    +0.000 OA
ATOM     16  C   UNL     1       1.520   9.904  18.930  0.00  0.00    +0.000 A 
ATOM     17  C   UNL     1       1.788   9.007  17.899  0.00  0.00    +0.000 A 
ATOM     18  C   UNL     1       1.878   7.638  18.175  0.00  0.00    +0.000 A 
ATOM     19  C   UNL     1       1.737   7.169  19.491  0.00  0.00    +0.000 A 
ATOM     20  C   UNL     1       1.603   8.089  20.531  0.00  0.00    +0.000 A 
ATOM     21  C   UNL     1       1.396   9.433  20.238  0.00  0.00    +0.000 A 
ATOM     22  N   UNL     1       0.956  10.286  21.251  0.00  0.00    +0.000 N 
ATOM     23  H   UNL     1       0.659   9.930  22.150  0.00  0.00    +0.000 HD
ENDBRANCH   1  19
BRANCH   5  24
ATOM     24  C   UNL     1       4.298   1.919  19.022  0.00  0.00    +0.000 C 
ATOM     25  O   UNL     1       4.915   2.438  19.945  0.00  0.00    +0.000 OA
BRANCH  24  26
ATOM     26  O   UNL     1       4.463   0.616  18.708  0.00  0.00    +0.000 OA
ATOM     27  H   UNL     1       5.188   0.432  18.073  0.00  0.00    +0.000 HD
ENDBRANCH  24  26
ENDBRANCH   5  24
TORSDOF 3
ENDMDL
MODEL 5
REMARK VINA RESULT:      -7.2      2.733      7.700
REMARK  Name = 
REMARK  3 active torsions:
REMARK  status: ('A' for Active; 'I' for Inactive)
REMARK    1  A    between atoms: C_8  and  C_9
REMARK    2  A    between atoms: C_13  and  C_14
REMARK    3  A    between atoms: C_14  and  O_16
REMARK                            x       y       z     vdW  Elec       q    Type
REMARK                         _______ _______ _______ _____ _____    ______ ____
ROOT
ATOM      1  C   UNL     1       0.039  10.906  20.581  0.00  0.00    +0.000 C 
ATOM      2  O   UNL     1       0.556  11.319  21.619  0.00  0.00    +0.000 OA
ATOM      3  N   UNL     1      -1.226  11.355  20.182  0.00  0.00    +0.000 N 
ATOM      4  C   UNL     1      -1.742  12.587  20.821  0.00  0.00    +0.000 C 
ATOM      5  C   UNL     1      -3.116  12.866  20.211  0.00  0.00    +0.000 C 
ATOM      6  C   UNL     1      -3.120  11.934  19.033  0.00  0.00    +0.000 A 
ATOM      7  C   UNL     1      -4.033  11.918  17.985  0.00  0.00    +0.000 A 
ATOM      8  C   UNL     1      -3.921  10.908  17.033  0.00  0.00    +0.000 A 
ATOM      9  C   UNL     1      -2.975   9.891  17.196  0.00  0.00    +0.000 A 
ATOM     10  C   UNL     1      -2.095   9.904  18.286  0.00  0.00    +0.000 A 
ATOM     11  C   UNL     1      -2.097  10.991  19.138  0.00  0.00    +0.000 A 
ENDROOT
BRANCH   1  19
ATOM     12  O   UNL     1       3.878   4.904  19.961  0.00  0.00    +0.000 OA
ATOM     13  C   UNL     1       3.342   5.862  19.412  0.00  0.00    +0.000 C 
ATOM     14  C   UNL     1       3.466   6.172  17.922  0.00  0.00    +0.000 C 
ATOM     15  O   UNL     1       3.365   7.532  17.511  0.00  0.00    +0.000 OA
ATOM     16  C   UNL     1       2.481   8.267  18.252  0.00  0.00    +0.000 A 
ATOM     17  C   UNL     1       2.120   9.515  17.753  0.00  0.00    +0.000 A 
ATOM     18  C   UNL     1       1.318  10.366  18.522  0.00  0.00    +0.000 A 
ATOM     19  C   UNL     1       0.846   9.951  19.778  0.00  0.00    +0.000 A 
ATOM     20  C   UNL     1       1.103   8.650  20.207  0.00  0.00    +0.000 A 
ATOM     21  C   UNL     1       1.996   7.854  19.494  0.00  0.00    +0.000 A 
ATOM     22  N   UNL     1       2.485   6.689  20.086  0.00  0.00    +0.000 N 
ATOM     23  H   UNL     1       2.312   6.479  21.060  0.00  0.00    +0.000 HD
ENDBRANCH   1  19
BRANCH   5  24
ATOM     24  C   UNL     1      -4.201  12.556  21.222  0.00  0.00    +0.000 C 
ATOM     25  O   UNL     1      -5.393  12.576  20.939  0.00  0.00    +0.000 OA
BRANCH  24  26
ATOM     26  O   UNL     1      -3.778  12.273  22.473  0.00  0.00    +0.000 OA
ATOM     27  H   UNL     1      -4.153  11.453  22.860  0.00  0.00    +0.000 HD
ENDBRANCH  24  26
ENDBRANCH   5  24
TORSDOF 3
ENDMDL
MODEL 6
REMARK VINA RESULT:      -7.2      5.314      8.219
REMARK  Name = 
REMARK  3 active torsions:
REMARK  status: ('A' for Active; 'I' for Inactive)
REMARK    1  A    between atoms: C_8  and  C_9
REMARK    2  A    between atoms: C_13  and  C_14
REMARK    3  A    between atoms: C_14  and  O_16
REMARK                            x       y       z     vdW  Elec       q    Type
REMARK                         _______ _______ _______ _____ _____    ______ ____
ROOT
ATOM      1  C   UNL     1       3.264   7.099  18.224  0.00  0.00    +0.000 C 
ATOM      2  O   UNL     1       4.013   7.621  17.397  0.00  0.00    +0.000 OA
ATOM      3  N   UNL     1       3.426   5.757  18.591  0.00  0.00    +0.000 N 
ATOM      4  C   UNL     1       4.716   5.112  18.255  0.00  0.00    +0.000 C 
ATOM      5  C   UNL     1       4.644   3.672  18.766  0.00  0.00    +0.000 C 
ATOM      6  C   UNL     1       3.425   3.723  19.643  0.00  0.00    +0.000 A 
ATOM      7  C   UNL     1       3.003   2.752  20.543  0.00  0.00    +0.000 A 
ATOM      8  C   UNL     1       1.787   2.943  21.194  0.00  0.00    +0.000 A 
ATOM      9  C   UNL     1       0.981   4.037  20.866  0.00  0.00    +0.000 A 
ATOM     10  C   UNL     1       1.406   4.979  19.922  0.00  0.00    +0.000 A 
ATOM     11  C   UNL     1       2.680   4.878  19.398  0.00  0.00    +0.000 A 
ENDROOT
BRANCH   1  19
ATOM     12  O   UNL     1      -1.056  12.791  17.952  0.00  0.00    +0.000 OA
ATOM     13  C   UNL     1      -0.711  11.770  18.538  0.00  0.00    +0.000 C 
ATOM     14  C   UNL     1      -1.265  11.333  19.893  0.00  0.00    +0.000 C 
ATOM     15  O   UNL     1      -0.426  10.553  20.739  0.00  0.00    +0.000 OA
ATOM     16  C   UNL     1       0.384   9.683  20.061  0.00  0.00    +0.000 A 
ATOM     17  C   UNL     1       1.028   8.703  20.811  0.00  0.00    +0.000 A 
ATOM     18  C   UNL     1       1.963   7.862  20.197  0.00  0.00    +0.000 A 
ATOM     19  C   UNL     1       2.227   7.978  18.823  0.00  0.00    +0.000 A 
ATOM     20  C   UNL     1       1.479   8.873  18.059  0.00  0.00    +0.000 A 
ATOM     21  C   UNL     1       0.639   9.784  18.693  0.00  0.00    +0.000 A 
ATOM     22  N   UNL     1       0.141  10.865  17.964  0.00  0.00    +0.000 N 
ATOM     23  H   UNL     1       0.477  11.075  17.034  0.00  0.00    +0.000 HD
ENDBRANCH   1  19
BRANCH   5  24
ATOM     24  C   UNL     1       4.501   2.718  17.599  0.00  0.00    +0.000 C 
ATOM     25  O   UNL     1       3.719   1.775  17.607  0.00  0.00    +0.000 OA
BRANCH  24  26
ATOM     26  O   UNL     1       5.310   2.954  16.543  0.00  0.00    +0.000 OA
ATOM     27  H   UNL     1       4.924   2.730  15.668  0.00  0.00    +0.000 HD
ENDBRANCH  24  26
ENDBRANCH   5  24
TORSDOF 3
ENDMDL
MODEL 7
REMARK VINA RESULT:      -6.9      5.007      9.124
REMARK  Name = 
REMARK  3 active torsions:
REMARK  status: ('A' for Active; 'I' for Inactive)
REMARK    1  A    between atoms: C_8  and  C_9
REMARK    2  A    between atoms: C_13  and  C_14
REMARK    3  A    between atoms: C_14  and  O_16
REMARK                            x       y       z     vdW  Elec       q    Type
REMARK                         _______ _______ _______ _____ _____    ______ ____
ROOT
ATOM      1  C   UNL     1       2.540   8.058  17.965  0.00  0.00    +0.000 C 
ATOM      2  O   UNL     1       2.946   8.308  16.829  0.00  0.00    +0.000 OA
ATOM      3  N   UNL     1       1.748   8.979  18.662  0.00  0.00    +0.000 N 
ATOM      4  C   UNL     1       1.114  10.062  17.876  0.00  0.00    +0.000 C 
ATOM      5  C   UNL     1       0.306  10.913  18.856  0.00  0.00    +0.000 C 
ATOM      6  C   UNL     1       0.294  10.039  20.078  0.00  0.00    +0.000 A 
ATOM      7  C   UNL     1      -0.485  10.207  21.216  0.00  0.00    +0.000 A 
ATOM      8  C   UNL     1      -0.279   9.340  22.287  0.00  0.00    +0.000 A 
ATOM      9  C   UNL     1       0.753   8.398  22.238  0.00  0.00    +0.000 A 
ATOM     10  C   UNL     1       1.556   8.278  21.096  0.00  0.00    +0.000 A 
ATOM     11  C   UNL     1       1.246   9.023  19.976  0.00  0.00    +0.000 A 
ENDROOT
BRANCH   1  19
ATOM     12  O   UNL     1       1.299   2.509  22.300  0.00  0.00    +0.000 OA
ATOM     13  C   UNL     1       1.965   2.995  21.391  0.00  0.00    +0.000 C 
ATOM     14  C   UNL     1       3.196   2.327  20.783  0.00  0.00    +0.000 C 
ATOM     15  O   UNL     1       4.208   3.164  20.231  0.00  0.00    +0.000 OA
ATOM     16  C   UNL     1       3.720   4.292  19.630  0.00  0.00    +0.000 A 
ATOM     17  C   UNL     1       4.604   5.018  18.836  0.00  0.00    +0.000 A 
ATOM     18  C   UNL     1       4.205   6.245  18.294  0.00  0.00    +0.000 A 
ATOM     19  C   UNL     1       2.905   6.728  18.517  0.00  0.00    +0.000 A 
ATOM     20  C   UNL     1       1.989   5.930  19.201  0.00  0.00    +0.000 A 
ATOM     21  C   UNL     1       2.426   4.771  19.835  0.00  0.00    +0.000 A 
ATOM     22  N   UNL     1       1.589   4.152  20.765  0.00  0.00    +0.000 N 
ATOM     23  H   UNL     1       0.736   4.593  21.084  0.00  0.00    +0.000 HD
ENDBRANCH   1  19
BRANCH   5  24
ATOM     24  C   UNL     1       0.999  12.242  19.079  0.00  0.00    +0.000 C 
ATOM     25  O   UNL     1       1.457  12.574  20.166  0.00  0.00    +0.000 OA
BRANCH  24  26
ATOM     26  O   UNL     1       1.067  13.058  18.005  0.00  0.00    +0.000 OA
ATOM     27  H   UNL     1       0.748  12.663  17.165  0.00  0.00    +0.000 HD
ENDBRANCH  24  26
ENDBRANCH   5  24
TORSDOF 3
ENDMDL
MODEL 8
REMARK VINA RESULT:      -6.8      3.447      8.163
REMARK  Name = 
REMARK  3 active torsions:
REMARK  status: ('A' for Active; 'I' for Inactive)
REMARK    1  A    between atoms: C_8  and  C_9
REMARK    2  A    between atoms: C_13  and  C_14
REMARK    3  A    between atoms: C_14  and  O_16
REMARK                            x       y       z     vdW  Elec       q    Type
REMARK                         _______ _______ _______ _____ _____    ______ ____
ROOT
ATOM      1  C   UNL     1       0.930   9.668  21.281  0.00  0.00    +0.000 C 
ATOM      2  O   UNL     1       1.459   9.715  22.393  0.00  0.00    +0.000 OA
ATOM      3  N   UNL     1      -0.115  10.539  20.948  0.00  0.00    +0.000 N 
ATOM      4  C   UNL     1      -0.304  11.733  21.803  0.00  0.00    +0.000 C 
ATOM      5  C   UNL     1      -1.485  12.515  21.227  0.00  0.00    +0.000 C 
ATOM      6  C   UNL     1      -1.662  11.854  19.889  0.00  0.00    +0.000 A 
ATOM      7  C   UNL     1      -2.453  12.299  18.837  0.00  0.00    +0.000 A 
ATOM      8  C   UNL     1      -2.561  11.490  17.709  0.00  0.00    +0.000 A 
ATOM      9  C   UNL     1      -1.965  10.225  17.693  0.00  0.00    +0.000 A 
ATOM     10  C   UNL     1      -1.210   9.779  18.784  0.00  0.00    +0.000 A 
ATOM     11  C   UNL     1      -0.967  10.645  19.833  0.00  0.00    +0.000 A 
ENDROOT
BRANCH   1  19
ATOM     12  O   UNL     1       3.984   3.362  19.853  0.00  0.00    +0.000 OA
ATOM     13  C   UNL     1       3.462   4.389  19.430  0.00  0.00    +0.000 C 
ATOM     14  C   UNL     1       3.363   4.749  17.949  0.00  0.00    +0.000 C 
ATOM     15  O   UNL     1       3.332   6.129  17.597  0.00  0.00    +0.000 OA
ATOM     16  C   UNL     1       2.664   6.912  18.499  0.00  0.00    +0.000 A 
ATOM     17  C   UNL     1       2.352   8.209  18.102  0.00  0.00    +0.000 A 
ATOM     18  C   UNL     1       1.781   9.098  19.019  0.00  0.00    +0.000 A 
ATOM     19  C   UNL     1       1.488   8.677  20.327  0.00  0.00    +0.000 A 
ATOM     20  C   UNL     1       1.683   7.340  20.671  0.00  0.00    +0.000 A 
ATOM     21  C   UNL     1       2.357   6.495  19.795  0.00  0.00    +0.000 A 
ATOM     22  N   UNL     1       2.819   5.264  20.263  0.00  0.00    +0.000 N 
ATOM     23  H   UNL     1       2.793   5.029  21.247  0.00  0.00    +0.000 HD
ENDBRANCH   1  19
BRANCH   5  24
ATOM     24  C   UNL     1      -2.691  12.367  22.131  0.00  0.00    +0.000 C 
ATOM     25  O   UNL     1      -3.790  12.830  21.848  0.00  0.00    +0.000 OA
BRANCH  24  26
ATOM     26  O   UNL     1      -2.481  11.706  23.290  0.00  0.00    +0.000 OA
ATOM     27  H   UNL     1      -1.635  11.919  23.739  0.00  0.00    +0.000 HD
ENDBRANCH  24  26
ENDBRANCH   5  24
TORSDOF 3
ENDMDL
MODEL 9
REMARK VINA RESULT:      -6.7      5.474     10.738
REMARK  Name = 
REMARK  3 active torsions:
REMARK  status: ('A' for Active; 'I' for Inactive)
REMARK    1  A    between atoms: C_8  and  C_9
REMARK    2  A    between atoms: C_13  and  C_14
REMARK    3  A    between atoms: C_14  and  O_16
REMARK                            x       y       z     vdW  Elec       q    Type
REMARK                         _______ _______ _______ _____ _____    ______ ____
ROOT
ATOM      1  C   UNL     1       2.416   5.714  20.340  0.00  0.00    +0.000 C 
ATOM      2  O   UNL     1       2.311   4.944  21.296  0.00  0.00    +0.000 OA
ATOM      3  N   UNL     1       1.926   7.024  20.417  0.00  0.00    +0.000 N 
ATOM      4  C   UNL     1       1.632   7.561  21.765  0.00  0.00    +0.000 C 
ATOM      5  C   UNL     1       1.129   8.993  21.576  0.00  0.00    +0.000 C 
ATOM      6  C   UNL     1       1.490   9.255  20.142  0.00  0.00    +0.000 A 
ATOM      7  C   UNL     1       1.467  10.479  19.485  0.00  0.00    +0.000 A 
ATOM      8  C   UNL     1       1.745  10.499  18.121  0.00  0.00    +0.000 A 
ATOM      9  C   UNL     1       1.940   9.300  17.428  0.00  0.00    +0.000 A 
ATOM     10  C   UNL     1       1.913   8.073  18.103  0.00  0.00    +0.000 A 
ATOM     11  C   UNL     1       1.802   8.066  19.479  0.00  0.00    +0.000 A 
ENDROOT
BRANCH   1  19
ATOM     12  O   UNL     1       7.713   5.971  15.543  0.00  0.00    +0.000 OA
ATOM     13  C   UNL     1       6.750   5.366  16.003  0.00  0.00    +0.000 C 
ATOM     14  C   UNL     1       6.182   4.081  15.403  0.00  0.00    +0.000 C 
ATOM     15  O   UNL     1       4.796   3.813  15.586  0.00  0.00    +0.000 OA
ATOM     16  C   UNL     1       4.309   4.233  16.794  0.00  0.00    +0.000 A 
ATOM     17  C   UNL     1       3.048   3.772  17.163  0.00  0.00    +0.000 A 
ATOM     18  C   UNL     1       2.443   4.260  18.326  0.00  0.00    +0.000 A 
ATOM     19  C   UNL     1       3.116   5.184  19.142  0.00  0.00    +0.000 A 
ATOM     20  C   UNL     1       4.430   5.535  18.832  0.00  0.00    +0.000 A 
ATOM     21  C   UNL     1       4.979   5.140  17.616  0.00  0.00    +0.000 A 
ATOM     22  N   UNL     1       6.159   5.744  17.178  0.00  0.00    +0.000 N 
ATOM     23  H   UNL     1       6.549   6.547  17.653  0.00  0.00    +0.000 HD
ENDBRANCH   1  19
BRANCH   5  24
ATOM     24  C   UNL     1      -0.362   9.054  21.838  0.00  0.00    +0.000 C 
ATOM     25  O   UNL     1      -1.113   8.114  21.605  0.00  0.00    +0.000 OA
BRANCH  24  26
ATOM     26  O   UNL     1      -0.826  10.223  22.331  0.00  0.00    +0.000 OA
ATOM     27  H   UNL     1      -1.666  10.155  22.833  0.00  0.00    +0.000 HD
ENDBRANCH  24  26
ENDBRANCH   5  24
TORSDOF 3
ENDMDL
