MODEL 1
REMARK VINA RESULT:      -9.0      0.000      0.000
REMARK  Name = 
REMARK  5 active torsions:
REMARK  status: ('A' for Active; 'I' for Inactive)
REMARK    1  A    between atoms: C_2  and  C_3
REMARK    2  A    between atoms: C_3  and  S_4
REMARK    3  A    between atoms: S_4  and  C_5
REMARK    4  A    between atoms: N_9  and  C_10
REMARK    5  A    between atoms: C_20  and  C_21
REMARK                            x       y       z     vdW  Elec       q    Type
REMARK                         _______ _______ _______ _____ _____    ______ ____
ROOT
ATOM      1  O   UNL     1       4.094   5.858  19.780  0.00  0.00    +0.000 OA
ATOM      2  C   UNL     1       3.012   5.347  19.489  0.00  0.00    +0.000 C 
ATOM      3  N   UNL     1       2.931   4.213  18.689  0.00  0.00    +0.000 N 
ATOM      4  C   UNL     1       1.724   3.449  18.408  0.00  0.00    +0.000 C 
ATOM      5  C   UNL     1       2.176   2.010  18.530  0.00  0.00    +0.000 C 
ATOM      6  C   UNL     1       3.585   2.046  17.953  0.00  0.00    +0.000 C 
ATOM      7  C   UNL     1       4.130   3.416  18.396  0.00  0.00    +0.000 C 
ENDROOT
BRANCH   7   8
ATOM      8  C   UNL     1       5.078   4.006  17.370  0.00  0.00    +0.000 A 
ATOM      9  C   UNL     1       6.261   4.672  17.726  0.00  0.00    +0.000 A 
ATOM     10  C   UNL     1       7.162   5.096  16.743  0.00  0.00    +0.000 A 
ATOM     11  C   UNL     1       6.891   4.870  15.394  0.00  0.00    +0.000 A 
ATOM     12  C   UNL     1       5.675   4.301  15.026  0.00  0.00    +0.000 A 
ATOM     13  C   UNL     1       4.770   3.884  16.003  0.00  0.00    +0.000 A 
ATOM     14  O   UNL     1       5.313   4.115  13.719  0.00  0.00    +0.000 OA
ATOM     15  C   UNL     1       6.471   3.909  12.913  0.00  0.00    +0.000 C 
ATOM     16  C   UNL     1       7.537   4.974  13.139  0.00  0.00    +0.000 C 
ATOM     17  O   UNL     1       7.884   5.201  14.508  0.00  0.00    +0.000 OA
ENDBRANCH   7   8
BRANCH   2  18
ATOM     18  C   UNL     1       1.693   5.836  20.072  0.00  0.00    +0.000 C 
BRANCH  18  19
ATOM     19  S   UNL     1       1.839   7.394  20.962  0.00  0.00    +0.000 S 
BRANCH  19  20
ATOM     20  C   UNL     1       1.624   8.511  19.642  0.00  0.00    +0.000 A 
ATOM     21  N   UNL     1       2.093   8.328  18.423  0.00  0.00    +0.000 NA
ATOM     22  N   UNL     1       1.487   9.239  17.601  0.00  0.00    +0.000 NA
ATOM     23  C   UNL     1       0.669   9.954  18.336  0.00  0.00    +0.000 A 
ATOM     24  N   UNL     1       0.763   9.589  19.659  0.00  0.00    +0.000 N 
BRANCH  24  25
ATOM     25  C   UNL     1       0.081  10.188  20.747  0.00  0.00    +0.000 A 
ATOM     26  C   UNL     1      -0.219   9.431  21.890  0.00  0.00    +0.000 A 
ATOM     27  C   UNL     1      -0.789  10.057  23.001  0.00  0.00    +0.000 A 
ATOM     28  C   UNL     1      -1.090  11.419  22.967  0.00  0.00    +0.000 A 
ATOM     29  C   UNL     1      -0.851  12.157  21.811  0.00  0.00    +0.000 A 
ATOM     30  C   UNL     1      -0.276  11.542  20.700  0.00  0.00    +0.000 A 
ENDBRANCH  24  25
ENDBRANCH  19  20
ENDBRANCH  18  19
ENDBRANCH   2  18
TORSDOF 5
ENDMDL
MODEL 2
REMARK VINA RESULT:      -8.8      3.358      9.311
REMARK  Name = 
REMARK  5 active torsions:
REMARK  status: ('A' for Active; 'I' for Inactive)
REMARK    1  A    between atoms: C_2  and  C_3
REMARK    2  A    between atoms: C_3  and  S_4
REMARK    3  A    between atoms: S_4  and  C_5
REMARK    4  A    between atoms: N_9  and  C_10
REMARK    5  A    between atoms: C_20  and  C_21
REMARK                            x       y       z     vdW  Elec       q    Type
REMARK                         _______ _______ _______ _____ _____    ______ ____
ROOT
ATOM      1  O   UNL     1       4.239   6.472  16.398  0.00  0.00    +0.000 OA
ATOM      2  C   UNL     1       4.613   5.610  17.195  0.00  0.00    +0.000 C 
ATOM      3  N   UNL     1       3.817   5.204  18.260  0.00  0.00    +0.000 N 
ATOM      4  C   UNL     1       4.098   4.100  19.165  0.00  0.00    +0.000 C 
ATOM      5  C   UNL     1       2.760   3.406  19.308  0.00  0.00    +0.000 C 
ATOM      6  C   UNL     1       1.773   4.566  19.299  0.00  0.00    +0.000 C 
ATOM      7  C   UNL     1       2.395   5.573  18.315  0.00  0.00    +0.000 C 
ENDROOT
BRANCH   7   8
ATOM      8  C   UNL     1       2.102   7.007  18.713  0.00  0.00    +0.000 A 
ATOM      9  C   UNL     1       2.024   8.051  17.779  0.00  0.00    +0.000 A 
ATOM     10  C   UNL     1       1.635   9.335  18.178  0.00  0.00    +0.000 A 
ATOM     11  C   UNL     1       1.329   9.595  19.513  0.00  0.00    +0.000 A 
ATOM     12  C   UNL     1       1.500   8.592  20.463  0.00  0.00    +0.000 A 
ATOM     13  C   UNL     1       1.896   7.312  20.070  0.00  0.00    +0.000 A 
ATOM     14  O   UNL     1       1.287   8.797  21.800  0.00  0.00    +0.000 OA
ATOM     15  C   UNL     1       0.289   9.798  21.990  0.00  0.00    +0.000 C 
ATOM     16  C   UNL     1       0.566  11.060  21.183  0.00  0.00    +0.000 C 
ATOM     17  O   UNL     1       0.834  10.843  19.794  0.00  0.00    +0.000 OA
ENDBRANCH   7   8
BRANCH   2  18
ATOM     18  C   UNL     1       5.913   4.838  17.015  0.00  0.00    +0.000 C 
BRANCH  18  19
ATOM     19  S   UNL     1       5.893   3.727  15.599  0.00  0.00    +0.000 S 
BRANCH  19  20
ATOM     20  C   UNL     1       6.847   4.658  14.478  0.00  0.00    +0.000 A 
ATOM     21  N   UNL     1       7.737   5.566  14.827  0.00  0.00    +0.000 NA
ATOM     22  N   UNL     1       8.486   5.863  13.720  0.00  0.00    +0.000 NA
ATOM     23  C   UNL     1       8.034   5.135  12.727  0.00  0.00    +0.000 A 
ATOM     24  N   UNL     1       6.943   4.398  13.125  0.00  0.00    +0.000 N 
BRANCH  24  25
ATOM     25  C   UNL     1       6.155   3.552  12.306  0.00  0.00    +0.000 A 
ATOM     26  C   UNL     1       6.674   2.330  11.856  0.00  0.00    +0.000 A 
ATOM     27  C   UNL     1       5.852   1.452  11.144  0.00  0.00    +0.000 A 
ATOM     28  C   UNL     1       4.533   1.799  10.853  0.00  0.00    +0.000 A 
ATOM     29  C   UNL     1       4.036   3.040  11.245  0.00  0.00    +0.000 A 
ATOM     30  C   UNL     1       4.846   3.918  11.961  0.00  0.00    +0.000 A 
ENDBRANCH  24  25
ENDBRANCH  19  20
ENDBRANCH  18  19
ENDBRANCH   2  18
TORSDOF 5
ENDMDL
MODEL 3
REMARK VINA RESULT:      -8.7      3.516      8.585
REMARK  Name = 
REMARK  5 active torsions:
REMARK  status: ('A' for Active; 'I' for Inactive)
REMARK    1  A    between atoms: C_2  and  C_3
REMARK    2  A    between atoms: C_3  and  S_4
REMARK    3  A    between atoms: S_4  and  C_5
REMARK    4  A    between atoms: N_9  and  C_10
REMARK    5  A    between atoms: C_20  and  C_21
REMARK                            x       y       z     vdW  Elec       q    Type
REMARK                         _______ _______ _______ _____ _____    ______ ____
ROOT
ATOM      1  O   UNL     1       0.664   8.737  21.480  0.00  0.00    +0.000 OA
ATOM      2  C   UNL     1       1.242   7.954  20.724  0.00  0.00    +0.000 C 
ATOM      3  N   UNL     1       1.490   8.272  19.394  0.00  0.00    +0.000 N 
ATOM      4  C   UNL     1       2.287   7.489  18.462  0.00  0.00    +0.000 C 
ATOM      5  C   UNL     1       3.116   8.529  17.738  0.00  0.00    +0.000 C 
ATOM      6  C   UNL     1       2.151   9.701  17.608  0.00  0.00    +0.000 C 
ATOM      7  C   UNL     1       1.333   9.651  18.911  0.00  0.00    +0.000 C 
ENDROOT
BRANCH   7   8
ATOM      8  C   UNL     1      -0.096  10.115  18.700  0.00  0.00    +0.000 A 
ATOM      9  C   UNL     1      -0.735  11.016  19.565  0.00  0.00    +0.000 A 
ATOM     10  C   UNL     1      -2.011  11.506  19.264  0.00  0.00    +0.000 A 
ATOM     11  C   UNL     1      -2.669  11.097  18.105  0.00  0.00    +0.000 A 
ATOM     12  C   UNL     1      -2.086  10.128  17.293  0.00  0.00    +0.000 A 
ATOM     13  C   UNL     1      -0.817   9.630  17.593  0.00  0.00    +0.000 A 
ATOM     14  O   UNL     1      -2.705   9.628  16.179  0.00  0.00    +0.000 OA
ATOM     15  C   UNL     1      -3.563  10.615  15.610  0.00  0.00    +0.000 C 
ATOM     16  C   UNL     1      -4.497  11.240  16.638  0.00  0.00    +0.000 C 
ATOM     17  O   UNL     1      -3.856  11.722  17.823  0.00  0.00    +0.000 OA
ENDBRANCH   7   8
BRANCH   2  18
ATOM     18  C   UNL     1       1.835   6.637  21.207  0.00  0.00    +0.000 C 
BRANCH  18  19
ATOM     19  S   UNL     1       1.079   5.192  20.445  0.00  0.00    +0.000 S 
BRANCH  19  20
ATOM     20  C   UNL     1       2.210   3.966  20.948  0.00  0.00    +0.000 A 
ATOM     21  N   UNL     1       2.017   3.139  21.957  0.00  0.00    +0.000 NA
ATOM     22  N   UNL     1       2.954   2.145  21.867  0.00  0.00    +0.000 NA
ATOM     23  C   UNL     1       3.695   2.392  20.813  0.00  0.00    +0.000 A 
ATOM     24  N   UNL     1       3.319   3.577  20.225  0.00  0.00    +0.000 N 
BRANCH  24  25
ATOM     25  C   UNL     1       3.937   4.196  19.110  0.00  0.00    +0.000 A 
ATOM     26  C   UNL     1       4.982   5.111  19.305  0.00  0.00    +0.000 A 
ATOM     27  C   UNL     1       5.661   5.628  18.198  0.00  0.00    +0.000 A 
ATOM     28  C   UNL     1       5.283   5.266  16.905  0.00  0.00    +0.000 A 
ATOM     29  C   UNL     1       4.204   4.407  16.709  0.00  0.00    +0.000 A 
ATOM     30  C   UNL     1       3.527   3.880  17.807  0.00  0.00    +0.000 A 
ENDBRANCH  24  25
ENDBRANCH  19  20
ENDBRANCH  18  19
ENDBRANCH   2  18
TORSDOF 5
ENDMDL
MODEL 4
REMARK VINA RESULT:      -8.7      3.297      9.415
REMARK  Name = 
REMARK  5 active torsions:
REMARK  status: ('A' for Active; 'I' for Inactive)
REMARK    1  A    between atoms: C_2  and  C_3
REMARK    2  A    between atoms: C_3  and  S_4
REMARK    3  A    between atoms: S_4  and  C_5
REMARK    4  A    between atoms: N_9  and  C_10
REMARK    5  A    between atoms: C_20  and  C_21
REMARK                            x       y       z     vdW  Elec       q    Type
REMARK                         _______ _______ _______ _____ _____    ______ ____
ROOT
ATOM      1  O   UNL     1       1.102   9.089  18.698  0.00  0.00    +0.000 OA
ATOM      2  C   UNL     1       1.370   8.774  19.859  0.00  0.00    +0.000 C 
ATOM      3  N   UNL     1       0.946   9.539  20.940  0.00  0.00    +0.000 N 
ATOM      4  C   UNL     1       1.081   9.182  22.344  0.00  0.00    +0.000 C 
ATOM      5  C   UNL     1      -0.259   9.559  22.939  0.00  0.00    +0.000 C 
ATOM      6  C   UNL     1      -0.622  10.830  22.181  0.00  0.00    +0.000 C 
ATOM      7  C   UNL     1      -0.071  10.584  20.764  0.00  0.00    +0.000 C 
ENDROOT
BRANCH   7   8
ATOM      8  C   UNL     1       0.409  11.868  20.114  0.00  0.00    +0.000 A 
ATOM      9  C   UNL     1      -0.290  12.498  19.074  0.00  0.00    +0.000 A 
ATOM     10  C   UNL     1       0.128  13.741  18.586  0.00  0.00    +0.000 A 
ATOM     11  C   UNL     1       1.254  14.366  19.121  0.00  0.00    +0.000 A 
ATOM     12  C   UNL     1       2.012  13.703  20.083  0.00  0.00    +0.000 A 
ATOM     13  C   UNL     1       1.603  12.459  20.567  0.00  0.00    +0.000 A 
ATOM     14  O   UNL     1       3.167  14.225  20.601  0.00  0.00    +0.000 OA
ATOM     15  C   UNL     1       3.108  15.650  20.595  0.00  0.00    +0.000 C 
ATOM     16  C   UNL     1       2.700  16.212  19.239  0.00  0.00    +0.000 C 
ATOM     17  O   UNL     1       1.518  15.635  18.676  0.00  0.00    +0.000 OA
ENDBRANCH   7   8
BRANCH   2  18
ATOM     18  C   UNL     1       2.077   7.473  20.211  0.00  0.00    +0.000 C 
BRANCH  18  19
ATOM     19  S   UNL     1       2.702   6.588  18.773  0.00  0.00    +0.000 S 
BRANCH  19  20
ATOM     20  C   UNL     1       3.139   5.077  19.523  0.00  0.00    +0.000 A 
ATOM     21  N   UNL     1       2.496   4.530  20.536  0.00  0.00    +0.000 NA
ATOM     22  N   UNL     1       2.927   3.237  20.655  0.00  0.00    +0.000 NA
ATOM     23  C   UNL     1       3.822   3.028  19.719  0.00  0.00    +0.000 A 
ATOM     24  N   UNL     1       4.056   4.183  19.008  0.00  0.00    +0.000 N 
BRANCH  24  25
ATOM     25  C   UNL     1       5.005   4.353  17.970  0.00  0.00    +0.000 A 
ATOM     26  C   UNL     1       6.333   4.681  18.280  0.00  0.00    +0.000 A 
ATOM     27  C   UNL     1       7.286   4.735  17.258  0.00  0.00    +0.000 A 
ATOM     28  C   UNL     1       6.916   4.498  15.935  0.00  0.00    +0.000 A 
ATOM     29  C   UNL     1       5.586   4.234  15.618  0.00  0.00    +0.000 A 
ATOM     30  C   UNL     1       4.631   4.171  16.631  0.00  0.00    +0.000 A 
ENDBRANCH  24  25
ENDBRANCH  19  20
ENDBRANCH  18  19
ENDBRANCH   2  18
TORSDOF 5
ENDMDL
MODEL 5
REMARK VINA RESULT:      -8.6      1.448      2.379
REMARK  Name = 
REMARK  5 active torsions:
REMARK  status: ('A' for Active; 'I' for Inactive)
REMARK    1  A    between atoms: C_2  and  C_3
REMARK    2  A    between atoms: C_3  and  S_4
REMARK    3  A    between atoms: S_4  and  C_5
REMARK    4  A    between atoms: N_9  and  C_10
REMARK    5  A    between atoms: C_20  and  C_21
REMARK                            x       y       z     vdW  Elec       q    Type
REMARK                         _______ _______ _______ _____ _____    ______ ____
ROOT
ATOM      1  O   UNL     1       4.359   6.235  19.582  0.00  0.00    +0.000 OA
ATOM      2  C   UNL     1       3.202   5.907  19.313  0.00  0.00    +0.000 C 
ATOM      3  N   UNL     1       2.923   4.821  18.490  0.00  0.00    +0.000 N 
ATOM      4  C   UNL     1       1.604   4.264  18.229  0.00  0.00    +0.000 C 
ATOM      5  C   UNL     1       1.827   2.769  18.304  0.00  0.00    +0.000 C 
ATOM      6  C   UNL     1       3.209   2.600  17.685  0.00  0.00    +0.000 C 
ATOM      7  C   UNL     1       3.974   3.855  18.143  0.00  0.00    +0.000 C 
ENDROOT
BRANCH   7   8
ATOM      8  C   UNL     1       4.975   4.318  17.102  0.00  0.00    +0.000 A 
ATOM      9  C   UNL     1       6.174   4.963  17.438  0.00  0.00    +0.000 A 
ATOM     10  C   UNL     1       7.120   5.266  16.452  0.00  0.00    +0.000 A 
ATOM     11  C   UNL     1       6.879   4.938  15.119  0.00  0.00    +0.000 A 
ATOM     12  C   UNL     1       5.650   4.389  14.761  0.00  0.00    +0.000 A 
ATOM     13  C   UNL     1       4.700   4.093  15.740  0.00  0.00    +0.000 A 
ATOM     14  O   UNL     1       5.317   4.108  13.463  0.00  0.00    +0.000 OA
ATOM     15  C   UNL     1       6.488   3.787  12.714  0.00  0.00    +0.000 C 
ATOM     16  C   UNL     1       7.591   4.824  12.884  0.00  0.00    +0.000 C 
ATOM     17  O   UNL     1       7.909   5.152  14.240  0.00  0.00    +0.000 OA
ENDBRANCH   7   8
BRANCH   2  18
ATOM     18  C   UNL     1       1.992   6.580  19.947  0.00  0.00    +0.000 C 
BRANCH  18  19
ATOM     19  S   UNL     1       1.753   8.279  19.401  0.00  0.00    +0.000 S 
BRANCH  19  20
ATOM     20  C   UNL     1       1.001   8.944  20.826  0.00  0.00    +0.000 A 
ATOM     21  N   UNL     1       1.345   8.644  22.063  0.00  0.00    +0.000 NA
ATOM     22  N   UNL     1       0.759   9.561  22.893  0.00  0.00    +0.000 NA
ATOM     23  C   UNL     1       0.072  10.392  22.146  0.00  0.00    +0.000 A 
ATOM     24  N   UNL     1       0.126  10.011  20.825  0.00  0.00    +0.000 N 
BRANCH  24  25
ATOM     25  C   UNL     1      -0.550  10.629  19.743  0.00  0.00    +0.000 A 
ATOM     26  C   UNL     1      -0.346  11.991  19.475  0.00  0.00    +0.000 A 
ATOM     27  C   UNL     1      -0.928  12.564  18.340  0.00  0.00    +0.000 A 
ATOM     28  C   UNL     1      -1.733  11.799  17.496  0.00  0.00    +0.000 A 
ATOM     29  C   UNL     1      -1.987  10.463  17.797  0.00  0.00    +0.000 A 
ATOM     30  C   UNL     1      -1.405   9.881  18.922  0.00  0.00    +0.000 A 
ENDBRANCH  24  25
ENDBRANCH  19  20
ENDBRANCH  18  19
ENDBRANCH   2  18
TORSDOF 5
ENDMDL
MODEL 6
REMARK VINA RESULT:      -8.5      3.680      9.443
REMARK  Name = 
REMARK  5 active torsions:
REMARK  status: ('A' for Active; 'I' for Inactive)
REMARK    1  A    between atoms: C_2  and  C_3
REMARK    2  A    between atoms: C_3  and  S_4
REMARK    3  A    between atoms: S_4  and  C_5
REMARK    4  A    between atoms: N_9  and  C_10
REMARK    5  A    between atoms: C_20  and  C_21
REMARK                            x       y       z     vdW  Elec       q    Type
REMARK                         _______ _______ _______ _____ _____    ______ ____
ROOT
ATOM      1  O   UNL     1       0.511   8.902  20.465  0.00  0.00    +0.000 OA
ATOM      2  C   UNL     1       1.203   9.063  19.458  0.00  0.00    +0.000 C 
ATOM      3  N   UNL     1       1.264  10.287  18.801  0.00  0.00    +0.000 N 
ATOM      4  C   UNL     1       2.155  10.623  17.701  0.00  0.00    +0.000 C 
ATOM      5  C   UNL     1       2.646  12.012  18.051  0.00  0.00    +0.000 C 
ATOM      6  C   UNL     1       1.417  12.659  18.677  0.00  0.00    +0.000 C 
ATOM      7  C   UNL     1       0.738  11.503  19.435  0.00  0.00    +0.000 C 
ENDROOT
BRANCH   7   8
ATOM      8  C   UNL     1      -0.773  11.642  19.441  0.00  0.00    +0.000 A 
ATOM      9  C   UNL     1      -1.473  12.264  20.486  0.00  0.00    +0.000 A 
ATOM     10  C   UNL     1      -2.853  12.473  20.392  0.00  0.00    +0.000 A 
ATOM     11  C   UNL     1      -3.554  12.057  19.261  0.00  0.00    +0.000 A 
ATOM     12  C   UNL     1      -2.887  11.351  18.264  0.00  0.00    +0.000 A 
ATOM     13  C   UNL     1      -1.511  11.132  18.357  0.00  0.00    +0.000 A 
ATOM     14  O   UNL     1      -3.525  10.851  17.161  0.00  0.00    +0.000 OA
ATOM     15  C   UNL     1      -4.646  11.669  16.829  0.00  0.00    +0.000 C 
ATOM     16  C   UNL     1      -5.548  11.936  18.027  0.00  0.00    +0.000 C 
ATOM     17  O   UNL     1      -4.876  12.415  19.196  0.00  0.00    +0.000 OA
ENDBRANCH   7   8
BRANCH   2  18
ATOM     18  C   UNL     1       2.135   7.983  18.924  0.00  0.00    +0.000 C 
BRANCH  18  19
ATOM     19  S   UNL     1       2.364   6.610  20.065  0.00  0.00    +0.000 S 
BRANCH  19  20
ATOM     20  C   UNL     1       2.501   5.298  18.926  0.00  0.00    +0.000 A 
ATOM     21  N   UNL     1       1.501   4.524  18.552  0.00  0.00    +0.000 NA
ATOM     22  N   UNL     1       1.907   3.821  17.450  0.00  0.00    +0.000 NA
ATOM     23  C   UNL     1       3.140   4.180  17.181  0.00  0.00    +0.000 A 
ATOM     24  N   UNL     1       3.602   5.065  18.127  0.00  0.00    +0.000 N 
BRANCH  24  25
ATOM     25  C   UNL     1       4.907   5.612  18.200  0.00  0.00    +0.000 A 
ATOM     26  C   UNL     1       5.800   5.170  19.187  0.00  0.00    +0.000 A 
ATOM     27  C   UNL     1       7.119   5.631  19.180  0.00  0.00    +0.000 A 
ATOM     28  C   UNL     1       7.541   6.551  18.220  0.00  0.00    +0.000 A 
ATOM     29  C   UNL     1       6.638   7.039  17.279  0.00  0.00    +0.000 A 
ATOM     30  C   UNL     1       5.323   6.579  17.273  0.00  0.00    +0.000 A 
ENDBRANCH  24  25
ENDBRANCH  19  20
ENDBRANCH  18  19
ENDBRANCH   2  18
TORSDOF 5
ENDMDL
MODEL 7
REMARK VINA RESULT:      -8.4      3.442      8.850
REMARK  Name = 
REMARK  5 active torsions:
REMARK  status: ('A' for Active; 'I' for Inactive)
REMARK    1  A    between atoms: C_2  and  C_3
REMARK    2  A    between atoms: C_3  and  S_4
REMARK    3  A    between atoms: S_4  and  C_5
REMARK    4  A    between atoms: N_9  and  C_10
REMARK    5  A    between atoms: C_20  and  C_21
REMARK                            x       y       z     vdW  Elec       q    Type
REMARK                         _______ _______ _______ _____ _____    ______ ____
ROOT
ATOM      1  O   UNL     1       1.673   9.319  17.756  0.00  0.00    +0.000 OA
ATOM      2  C   UNL     1       1.825   8.708  18.815  0.00  0.00    +0.000 C 
ATOM      3  N   UNL     1       1.195   9.110  19.988  0.00  0.00    +0.000 N 
ATOM      4  C   UNL     1       1.188   8.382  21.247  0.00  0.00    +0.000 C 
ATOM      5  C   UNL     1      -0.247   8.494  21.717  0.00  0.00    +0.000 C 
ATOM      6  C   UNL     1      -0.636   9.902  21.286  0.00  0.00    +0.000 C 
ATOM      7  C   UNL     1       0.109  10.099  19.953  0.00  0.00    +0.000 C 
ENDROOT
BRANCH   7   8
ATOM      8  C   UNL     1       0.537  11.540  19.752  0.00  0.00    +0.000 A 
ATOM      9  C   UNL     1       0.038  12.341  18.714  0.00  0.00    +0.000 A 
ATOM     10  C   UNL     1       0.372  13.698  18.639  0.00  0.00    +0.000 A 
ATOM     11  C   UNL     1       1.215  14.270  19.591  0.00  0.00    +0.000 A 
ATOM     12  C   UNL     1       1.794  13.463  20.566  0.00  0.00    +0.000 A 
ATOM     13  C   UNL     1       1.470  12.107  20.640  0.00  0.00    +0.000 A 
ATOM     14  O   UNL     1       2.685  13.943  21.488  0.00  0.00    +0.000 OA
ATOM     15  C   UNL     1       2.412  15.315  21.768  0.00  0.00    +0.000 C 
ATOM     16  C   UNL     1       2.283  16.153  20.502  0.00  0.00    +0.000 C 
ATOM     17  O   UNL     1       1.386  15.628  19.518  0.00  0.00    +0.000 OA
ENDBRANCH   7   8
BRANCH   2  18
ATOM     18  C   UNL     1       2.608   7.405  18.903  0.00  0.00    +0.000 C 
BRANCH  18  19
ATOM     19  S   UNL     1       3.549   7.036  17.414  0.00  0.00    +0.000 S 
BRANCH  19  20
ATOM     20  C   UNL     1       4.687   5.885  18.060  0.00  0.00    +0.000 A 
ATOM     21  N   UNL     1       5.997   6.031  18.031  0.00  0.00    +0.000 NA
ATOM     22  N   UNL     1       6.539   5.102  18.877  0.00  0.00    +0.000 NA
ATOM     23  C   UNL     1       5.551   4.413  19.397  0.00  0.00    +0.000 A 
ATOM     24  N   UNL     1       4.349   4.814  18.862  0.00  0.00    +0.000 N 
BRANCH  24  25
ATOM     25  C   UNL     1       3.078   4.250  19.134  0.00  0.00    +0.000 A 
ATOM     26  C   UNL     1       2.366   3.600  18.115  0.00  0.00    +0.000 A 
ATOM     27  C   UNL     1       1.167   2.949  18.418  0.00  0.00    +0.000 A 
ATOM     28  C   UNL     1       0.661   2.971  19.718  0.00  0.00    +0.000 A 
ATOM     29  C   UNL     1       1.335   3.670  20.717  0.00  0.00    +0.000 A 
ATOM     30  C   UNL     1       2.535   4.315  20.424  0.00  0.00    +0.000 A 
ENDBRANCH  24  25
ENDBRANCH  19  20
ENDBRANCH  18  19
ENDBRANCH   2  18
TORSDOF 5
ENDMDL
MODEL 8
REMARK VINA RESULT:      -8.4      3.539      8.845
REMARK  Name = 
REMARK  5 active torsions:
REMARK  status: ('A' for Active; 'I' for Inactive)
REMARK    1  A    between atoms: C_2  and  C_3
REMARK    2  A    between atoms: C_3  and  S_4
REMARK    3  A    between atoms: S_4  and  C_5
REMARK    4  A    between atoms: N_9  and  C_10
REMARK    5  A    between atoms: C_20  and  C_21
REMARK                            x       y       z     vdW  Elec       q    Type
REMARK                         _______ _______ _______ _____ _____    ______ ____
ROOT
ATOM      1  O   UNL     1       1.267   9.317  17.790  0.00  0.00    +0.000 OA
ATOM      2  C   UNL     1       1.588   8.866  18.891  0.00  0.00    +0.000 C 
ATOM      3  N   UNL     1       1.103   9.411  20.074  0.00  0.00    +0.000 N 
ATOM      4  C   UNL     1       1.299   8.868  21.410  0.00  0.00    +0.000 C 
ATOM      5  C   UNL     1      -0.063   9.004  22.055  0.00  0.00    +0.000 C 
ATOM      6  C   UNL     1      -0.573  10.326  21.495  0.00  0.00    +0.000 C 
ATOM      7  C   UNL     1      -0.024  10.354  20.058  0.00  0.00    +0.000 C 
ENDROOT
BRANCH   7   8
ATOM      8  C   UNL     1       0.305  11.764  19.605  0.00  0.00    +0.000 A 
ATOM      9  C   UNL     1      -0.567  12.529  18.815  0.00  0.00    +0.000 A 
ATOM     10  C   UNL     1      -0.273  13.865  18.521  0.00  0.00    +0.000 A 
ATOM     11  C   UNL     1       0.896  14.452  19.003  0.00  0.00    +0.000 A 
ATOM     12  C   UNL     1       1.814  13.675  19.702  0.00  0.00    +0.000 A 
ATOM     13  C   UNL     1       1.530  12.339  19.991  0.00  0.00    +0.000 A 
ATOM     14  O   UNL     1       3.014  14.166  20.143  0.00  0.00    +0.000 OA
ATOM     15  C   UNL     1       2.901  15.561  20.420  0.00  0.00    +0.000 C 
ATOM     16  C   UNL     1       2.273  16.336  19.268  0.00  0.00    +0.000 C 
ATOM     17  O   UNL     1       1.042  15.797  18.777  0.00  0.00    +0.000 OA
ENDBRANCH   7   8
BRANCH   2  18
ATOM     18  C   UNL     1       2.437   7.611  19.045  0.00  0.00    +0.000 C 
BRANCH  18  19
ATOM     19  S   UNL     1       3.070   6.981  17.482  0.00  0.00    +0.000 S 
BRANCH  19  20
ATOM     20  C   UNL     1       4.384   5.999  18.069  0.00  0.00    +0.000 A 
ATOM     21  N   UNL     1       5.659   6.325  17.982  0.00  0.00    +0.000 NA
ATOM     22  N   UNL     1       6.362   5.480  18.797  0.00  0.00    +0.000 NA
ATOM     23  C   UNL     1       5.504   4.660  19.356  0.00  0.00    +0.000 A 
ATOM     24  N   UNL     1       4.234   4.891  18.878  0.00  0.00    +0.000 N 
BRANCH  24  25
ATOM     25  C   UNL     1       3.067   4.156  19.203  0.00  0.00    +0.000 A 
ATOM     26  C   UNL     1       2.528   4.231  20.496  0.00  0.00    +0.000 A 
ATOM     27  C   UNL     1       1.316   3.594  20.775  0.00  0.00    +0.000 A 
ATOM     28  C   UNL     1       0.659   2.861  19.786  0.00  0.00    +0.000 A 
ATOM     29  C   UNL     1       1.225   2.734  18.520  0.00  0.00    +0.000 A 
ATOM     30  C   UNL     1       2.430   3.372  18.231  0.00  0.00    +0.000 A 
ENDBRANCH  24  25
ENDBRANCH  19  20
ENDBRANCH  18  19
ENDBRANCH   2  18
TORSDOF 5
ENDMDL
MODEL 9
REMARK VINA RESULT:      -8.4      3.391      9.817
REMARK  Name = 
REMARK  5 active torsions:
REMARK  status: ('A' for Active; 'I' for Inactive)
REMARK    1  A    between atoms: C_2  and  C_3
REMARK    2  A    between atoms: C_3  and  S_4
REMARK    3  A    between atoms: S_4  and  C_5
REMARK    4  A    between atoms: N_9  and  C_10
REMARK    5  A    between atoms: C_20  and  C_21
REMARK                            x       y       z     vdW  Elec       q    Type
REMARK                         _______ _______ _______ _____ _____    ______ ____
ROOT
ATOM      1  O   UNL     1       1.188   8.570  21.423  0.00  0.00    +0.000 OA
ATOM      2  C   UNL     1       1.356   8.679  20.207  0.00  0.00    +0.000 C 
ATOM      3  N   UNL     1       1.202   9.897  19.555  0.00  0.00    +0.000 N 
ATOM      4  C   UNL     1       1.516  10.165  18.160  0.00  0.00    +0.000 C 
ATOM      5  C   UNL     1       2.215  11.507  18.203  0.00  0.00    +0.000 C 
ATOM      6  C   UNL     1       1.458  12.249  19.297  0.00  0.00    +0.000 C 
ATOM      7  C   UNL     1       1.114  11.149  20.318  0.00  0.00    +0.000 C 
ENDROOT
BRANCH   7   8
ATOM      8  C   UNL     1      -0.213  11.410  21.004  0.00  0.00    +0.000 A 
ATOM      9  C   UNL     1      -0.416  11.182  22.374  0.00  0.00    +0.000 A 
ATOM     10  C   UNL     1      -1.620  11.548  22.986  0.00  0.00    +0.000 A 
ATOM     11  C   UNL     1      -2.639  12.137  22.239  0.00  0.00    +0.000 A 
ATOM     12  C   UNL     1      -2.487  12.276  20.862  0.00  0.00    +0.000 A 
ATOM     13  C   UNL     1      -1.291  11.904  20.247  0.00  0.00    +0.000 A 
ATOM     14  O   UNL     1      -3.473  12.779  20.058  0.00  0.00    +0.000 OA
ATOM     15  C   UNL     1      -4.274  13.710  20.785  0.00  0.00    +0.000 C 
ATOM     16  C   UNL     1      -4.755  13.148  22.117  0.00  0.00    +0.000 C 
ATOM     17  O   UNL     1      -3.731  12.580  22.940  0.00  0.00    +0.000 OA
ENDBRANCH   7   8
BRANCH   2  18
ATOM     18  C   UNL     1       1.859   7.530  19.344  0.00  0.00    +0.000 C 
BRANCH  18  19
ATOM     19  S   UNL     1       2.373   6.092  20.298  0.00  0.00    +0.000 S 
BRANCH  19  20
ATOM     20  C   UNL     1       2.512   4.920  19.017  0.00  0.00    +0.000 A 
ATOM     21  N   UNL     1       1.538   4.123  18.623  0.00  0.00    +0.000 NA
ATOM     22  N   UNL     1       1.909   3.569  17.428  0.00  0.00    +0.000 NA
ATOM     23  C   UNL     1       3.097   4.037  17.124  0.00  0.00    +0.000 A 
ATOM     24  N   UNL     1       3.568   4.847  18.132  0.00  0.00    +0.000 N 
BRANCH  24  25
ATOM     25  C   UNL     1       4.840   5.470  18.183  0.00  0.00    +0.000 A 
ATOM     26  C   UNL     1       5.796   5.038  19.114  0.00  0.00    +0.000 A 
ATOM     27  C   UNL     1       7.083   5.581  19.082  0.00  0.00    +0.000 A 
ATOM     28  C   UNL     1       7.410   6.570  18.154  0.00  0.00    +0.000 A 
ATOM     29  C   UNL     1       6.443   7.044  17.271  0.00  0.00    +0.000 A 
ATOM     30  C   UNL     1       5.159   6.504  17.291  0.00  0.00    +0.000 A 
ENDBRANCH  24  25
ENDBRANCH  19  20
ENDBRANCH  18  19
ENDBRANCH   2  18
TORSDOF 5
ENDMDL
