MODEL 1
REMARK VINA RESULT:      -8.0      0.000      0.000
REMARK  Name = 
REMARK  5 active torsions:
REMARK  status: ('A' for Active; 'I' for Inactive)
REMARK    1  A    between atoms: C_1  and  C_2
REMARK    2  A    between atoms: C_2  and  N_3
REMARK    3  A    between atoms: C_2  and  C_17
REMARK    4  A    between atoms: C_12  and  C_13
REMARK    5  A    between atoms: C_21  and  C_22
REMARK                            x       y       z     vdW  Elec       q    Type
REMARK                         _______ _______ _______ _____ _____    ______ ____
ROOT
ATOM      1  N   UNL     1       1.418   9.039  19.347  0.00  0.00    +0.000 N 
ATOM      2  C   UNL     1       2.115   8.720  18.209  0.00  0.00    +0.000 C 
ATOM      3  O   UNL     1       2.130   9.428  17.207  0.00  0.00    +0.000 OA
ATOM      4  N   UNL     1       2.782   7.521  18.277  0.00  0.00    +0.000 N 
ATOM      5  C   UNL     1       3.727   7.101  17.293  0.00  0.00    +0.000 C 
ATOM      6  C   UNL     1       4.346   5.849  17.924  0.00  0.00    +0.000 C 
ATOM      7  C   UNL     1       4.935   4.967  16.824  0.00  0.00    +0.000 C 
ATOM      8  C   UNL     1       4.413   3.585  17.095  0.00  0.00    +0.000 C 
ATOM      9  C   UNL     1       3.735   3.686  18.450  0.00  0.00    +0.000 C 
ATOM     10  C   UNL     1       3.146   5.132  18.621  0.00  0.00    +0.000 C 
ATOM     11  C   UNL     1       2.612   6.475  19.267  0.00  0.00    +0.000 C 
ATOM     12  H   UNL     1       1.797   8.679  20.208  0.00  0.00    +0.000 HD
ENDROOT
BRANCH  10  13
ATOM     13  C   UNL     1       2.831   4.604  20.086  0.00  0.00    +0.000 C 
ATOM     14  N   UNL     1       2.372   5.594  20.939  0.00  0.00    +0.000 N 
ATOM     15  O   UNL     1       2.980   3.459  20.486  0.00  0.00    +0.000 OA
ATOM     16  H   UNL     1       2.070   6.505  20.611  0.00  0.00    +0.000 HD
ATOM     17  H   UNL     1       2.102   5.325  21.877  0.00  0.00    +0.000 HD
ENDBRANCH  10  13
BRANCH   1  19
ATOM     18  C   UNL     1       1.429  11.519  19.202  0.00  0.00    +0.000 C 
ATOM     19  C   UNL     1       0.610  10.245  19.435  0.00  0.00    +0.000 C 
BRANCH  19  20
ATOM     20  C   UNL     1      -0.112  10.342  20.763  0.00  0.00    +0.000 A 
ATOM     21  C   UNL     1       0.162   9.477  21.832  0.00  0.00    +0.000 A 
ATOM     22  C   UNL     1      -0.426   9.702  23.092  0.00  0.00    +0.000 A 
ATOM     23  C   UNL     1      -1.268  10.799  23.279  0.00  0.00    +0.000 A 
ATOM     24  C   UNL     1      -1.576  11.674  22.228  0.00  0.00    +0.000 A 
ATOM     25  C   UNL     1      -1.005  11.404  20.976  0.00  0.00    +0.000 A 
BRANCH  24  26
ATOM     26  C   UNL     1      -2.380  12.929  22.455  0.00  0.00    +0.000 C 
ATOM     27  C   UNL     1      -3.254  13.089  23.674  0.00  0.00    +0.000 C 
ATOM     28  C   UNL     1      -3.885  12.906  22.326  0.00  0.00    +0.000 C 
ENDBRANCH  24  26
ENDBRANCH  19  20
ENDBRANCH   1  19
TORSDOF 4
ENDMDL
MODEL 2
REMARK VINA RESULT:      -7.9      2.761      8.082
REMARK  Name = 
REMARK  5 active torsions:
REMARK  status: ('A' for Active; 'I' for Inactive)
REMARK    1  A    between atoms: C_1  and  C_2
REMARK    2  A    between atoms: C_2  and  N_3
REMARK    3  A    between atoms: C_2  and  C_17
REMARK    4  A    between atoms: C_12  and  C_13
REMARK    5  A    between atoms: C_21  and  C_22
REMARK                            x       y       z     vdW  Elec       q    Type
REMARK                         _______ _______ _______ _____ _____    ______ ____
ROOT
ATOM      1  N   UNL     1       1.360   8.799  18.395  0.00  0.00    +0.000 N 
ATOM      2  C   UNL     1       0.778   9.483  19.431  0.00  0.00    +0.000 C 
ATOM      3  O   UNL     1       1.185   9.429  20.587  0.00  0.00    +0.000 OA
ATOM      4  N   UNL     1      -0.321  10.222  19.069  0.00  0.00    +0.000 N 
ATOM      5  C   UNL     1      -0.946  11.164  19.941  0.00  0.00    +0.000 C 
ATOM      6  C   UNL     1      -1.945  11.874  19.020  0.00  0.00    +0.000 C 
ATOM      7  C   UNL     1      -3.062  12.485  19.864  0.00  0.00    +0.000 C 
ATOM      8  C   UNL     1      -4.343  12.055  19.206  0.00  0.00    +0.000 C 
ATOM      9  C   UNL     1      -3.910  11.408  17.902  0.00  0.00    +0.000 C 
ATOM     10  C   UNL     1      -2.504  10.738  18.106  0.00  0.00    +0.000 C 
ATOM     11  C   UNL     1      -1.064  10.142  17.826  0.00  0.00    +0.000 C 
ATOM     12  H   UNL     1       1.268   9.221  17.485  0.00  0.00    +0.000 HD
ENDROOT
BRANCH  10  13
ATOM     13  C   UNL     1      -2.628  10.495  16.540  0.00  0.00    +0.000 C 
ATOM     14  N   UNL     1      -3.086  11.602  15.847  0.00  0.00    +0.000 N 
ATOM     15  O   UNL     1      -2.380   9.452  15.952  0.00  0.00    +0.000 OA
ATOM     16  H   UNL     1      -3.135  12.528  16.260  0.00  0.00    +0.000 HD
ATOM     17  H   UNL     1      -3.143  11.541  14.838  0.00  0.00    +0.000 HD
ENDBRANCH  10  13
BRANCH   1  19
ATOM     18  C   UNL     1       3.564   8.071  17.508  0.00  0.00    +0.000 C 
ATOM     19  C   UNL     1       2.501   7.922  18.603  0.00  0.00    +0.000 C 
BRANCH  19  20
ATOM     20  C   UNL     1       2.084   6.471  18.710  0.00  0.00    +0.000 A 
ATOM     21  C   UNL     1       1.783   5.690  17.583  0.00  0.00    +0.000 A 
ATOM     22  C   UNL     1       1.547   4.309  17.724  0.00  0.00    +0.000 A 
ATOM     23  C   UNL     1       1.631   3.714  18.983  0.00  0.00    +0.000 A 
ATOM     24  C   UNL     1       1.913   4.467  20.132  0.00  0.00    +0.000 A 
ATOM     25  C   UNL     1       2.107   5.846  19.967  0.00  0.00    +0.000 A 
BRANCH  24  26
ATOM     26  C   UNL     1       2.130   3.812  21.472  0.00  0.00    +0.000 C 
ATOM     27  C   UNL     1       2.763   2.448  21.583  0.00  0.00    +0.000 C 
ATOM     28  C   UNL     1       1.303   2.615  21.880  0.00  0.00    +0.000 C 
ENDBRANCH  24  26
ENDBRANCH  19  20
ENDBRANCH   1  19
TORSDOF 4
ENDMDL
MODEL 3
REMARK VINA RESULT:      -7.8      5.897      9.660
REMARK  Name = 
REMARK  5 active torsions:
REMARK  status: ('A' for Active; 'I' for Inactive)
REMARK    1  A    between atoms: C_1  and  C_2
REMARK    2  A    between atoms: C_2  and  N_3
REMARK    3  A    between atoms: C_2  and  C_17
REMARK    4  A    between atoms: C_12  and  C_13
REMARK    5  A    between atoms: C_21  and  C_22
REMARK                            x       y       z     vdW  Elec       q    Type
REMARK                         _______ _______ _______ _____ _____    ______ ____
ROOT
ATOM      1  N   UNL     1       5.878   4.895  17.042  0.00  0.00    +0.000 N 
ATOM      2  C   UNL     1       5.666   5.114  18.379  0.00  0.00    +0.000 C 
ATOM      3  O   UNL     1       6.480   5.671  19.108  0.00  0.00    +0.000 OA
ATOM      4  N   UNL     1       4.466   4.633  18.844  0.00  0.00    +0.000 N 
ATOM      5  C   UNL     1       3.959   4.935  20.144  0.00  0.00    +0.000 C 
ATOM      6  C   UNL     1       2.531   4.379  20.093  0.00  0.00    +0.000 C 
ATOM      7  C   UNL     1       2.048   4.099  21.515  0.00  0.00    +0.000 C 
ATOM      8  C   UNL     1       1.485   2.706  21.481  0.00  0.00    +0.000 C 
ATOM      9  C   UNL     1       1.467   2.332  20.009  0.00  0.00    +0.000 C 
ATOM     10  C   UNL     1       2.662   3.049  19.285  0.00  0.00    +0.000 C 
ATOM     11  C   UNL     1       3.564   3.719  18.169  0.00  0.00    +0.000 C 
ATOM     12  H   UNL     1       5.051   4.859  16.468  0.00  0.00    +0.000 HD
ENDROOT
BRANCH  10  13
ATOM     13  C   UNL     1       1.974   2.430  17.992  0.00  0.00    +0.000 C 
ATOM     14  N   UNL     1       0.899   1.608  18.284  0.00  0.00    +0.000 N 
ATOM     15  O   UNL     1       2.326   2.606  16.835  0.00  0.00    +0.000 OA
ATOM     16  H   UNL     1       0.466   1.573  19.201  0.00  0.00    +0.000 HD
ATOM     17  H   UNL     1       0.377   1.216  17.510  0.00  0.00    +0.000 HD
ENDBRANCH  10  13
BRANCH   1  19
ATOM     18  C   UNL     1       7.508   6.737  16.696  0.00  0.00    +0.000 C 
ATOM     19  C   UNL     1       7.117   5.287  16.390  0.00  0.00    +0.000 C 
BRANCH  19  20
ATOM     20  C   UNL     1       7.052   5.084  14.891  0.00  0.00    +0.000 A 
ATOM     21  C   UNL     1       8.031   5.591  14.022  0.00  0.00    +0.000 A 
ATOM     22  C   UNL     1       8.007   5.249  12.656  0.00  0.00    +0.000 A 
ATOM     23  C   UNL     1       7.020   4.389  12.172  0.00  0.00    +0.000 A 
ATOM     24  C   UNL     1       6.018   3.878  13.009  0.00  0.00    +0.000 A 
ATOM     25  C   UNL     1       6.045   4.266  14.357  0.00  0.00    +0.000 A 
BRANCH  24  26
ATOM     26  C   UNL     1       5.029   2.852  12.520  0.00  0.00    +0.000 C 
ATOM     27  C   UNL     1       5.264   2.083  11.245  0.00  0.00    +0.000 C 
ATOM     28  C   UNL     1       4.187   3.125  11.296  0.00  0.00    +0.000 C 
ENDBRANCH  24  26
ENDBRANCH  19  20
ENDBRANCH   1  19
TORSDOF 4
ENDMDL
MODEL 4
REMARK VINA RESULT:      -7.8      2.343      3.059
REMARK  Name = 
REMARK  5 active torsions:
REMARK  status: ('A' for Active; 'I' for Inactive)
REMARK    1  A    between atoms: C_1  and  C_2
REMARK    2  A    between atoms: C_2  and  N_3
REMARK    3  A    between atoms: C_2  and  C_17
REMARK    4  A    between atoms: C_12  and  C_13
REMARK    5  A    between atoms: C_21  and  C_22
REMARK                            x       y       z     vdW  Elec       q    Type
REMARK                         _______ _______ _______ _____ _____    ______ ____
ROOT
ATOM      1  N   UNL     1       0.940   9.436  19.224  0.00  0.00    +0.000 N 
ATOM      2  C   UNL     1       1.876   9.191  18.252  0.00  0.00    +0.000 C 
ATOM      3  O   UNL     1       2.174  10.004  17.383  0.00  0.00    +0.000 OA
ATOM      4  N   UNL     1       2.441   7.940  18.319  0.00  0.00    +0.000 N 
ATOM      5  C   UNL     1       3.574   7.557  17.540  0.00  0.00    +0.000 C 
ATOM      6  C   UNL     1       3.952   6.193  18.132  0.00  0.00    +0.000 C 
ATOM      7  C   UNL     1       4.743   5.396  17.097  0.00  0.00    +0.000 C 
ATOM      8  C   UNL     1       4.097   4.041  17.055  0.00  0.00    +0.000 C 
ATOM      9  C   UNL     1       3.115   4.044  18.213  0.00  0.00    +0.000 C 
ATOM     10  C   UNL     1       2.581   5.505  18.426  0.00  0.00    +0.000 C 
ATOM     11  C   UNL     1       1.978   6.807  19.097  0.00  0.00    +0.000 C 
ATOM     12  H   UNL     1       1.077   8.950  20.096  0.00  0.00    +0.000 HD
ENDROOT
BRANCH  10  13
ATOM     13  C   UNL     1       1.889   4.843  19.694  0.00  0.00    +0.000 C 
ATOM     14  N   UNL     1       2.242   5.446  20.889  0.00  0.00    +0.000 N 
ATOM     15  O   UNL     1       1.132   3.883  19.682  0.00  0.00    +0.000 OA
ATOM     16  H   UNL     1       2.719   6.341  20.934  0.00  0.00    +0.000 HD
ATOM     17  H   UNL     1       1.802   5.113  21.738  0.00  0.00    +0.000 HD
ENDBRANCH  10  13
BRANCH   1  19
ATOM     18  C   UNL     1      -0.144  11.108  20.708  0.00  0.00    +0.000 C 
ATOM     19  C   UNL     1       0.201  10.687  19.275  0.00  0.00    +0.000 C 
BRANCH  19  20
ATOM     20  C   UNL     1      -1.065  10.626  18.446  0.00  0.00    +0.000 A 
ATOM     21  C   UNL     1      -1.194   9.782  17.333  0.00  0.00    +0.000 A 
ATOM     22  C   UNL     1      -2.438   9.651  16.687  0.00  0.00    +0.000 A 
ATOM     23  C   UNL     1      -3.548  10.348  17.167  0.00  0.00    +0.000 A 
ATOM     24  C   UNL     1      -3.449  11.213  18.267  0.00  0.00    +0.000 A 
ATOM     25  C   UNL     1      -2.190  11.352  18.867  0.00  0.00    +0.000 A 
BRANCH  24  26
ATOM     26  C   UNL     1      -4.668  11.868  18.867  0.00  0.00    +0.000 C 
ATOM     27  C   UNL     1      -6.044  11.280  18.681  0.00  0.00    +0.000 C 
ATOM     28  C   UNL     1      -5.680  12.555  17.981  0.00  0.00    +0.000 C 
ENDBRANCH  24  26
ENDBRANCH  19  20
ENDBRANCH   1  19
TORSDOF 4
ENDMDL
MODEL 5
REMARK VINA RESULT:      -7.8      2.460      3.596
REMARK  Name = 
REMARK  5 active torsions:
REMARK  status: ('A' for Active; 'I' for Inactive)
REMARK    1  A    between atoms: C_1  and  C_2
REMARK    2  A    between atoms: C_2  and  N_3
REMARK    3  A    between atoms: C_2  and  C_17
REMARK    4  A    between atoms: C_12  and  C_13
REMARK    5  A    between atoms: C_21  and  C_22
REMARK                            x       y       z     vdW  Elec       q    Type
REMARK                         _______ _______ _______ _____ _____    ______ ____
ROOT
ATOM      1  N   UNL     1       1.370   9.540  19.410  0.00  0.00    +0.000 N 
ATOM      2  C   UNL     1       2.118   9.127  18.337  0.00  0.00    +0.000 C 
ATOM      3  O   UNL     1       2.400   9.856  17.391  0.00  0.00    +0.000 OA
ATOM      4  N   UNL     1       2.509   7.812  18.398  0.00  0.00    +0.000 N 
ATOM      5  C   UNL     1       3.459   7.241  17.498  0.00  0.00    +0.000 C 
ATOM      6  C   UNL     1       3.725   5.860  18.109  0.00  0.00    +0.000 C 
ATOM      7  C   UNL     1       4.246   4.920  17.025  0.00  0.00    +0.000 C 
ATOM      8  C   UNL     1       3.421   3.670  17.146  0.00  0.00    +0.000 C 
ATOM      9  C   UNL     1       2.620   3.858  18.422  0.00  0.00    +0.000 C 
ATOM     10  C   UNL     1       2.327   5.388  18.622  0.00  0.00    +0.000 C 
ATOM     11  C   UNL     1       2.009   6.786  19.293  0.00  0.00    +0.000 C 
ATOM     12  H   UNL     1       1.559   9.072  20.281  0.00  0.00    +0.000 HD
ENDROOT
BRANCH  10  13
ATOM     13  C   UNL     1       1.735   4.879  20.006  0.00  0.00    +0.000 C 
ATOM     14  N   UNL     1       2.135   5.645  21.088  0.00  0.00    +0.000 N 
ATOM     15  O   UNL     1       1.015   3.905  20.166  0.00  0.00    +0.000 OA
ATOM     16  H   UNL     1       2.581   6.551  20.986  0.00  0.00    +0.000 HD
ATOM     17  H   UNL     1       1.758   5.414  21.999  0.00  0.00    +0.000 HD
ENDBRANCH  10  13
BRANCH   1  19
ATOM     18  C   UNL     1       0.947  11.489  20.892  0.00  0.00    +0.000 C 
ATOM     19  C   UNL     1       0.825  10.885  19.488  0.00  0.00    +0.000 C 
BRANCH  19  20
ATOM     20  C   UNL     1      -0.621  10.933  19.040  0.00  0.00    +0.000 A 
ATOM     21  C   UNL     1      -1.571  11.764  19.654  0.00  0.00    +0.000 A 
ATOM     22  C   UNL     1      -2.863  11.884  19.107  0.00  0.00    +0.000 A 
ATOM     23  C   UNL     1      -3.192  11.190  17.942  0.00  0.00    +0.000 A 
ATOM     24  C   UNL     1      -2.272  10.339  17.313  0.00  0.00    +0.000 A 
ATOM     25  C   UNL     1      -1.006  10.210  17.900  0.00  0.00    +0.000 A 
BRANCH  24  26
ATOM     26  C   UNL     1      -2.579   9.688  15.988  0.00  0.00    +0.000 C 
ATOM     27  C   UNL     1      -2.933  10.511  14.775  0.00  0.00    +0.000 C 
ATOM     28  C   UNL     1      -3.989   9.684  15.447  0.00  0.00    +0.000 C 
ENDBRANCH  24  26
ENDBRANCH  19  20
ENDBRANCH   1  19
TORSDOF 4
ENDMDL
MODEL 6
REMARK VINA RESULT:      -7.8      5.937      9.621
REMARK  Name = 
REMARK  5 active torsions:
REMARK  status: ('A' for Active; 'I' for Inactive)
REMARK    1  A    between atoms: C_1  and  C_2
REMARK    2  A    between atoms: C_2  and  N_3
REMARK    3  A    between atoms: C_2  and  C_17
REMARK    4  A    between atoms: C_12  and  C_13
REMARK    5  A    between atoms: C_21  and  C_22
REMARK                            x       y       z     vdW  Elec       q    Type
REMARK                         _______ _______ _______ _____ _____    ______ ____
ROOT
ATOM      1  N   UNL     1       6.295   4.737  17.013  0.00  0.00    +0.000 N 
ATOM      2  C   UNL     1       5.047   5.259  17.235  0.00  0.00    +0.000 C 
ATOM      3  O   UNL     1       4.685   6.349  16.803  0.00  0.00    +0.000 OA
ATOM      4  N   UNL     1       4.234   4.463  18.006  0.00  0.00    +0.000 N 
ATOM      5  C   UNL     1       2.840   4.716  18.183  0.00  0.00    +0.000 C 
ATOM      6  C   UNL     1       2.352   3.456  18.908  0.00  0.00    +0.000 C 
ATOM      7  C   UNL     1       1.065   3.777  19.665  0.00  0.00    +0.000 C 
ATOM      8  C   UNL     1       1.273   3.242  21.053  0.00  0.00    +0.000 C 
ATOM      9  C   UNL     1       2.565   2.449  20.973  0.00  0.00    +0.000 C 
ATOM     10  C   UNL     1       3.505   3.111  19.903  0.00  0.00    +0.000 C 
ATOM     11  C   UNL     1       4.627   3.318  18.805  0.00  0.00    +0.000 C 
ATOM     12  H   UNL     1       6.354   3.732  17.002  0.00  0.00    +0.000 HD
ENDROOT
BRANCH  10  13
ATOM     13  C   UNL     1       4.401   1.834  20.208  0.00  0.00    +0.000 C 
ATOM     14  N   UNL     1       4.441   0.930  19.160  0.00  0.00    +0.000 N 
ATOM     15  O   UNL     1       4.999   1.606  21.249  0.00  0.00    +0.000 OA
ATOM     16  H   UNL     1       4.111   1.154  18.226  0.00  0.00    +0.000 HD
ATOM     17  H   UNL     1       5.033   0.114  19.259  0.00  0.00    +0.000 HD
ENDBRANCH  10  13
BRANCH   1  19
ATOM     18  C   UNL     1       7.269   6.973  16.539  0.00  0.00    +0.000 C 
ATOM     19  C   UNL     1       7.306   5.465  16.264  0.00  0.00    +0.000 C 
BRANCH  19  20
ATOM     20  C   UNL     1       7.188   5.219  14.774  0.00  0.00    +0.000 A 
ATOM     21  C   UNL     1       8.118   5.724  13.853  0.00  0.00    +0.000 A 
ATOM     22  C   UNL     1       8.050   5.344  12.500  0.00  0.00    +0.000 A 
ATOM     23  C   UNL     1       7.066   4.447  12.078  0.00  0.00    +0.000 A 
ATOM     24  C   UNL     1       6.111   3.936  12.969  0.00  0.00    +0.000 A 
ATOM     25  C   UNL     1       6.181   4.362  14.303  0.00  0.00    +0.000 A 
BRANCH  24  26
ATOM     26  C   UNL     1       5.129   2.873  12.548  0.00  0.00    +0.000 C 
ATOM     27  C   UNL     1       5.340   2.065  11.292  0.00  0.00    +0.000 C 
ATOM     28  C   UNL     1       4.243   3.086  11.343  0.00  0.00    +0.000 C 
ENDBRANCH  24  26
ENDBRANCH  19  20
ENDBRANCH   1  19
TORSDOF 4
ENDMDL
MODEL 7
REMARK VINA RESULT:      -7.8      2.230      9.298
REMARK  Name = 
REMARK  5 active torsions:
REMARK  status: ('A' for Active; 'I' for Inactive)
REMARK    1  A    between atoms: C_1  and  C_2
REMARK    2  A    between atoms: C_2  and  N_3
REMARK    3  A    between atoms: C_2  and  C_17
REMARK    4  A    between atoms: C_12  and  C_13
REMARK    5  A    between atoms: C_21  and  C_22
REMARK                            x       y       z     vdW  Elec       q    Type
REMARK                         _______ _______ _______ _____ _____    ______ ____
ROOT
ATOM      1  N   UNL     1       3.531   5.775  18.393  0.00  0.00    +0.000 N 
ATOM      2  C   UNL     1       2.740   5.800  19.513  0.00  0.00    +0.000 C 
ATOM      3  O   UNL     1       2.521   4.812  20.207  0.00  0.00    +0.000 OA
ATOM      4  N   UNL     1       2.191   7.030  19.785  0.00  0.00    +0.000 N 
ATOM      5  C   UNL     1       1.513   7.325  21.006  0.00  0.00    +0.000 C 
ATOM      6  C   UNL     1       1.303   8.842  20.924  0.00  0.00    +0.000 C 
ATOM      7  C   UNL     1       0.134   9.239  21.824  0.00  0.00    +0.000 C 
ATOM      8  C   UNL     1      -0.746  10.113  20.977  0.00  0.00    +0.000 C 
ATOM      9  C   UNL     1       0.057  10.359  19.711  0.00  0.00    +0.000 C 
ATOM     10  C   UNL     1       0.956   9.105  19.424  0.00  0.00    +0.000 C 
ATOM     11  C   UNL     1       2.133   8.181  18.905  0.00  0.00    +0.000 C 
ATOM     12  H   UNL     1       3.998   6.638  18.167  0.00  0.00    +0.000 HD
ENDROOT
BRANCH  10  13
ATOM     13  C   UNL     1       1.526  10.039  18.271  0.00  0.00    +0.000 C 
ATOM     14  N   UNL     1       1.007  11.322  18.299  0.00  0.00    +0.000 N 
ATOM     15  O   UNL     1       2.323   9.709  17.406  0.00  0.00    +0.000 OA
ATOM     16  H   UNL     1       0.486  11.688  19.089  0.00  0.00    +0.000 HD
ATOM     17  H   UNL     1       1.359  11.992  17.626  0.00  0.00    +0.000 HD
ENDBRANCH  10  13
BRANCH   1  19
ATOM     18  C   UNL     1       4.857   3.777  19.046  0.00  0.00    +0.000 C 
ATOM     19  C   UNL     1       4.150   4.546  17.924  0.00  0.00    +0.000 C 
BRANCH  19  20
ATOM     20  C   UNL     1       5.126   4.805  16.794  0.00  0.00    +0.000 A 
ATOM     21  C   UNL     1       6.237   5.649  16.940  0.00  0.00    +0.000 A 
ATOM     22  C   UNL     1       7.195   5.738  15.912  0.00  0.00    +0.000 A 
ATOM     23  C   UNL     1       7.048   4.971  14.755  0.00  0.00    +0.000 A 
ATOM     24  C   UNL     1       5.942   4.130  14.571  0.00  0.00    +0.000 A 
ATOM     25  C   UNL     1       4.985   4.089  15.595  0.00  0.00    +0.000 A 
BRANCH  24  26
ATOM     26  C   UNL     1       5.843   3.205  13.384  0.00  0.00    +0.000 C 
ATOM     27  C   UNL     1       6.543   3.519  12.086  0.00  0.00    +0.000 C 
ATOM     28  C   UNL     1       5.047   3.609  12.165  0.00  0.00    +0.000 C 
ENDBRANCH  24  26
ENDBRANCH  19  20
ENDBRANCH   1  19
TORSDOF 4
ENDMDL
MODEL 8
REMARK VINA RESULT:      -7.6      2.808      8.197
REMARK  Name = 
REMARK  5 active torsions:
REMARK  status: ('A' for Active; 'I' for Inactive)
REMARK    1  A    between atoms: C_1  and  C_2
REMARK    2  A    between atoms: C_2  and  N_3
REMARK    3  A    between atoms: C_2  and  C_17
REMARK    4  A    between atoms: C_12  and  C_13
REMARK    5  A    between atoms: C_21  and  C_22
REMARK                            x       y       z     vdW  Elec       q    Type
REMARK                         _______ _______ _______ _____ _____    ______ ____
ROOT
ATOM      1  N   UNL     1       1.350   9.117  18.307  0.00  0.00    +0.000 N 
ATOM      2  C   UNL     1       0.705   9.799  19.306  0.00  0.00    +0.000 C 
ATOM      3  O   UNL     1       1.118   9.853  20.460  0.00  0.00    +0.000 OA
ATOM      4  N   UNL     1      -0.464  10.403  18.911  0.00  0.00    +0.000 N 
ATOM      5  C   UNL     1      -1.177  11.328  19.732  0.00  0.00    +0.000 C 
ATOM      6  C   UNL     1      -2.244  11.880  18.780  0.00  0.00    +0.000 C 
ATOM      7  C   UNL     1      -3.414  12.425  19.595  0.00  0.00    +0.000 C 
ATOM      8  C   UNL     1      -4.647  11.832  18.974  0.00  0.00    +0.000 C 
ATOM      9  C   UNL     1      -4.155  11.157  17.706  0.00  0.00    +0.000 C 
ATOM     10  C   UNL     1      -2.689  10.643  17.937  0.00  0.00    +0.000 C 
ATOM     11  C   UNL     1      -1.198  10.177  17.681  0.00  0.00    +0.000 C 
ATOM     12  H   UNL     1       1.214   9.474  17.375  0.00  0.00    +0.000 HD
ENDROOT
BRANCH  10  13
ATOM     13  C   UNL     1      -2.791  10.297  16.389  0.00  0.00    +0.000 C 
ATOM     14  N   UNL     1      -3.102  11.393  15.602  0.00  0.00    +0.000 N 
ATOM     15  O   UNL     1      -2.644   9.193  15.887  0.00  0.00    +0.000 OA
ATOM     16  H   UNL     1      -3.060  12.347  15.946  0.00  0.00    +0.000 HD
ATOM     17  H   UNL     1      -3.135  11.263  14.598  0.00  0.00    +0.000 HD
ENDBRANCH  10  13
BRANCH   1  19
ATOM     18  C   UNL     1       3.441   8.229  17.301  0.00  0.00    +0.000 C 
ATOM     19  C   UNL     1       2.573   8.372  18.556  0.00  0.00    +0.000 C 
BRANCH  19  20
ATOM     20  C   UNL     1       2.289   7.001  19.134  0.00  0.00    +0.000 A 
ATOM     21  C   UNL     1       1.792   6.822  20.433  0.00  0.00    +0.000 A 
ATOM     22  C   UNL     1       1.403   5.541  20.870  0.00  0.00    +0.000 A 
ATOM     23  C   UNL     1       1.494   4.452  20.001  0.00  0.00    +0.000 A 
ATOM     24  C   UNL     1       2.001   4.594  18.702  0.00  0.00    +0.000 A 
ATOM     25  C   UNL     1       2.416   5.873  18.307  0.00  0.00    +0.000 A 
BRANCH  24  26
ATOM     26  C   UNL     1       1.983   3.450  17.719  0.00  0.00    +0.000 C 
ATOM     27  C   UNL     1       2.017   2.017  18.185  0.00  0.00    +0.000 C 
ATOM     28  C   UNL     1       3.217   2.606  17.506  0.00  0.00    +0.000 C 
ENDBRANCH  24  26
ENDBRANCH  19  20
ENDBRANCH   1  19
TORSDOF 4
ENDMDL
MODEL 9
REMARK VINA RESULT:      -7.6      1.865      8.495
REMARK  Name = 
REMARK  5 active torsions:
REMARK  status: ('A' for Active; 'I' for Inactive)
REMARK    1  A    between atoms: C_1  and  C_2
REMARK    2  A    between atoms: C_2  and  N_3
REMARK    3  A    between atoms: C_2  and  C_17
REMARK    4  A    between atoms: C_12  and  C_13
REMARK    5  A    between atoms: C_21  and  C_22
REMARK                            x       y       z     vdW  Elec       q    Type
REMARK                         _______ _______ _______ _____ _____    ______ ____
ROOT
ATOM      1  N   UNL     1       2.910   5.959  18.951  0.00  0.00    +0.000 N 
ATOM      2  C   UNL     1       2.108   6.191  20.039  0.00  0.00    +0.000 C 
ATOM      3  O   UNL     1       1.749   5.308  20.812  0.00  0.00    +0.000 OA
ATOM      4  N   UNL     1       1.718   7.500  20.181  0.00  0.00    +0.000 N 
ATOM      5  C   UNL     1       1.060   7.992  21.349  0.00  0.00    +0.000 C 
ATOM      6  C   UNL     1       1.050   9.509  21.123  0.00  0.00    +0.000 C 
ATOM      7  C   UNL     1      -0.074  10.134  21.947  0.00  0.00    +0.000 C 
ATOM      8  C   UNL     1      -0.817  11.030  20.997  0.00  0.00    +0.000 C 
ATOM      9  C   UNL     1       0.035  11.052  19.740  0.00  0.00    +0.000 C 
ATOM     10  C   UNL     1       0.770   9.672  19.596  0.00  0.00    +0.000 C 
ATOM     11  C   UNL     1       1.827   8.561  19.199  0.00  0.00    +0.000 C 
ATOM     12  H   UNL     1       3.490   6.731  18.663  0.00  0.00    +0.000 HD
ENDROOT
BRANCH  10  13
ATOM     13  C   UNL     1       1.478  10.414  18.381  0.00  0.00    +0.000 C 
ATOM     14  N   UNL     1       1.232  11.776  18.353  0.00  0.00    +0.000 N 
ATOM     15  O   UNL     1       2.161   9.887  17.516  0.00  0.00    +0.000 OA
ATOM     16  H   UNL     1       0.823  12.278  19.134  0.00  0.00    +0.000 HD
ATOM     17  H   UNL     1       1.690  12.327  17.637  0.00  0.00    +0.000 HD
ENDBRANCH  10  13
BRANCH   1  19
ATOM     18  C   UNL     1       3.829   3.831  19.844  0.00  0.00    +0.000 C 
ATOM     19  C   UNL     1       3.374   4.624  18.614  0.00  0.00    +0.000 C 
BRANCH  19  20
ATOM     20  C   UNL     1       4.491   4.657  17.591  0.00  0.00    +0.000 A 
ATOM     21  C   UNL     1       4.380   4.038  16.337  0.00  0.00    +0.000 A 
ATOM     22  C   UNL     1       5.382   4.224  15.366  0.00  0.00    +0.000 A 
ATOM     23  C   UNL     1       6.478   5.042  15.647  0.00  0.00    +0.000 A 
ATOM     24  C   UNL     1       6.628   5.663  16.895  0.00  0.00    +0.000 A 
ATOM     25  C   UNL     1       5.633   5.430  17.855  0.00  0.00    +0.000 A 
BRANCH  24  26
ATOM     26  C   UNL     1       7.739   6.646  17.158  0.00  0.00    +0.000 C 
ATOM     27  C   UNL     1       8.037   7.137  18.553  0.00  0.00    +0.000 C 
ATOM     28  C   UNL     1       7.423   8.070  17.552  0.00  0.00    +0.000 C 
ENDBRANCH  24  26
ENDBRANCH  19  20
ENDBRANCH   1  19
TORSDOF 4
ENDMDL
