MODEL 1
REMARK VINA RESULT:      -9.7      0.000      0.000
REMARK  Name = 
REMARK  3 active torsions:
REMARK  status: ('A' for Active; 'I' for Inactive)
REMARK    1  A    between atoms: C_2  and  C_14
REMARK    2  A    between atoms: C_19  and  S_20
REMARK    3  A    between atoms: S_20  and  C_21
REMARK                            x       y       z     vdW  Elec       q    Type
REMARK                         _______ _______ _______ _____ _____    ______ ____
ROOT
ATOM      1  O   UNL     1       3.512   6.006  19.728  0.00  0.00    +0.000 OA
ATOM      2  C   UNL     1       3.620   6.367  18.559  0.00  0.00    +0.000 C 
ATOM      3  N   UNL     1       2.894   7.388  17.980  0.00  0.00    +0.000 N 
ATOM      4  C   UNL     1       1.994   8.226  18.661  0.00  0.00    +0.000 A 
ATOM      5  C   UNL     1       1.381   9.235  17.932  0.00  0.00    +0.000 A 
ATOM      6  C   UNL     1       0.551  10.138  18.596  0.00  0.00    +0.000 A 
ATOM      7  C   UNL     1       0.374  10.025  19.979  0.00  0.00    +0.000 A 
ATOM      8  C   UNL     1      -0.384  10.953  20.718  0.00  0.00    +0.000 A 
ATOM      9  C   UNL     1      -0.481  10.836  22.103  0.00  0.00    +0.000 A 
ATOM     10  C   UNL     1       0.145   9.776  22.751  0.00  0.00    +0.000 A 
ATOM     11  C   UNL     1       0.870   8.840  22.008  0.00  0.00    +0.000 A 
ATOM     12  C   UNL     1       1.014   8.955  20.633  0.00  0.00    +0.000 A 
ATOM     13  N   UNL     1       1.785   8.074  19.979  0.00  0.00    +0.000 NA
ATOM     14  H   UNL     1       3.053   7.607  17.007  0.00  0.00    +0.000 HD
ENDROOT
BRANCH   2  15
ATOM     15  C   UNL     1       4.609   5.621  17.714  0.00  0.00    +0.000 A 
ATOM     16  C   UNL     1       5.837   6.281  17.497  0.00  0.00    +0.000 A 
ATOM     17  C   UNL     1       6.836   5.715  16.712  0.00  0.00    +0.000 A 
ATOM     18  C   UNL     1       6.590   4.479  16.161  0.00  0.00    +0.000 A 
ATOM     19  N   UNL     1       5.440   3.801  16.343  0.00  0.00    +0.000 NA
ATOM     20  C   UNL     1       4.455   4.370  17.102  0.00  0.00    +0.000 A 
BRANCH  20  21
ATOM     21  S   UNL     1       2.969   3.390  17.110  0.00  0.00    +0.000 S 
BRANCH  21  22
ATOM     22  C   UNL     1       2.598   3.094  18.832  0.00  0.00    +0.000 A 
ATOM     23  C   UNL     1       3.510   2.616  19.778  0.00  0.00    +0.000 A 
ATOM     24  C   UNL     1       3.139   2.484  21.121  0.00  0.00    +0.000 A 
ATOM     25  C   UNL     1       1.851   2.824  21.532  0.00  0.00    +0.000 A 
ATOM     26  C   UNL     1       0.928   3.285  20.600  0.00  0.00    +0.000 A 
ATOM     27  C   UNL     1       1.300   3.418  19.259  0.00  0.00    +0.000 A 
ENDBRANCH  21  22
ENDBRANCH  20  21
ENDBRANCH   2  15
TORSDOF 3
ENDMDL
MODEL 2
REMARK VINA RESULT:      -8.9      1.679      4.349
REMARK  Name = 
REMARK  3 active torsions:
REMARK  status: ('A' for Active; 'I' for Inactive)
REMARK    1  A    between atoms: C_2  and  C_14
REMARK    2  A    between atoms: C_19  and  S_20
REMARK    3  A    between atoms: S_20  and  C_21
REMARK                            x       y       z     vdW  Elec       q    Type
REMARK                         _______ _______ _______ _____ _____    ______ ____
ROOT
ATOM      1  O   UNL     1       2.197   7.040  18.680  0.00  0.00    +0.000 OA
ATOM      2  C   UNL     1       2.137   6.533  19.796  0.00  0.00    +0.000 C 
ATOM      3  N   UNL     1       1.704   7.183  20.934  0.00  0.00    +0.000 N 
ATOM      4  C   UNL     1       1.182   8.488  20.969  0.00  0.00    +0.000 A 
ATOM      5  C   UNL     1       0.749   8.972  22.197  0.00  0.00    +0.000 A 
ATOM      6  C   UNL     1       0.145  10.228  22.250  0.00  0.00    +0.000 A 
ATOM      7  C   UNL     1      -0.036  10.959  21.072  0.00  0.00    +0.000 A 
ATOM      8  C   UNL     1      -0.712  12.193  21.049  0.00  0.00    +0.000 A 
ATOM      9  C   UNL     1      -0.924  12.856  19.841  0.00  0.00    +0.000 A 
ATOM     10  C   UNL     1      -0.432  12.310  18.660  0.00  0.00    +0.000 A 
ATOM     11  C   UNL     1       0.265  11.100  18.693  0.00  0.00    +0.000 A 
ATOM     12  C   UNL     1       0.456  10.401  19.876  0.00  0.00    +0.000 A 
ATOM     13  N   UNL     1       1.064   9.206  19.841  0.00  0.00    +0.000 NA
ATOM     14  H   UNL     1       1.696   6.679  21.809  0.00  0.00    +0.000 HD
ENDROOT
BRANCH   2  15
ATOM     15  C   UNL     1       2.584   5.106  19.912  0.00  0.00    +0.000 A 
ATOM     16  C   UNL     1       2.208   4.450  21.103  0.00  0.00    +0.000 A 
ATOM     17  C   UNL     1       2.576   3.132  21.352  0.00  0.00    +0.000 A 
ATOM     18  C   UNL     1       3.313   2.483  20.389  0.00  0.00    +0.000 A 
ATOM     19  N   UNL     1       3.690   3.058  19.230  0.00  0.00    +0.000 NA
ATOM     20  C   UNL     1       3.339   4.359  18.998  0.00  0.00    +0.000 A 
BRANCH  20  21
ATOM     21  S   UNL     1       4.045   4.980  17.486  0.00  0.00    +0.000 S 
BRANCH  21  22
ATOM     22  C   UNL     1       5.597   5.731  17.954  0.00  0.00    +0.000 A 
ATOM     23  C   UNL     1       6.457   5.244  18.943  0.00  0.00    +0.000 A 
ATOM     24  C   UNL     1       7.686   5.867  19.186  0.00  0.00    +0.000 A 
ATOM     25  C   UNL     1       8.067   6.986  18.448  0.00  0.00    +0.000 A 
ATOM     26  C   UNL     1       7.215   7.492  17.474  0.00  0.00    +0.000 A 
ATOM     27  C   UNL     1       5.988   6.869  17.230  0.00  0.00    +0.000 A 
ENDBRANCH  21  22
ENDBRANCH  20  21
ENDBRANCH   2  15
TORSDOF 3
ENDMDL
MODEL 3
REMARK VINA RESULT:      -8.9      1.649      4.312
REMARK  Name = 
REMARK  3 active torsions:
REMARK  status: ('A' for Active; 'I' for Inactive)
REMARK    1  A    between atoms: C_2  and  C_14
REMARK    2  A    between atoms: C_19  and  S_20
REMARK    3  A    between atoms: S_20  and  C_21
REMARK                            x       y       z     vdW  Elec       q    Type
REMARK                         _______ _______ _______ _____ _____    ______ ____
ROOT
ATOM      1  O   UNL     1       2.333   6.684  18.433  0.00  0.00    +0.000 OA
ATOM      2  C   UNL     1       2.496   6.276  19.579  0.00  0.00    +0.000 C 
ATOM      3  N   UNL     1       2.148   6.972  20.720  0.00  0.00    +0.000 N 
ATOM      4  C   UNL     1       1.473   8.205  20.739  0.00  0.00    +0.000 A 
ATOM      5  C   UNL     1       1.159   8.744  21.979  0.00  0.00    +0.000 A 
ATOM      6  C   UNL     1       0.413   9.921  22.032  0.00  0.00    +0.000 A 
ATOM      7  C   UNL     1      -0.024  10.517  20.845  0.00  0.00    +0.000 A 
ATOM      8  C   UNL     1      -0.849  11.657  20.835  0.00  0.00    +0.000 A 
ATOM      9  C   UNL     1      -1.311  12.180  19.628  0.00  0.00    +0.000 A 
ATOM     10  C   UNL     1      -0.924  11.590  18.429  0.00  0.00    +0.000 A 
ATOM     11  C   UNL     1      -0.080  10.477  18.444  0.00  0.00    +0.000 A 
ATOM     12  C   UNL     1       0.363   9.914  19.632  0.00  0.00    +0.000 A 
ATOM     13  N   UNL     1       1.108   8.800  19.592  0.00  0.00    +0.000 NA
ATOM     14  H   UNL     1       2.327   6.551  21.620  0.00  0.00    +0.000 HD
ENDROOT
BRANCH   2  15
ATOM     15  C   UNL     1       3.134   4.927  19.729  0.00  0.00    +0.000 A 
ATOM     16  C   UNL     1       2.307   3.926  20.283  0.00  0.00    +0.000 A 
ATOM     17  C   UNL     1       2.777   2.635  20.499  0.00  0.00    +0.000 A 
ATOM     18  C   UNL     1       4.077   2.362  20.144  0.00  0.00    +0.000 A 
ATOM     19  N   UNL     1       4.907   3.277  19.604  0.00  0.00    +0.000 NA
ATOM     20  C   UNL     1       4.444   4.549  19.408  0.00  0.00    +0.000 A 
BRANCH  20  21
ATOM     21  S   UNL     1       5.721   5.639  18.820  0.00  0.00    +0.000 S 
BRANCH  21  22
ATOM     22  C   UNL     1       5.960   5.216  17.101  0.00  0.00    +0.000 A 
ATOM     23  C   UNL     1       7.178   5.296  16.417  0.00  0.00    +0.000 A 
ATOM     24  C   UNL     1       7.275   4.873  15.087  0.00  0.00    +0.000 A 
ATOM     25  C   UNL     1       6.156   4.371  14.424  0.00  0.00    +0.000 A 
ATOM     26  C   UNL     1       4.935   4.302  15.085  0.00  0.00    +0.000 A 
ATOM     27  C   UNL     1       4.839   4.722  16.414  0.00  0.00    +0.000 A 
ENDBRANCH  21  22
ENDBRANCH  20  21
ENDBRANCH   2  15
TORSDOF 3
ENDMDL
MODEL 4
REMARK VINA RESULT:      -8.8      1.655      4.446
REMARK  Name = 
REMARK  3 active torsions:
REMARK  status: ('A' for Active; 'I' for Inactive)
REMARK    1  A    between atoms: C_2  and  C_14
REMARK    2  A    between atoms: C_19  and  S_20
REMARK    3  A    between atoms: S_20  and  C_21
REMARK                            x       y       z     vdW  Elec       q    Type
REMARK                         _______ _______ _______ _____ _____    ______ ____
ROOT
ATOM      1  O   UNL     1       2.265   6.893  18.595  0.00  0.00    +0.000 OA
ATOM      2  C   UNL     1       2.193   6.383  19.709  0.00  0.00    +0.000 C 
ATOM      3  N   UNL     1       1.795   7.045  20.854  0.00  0.00    +0.000 N 
ATOM      4  C   UNL     1       1.326   8.369  20.900  0.00  0.00    +0.000 A 
ATOM      5  C   UNL     1       0.923   8.865  22.132  0.00  0.00    +0.000 A 
ATOM      6  C   UNL     1       0.371  10.143  22.197  0.00  0.00    +0.000 A 
ATOM      7  C   UNL     1       0.211  10.888  21.023  0.00  0.00    +0.000 A 
ATOM      8  C   UNL     1      -0.414  12.148  21.012  0.00  0.00    +0.000 A 
ATOM      9  C   UNL     1      -0.608  12.825  19.809  0.00  0.00    +0.000 A 
ATOM     10  C   UNL     1      -0.148  12.266  18.622  0.00  0.00    +0.000 A 
ATOM     11  C   UNL     1       0.501  11.028  18.644  0.00  0.00    +0.000 A 
ATOM     12  C   UNL     1       0.671  10.316  19.822  0.00  0.00    +0.000 A 
ATOM     13  N   UNL     1       1.230   9.098  19.776  0.00  0.00    +0.000 NA
ATOM     14  H   UNL     1       1.772   6.537  21.726  0.00  0.00    +0.000 HD
ENDROOT
BRANCH   2  15
ATOM     15  C   UNL     1       2.582   4.939  19.815  0.00  0.00    +0.000 A 
ATOM     16  C   UNL     1       1.548   4.062  20.205  0.00  0.00    +0.000 A 
ATOM     17  C   UNL     1       1.775   2.699  20.364  0.00  0.00    +0.000 A 
ATOM     18  C   UNL     1       3.045   2.231  20.118  0.00  0.00    +0.000 A 
ATOM     19  N   UNL     1       4.066   3.022  19.734  0.00  0.00    +0.000 NA
ATOM     20  C   UNL     1       3.841   4.364  19.594  0.00  0.00    +0.000 A 
BRANCH  20  21
ATOM     21  S   UNL     1       5.335   5.256  19.220  0.00  0.00    +0.000 S 
BRANCH  21  22
ATOM     22  C   UNL     1       5.685   4.907  17.503  0.00  0.00    +0.000 A 
ATOM     23  C   UNL     1       4.724   4.593  16.537  0.00  0.00    +0.000 A 
ATOM     24  C   UNL     1       5.094   4.406  15.201  0.00  0.00    +0.000 A 
ATOM     25  C   UNL     1       6.429   4.524  14.816  0.00  0.00    +0.000 A 
ATOM     26  C   UNL     1       7.397   4.819  15.769  0.00  0.00    +0.000 A 
ATOM     27  C   UNL     1       7.027   5.008  17.103  0.00  0.00    +0.000 A 
ENDBRANCH  21  22
ENDBRANCH  20  21
ENDBRANCH   2  15
TORSDOF 3
ENDMDL
MODEL 5
REMARK VINA RESULT:      -8.7      1.093      1.776
REMARK  Name = 
REMARK  3 active torsions:
REMARK  status: ('A' for Active; 'I' for Inactive)
REMARK    1  A    between atoms: C_2  and  C_14
REMARK    2  A    between atoms: C_19  and  S_20
REMARK    3  A    between atoms: S_20  and  C_21
REMARK                            x       y       z     vdW  Elec       q    Type
REMARK                         _______ _______ _______ _____ _____    ______ ____
ROOT
ATOM      1  O   UNL     1       3.478   7.930  16.890  0.00  0.00    +0.000 OA
ATOM      2  C   UNL     1       3.645   6.961  17.624  0.00  0.00    +0.000 C 
ATOM      3  N   UNL     1       3.112   6.831  18.891  0.00  0.00    +0.000 N 
ATOM      4  C   UNL     1       2.226   7.742  19.492  0.00  0.00    +0.000 A 
ATOM      5  C   UNL     1       1.749   7.432  20.758  0.00  0.00    +0.000 A 
ATOM      6  C   UNL     1       0.802   8.270  21.344  0.00  0.00    +0.000 A 
ATOM      7  C   UNL     1       0.333   9.384  20.641  0.00  0.00    +0.000 A 
ATOM      8  C   UNL     1      -0.681  10.219  21.143  0.00  0.00    +0.000 A 
ATOM      9  C   UNL     1      -1.160  11.282  20.379  0.00  0.00    +0.000 A 
ATOM     10  C   UNL     1      -0.605  11.536  19.129  0.00  0.00    +0.000 A 
ATOM     11  C   UNL     1       0.424  10.722  18.649  0.00  0.00    +0.000 A 
ATOM     12  C   UNL     1       0.891   9.635  19.373  0.00  0.00    +0.000 A 
ATOM     13  N   UNL     1       1.826   8.840  18.831  0.00  0.00    +0.000 NA
ATOM     14  H   UNL     1       3.312   5.994  19.419  0.00  0.00    +0.000 HD
ENDROOT
BRANCH   2  15
ATOM     15  C   UNL     1       4.505   5.854  17.091  0.00  0.00    +0.000 A 
ATOM     16  C   UNL     1       5.818   6.228  16.733  0.00  0.00    +0.000 A 
ATOM     17  C   UNL     1       6.715   5.307  16.203  0.00  0.00    +0.000 A 
ATOM     18  C   UNL     1       6.282   4.011  16.049  0.00  0.00    +0.000 A 
ATOM     19  N   UNL     1       5.043   3.598  16.383  0.00  0.00    +0.000 NA
ATOM     20  C   UNL     1       4.160   4.511  16.888  0.00  0.00    +0.000 A 
BRANCH  20  21
ATOM     21  S   UNL     1       2.543   3.809  17.135  0.00  0.00    +0.000 S 
BRANCH  21  22
ATOM     22  C   UNL     1       2.456   3.404  18.873  0.00  0.00    +0.000 A 
ATOM     23  C   UNL     1       3.478   2.793  19.606  0.00  0.00    +0.000 A 
ATOM     24  C   UNL     1       3.338   2.581  20.982  0.00  0.00    +0.000 A 
ATOM     25  C   UNL     1       2.172   2.973  21.639  0.00  0.00    +0.000 A 
ATOM     26  C   UNL     1       1.141   3.565  20.921  0.00  0.00    +0.000 A 
ATOM     27  C   UNL     1       1.282   3.779  19.547  0.00  0.00    +0.000 A 
ENDBRANCH  21  22
ENDBRANCH  20  21
ENDBRANCH   2  15
TORSDOF 3
ENDMDL
MODEL 6
REMARK VINA RESULT:      -8.6      0.968      1.313
REMARK  Name = 
REMARK  3 active torsions:
REMARK  status: ('A' for Active; 'I' for Inactive)
REMARK    1  A    between atoms: C_2  and  C_14
REMARK    2  A    between atoms: C_19  and  S_20
REMARK    3  A    between atoms: S_20  and  C_21
REMARK                            x       y       z     vdW  Elec       q    Type
REMARK                         _______ _______ _______ _____ _____    ______ ____
ROOT
ATOM      1  O   UNL     1       3.419   6.283  19.660  0.00  0.00    +0.000 OA
ATOM      2  C   UNL     1       3.472   6.677  18.499  0.00  0.00    +0.000 C 
ATOM      3  N   UNL     1       2.689   7.685  17.972  0.00  0.00    +0.000 N 
ATOM      4  C   UNL     1       1.785   8.472  18.706  0.00  0.00    +0.000 A 
ATOM      5  C   UNL     1       1.110   9.476  18.025  0.00  0.00    +0.000 A 
ATOM      6  C   UNL     1       0.273  10.331  18.742  0.00  0.00    +0.000 A 
ATOM      7  C   UNL     1       0.150  10.177  20.127  0.00  0.00    +0.000 A 
ATOM      8  C   UNL     1      -0.613  11.057  20.916  0.00  0.00    +0.000 A 
ATOM      9  C   UNL     1      -0.656  10.902  22.300  0.00  0.00    +0.000 A 
ATOM     10  C   UNL     1       0.030   9.850  22.897  0.00  0.00    +0.000 A 
ATOM     11  C   UNL     1       0.760   8.961  22.105  0.00  0.00    +0.000 A 
ATOM     12  C   UNL     1       0.851   9.116  20.729  0.00  0.00    +0.000 A 
ATOM     13  N   UNL     1       1.629   8.279  20.026  0.00  0.00    +0.000 NA
ATOM     14  H   UNL     1       2.805   7.934  17.000  0.00  0.00    +0.000 HD
ENDROOT
BRANCH   2  15
ATOM     15  C   UNL     1       4.456   5.989  17.600  0.00  0.00    +0.000 A 
ATOM     16  C   UNL     1       4.673   6.613  16.353  0.00  0.00    +0.000 A 
ATOM     17  C   UNL     1       5.542   6.070  15.412  0.00  0.00    +0.000 A 
ATOM     18  C   UNL     1       6.195   4.906  15.745  0.00  0.00    +0.000 A 
ATOM     19  N   UNL     1       6.032   4.274  16.923  0.00  0.00    +0.000 NA
ATOM     20  C   UNL     1       5.164   4.804  17.838  0.00  0.00    +0.000 A 
BRANCH  20  21
ATOM     21  S   UNL     1       4.980   3.758  19.266  0.00  0.00    +0.000 S 
BRANCH  21  22
ATOM     22  C   UNL     1       3.249   3.321  19.322  0.00  0.00    +0.000 A 
ATOM     23  C   UNL     1       2.456   3.044  18.204  0.00  0.00    +0.000 A 
ATOM     24  C   UNL     1       1.124   2.642  18.359  0.00  0.00    +0.000 A 
ATOM     25  C   UNL     1       0.570   2.517  19.632  0.00  0.00    +0.000 A 
ATOM     26  C   UNL     1       1.341   2.805  20.752  0.00  0.00    +0.000 A 
ATOM     27  C   UNL     1       2.671   3.205  20.597  0.00  0.00    +0.000 A 
ENDBRANCH  21  22
ENDBRANCH  20  21
ENDBRANCH   2  15
TORSDOF 3
ENDMDL
MODEL 7
REMARK VINA RESULT:      -8.6      2.863      8.116
REMARK  Name = 
REMARK  3 active torsions:
REMARK  status: ('A' for Active; 'I' for Inactive)
REMARK    1  A    between atoms: C_2  and  C_14
REMARK    2  A    between atoms: C_19  and  S_20
REMARK    3  A    between atoms: S_20  and  C_21
REMARK                            x       y       z     vdW  Elec       q    Type
REMARK                         _______ _______ _______ _____ _____    ______ ____
ROOT
ATOM      1  O   UNL     1       1.732   9.263  18.954  0.00  0.00    +0.000 OA
ATOM      2  C   UNL     1       1.444   8.714  20.013  0.00  0.00    +0.000 C 
ATOM      3  N   UNL     1       1.778   7.416  20.344  0.00  0.00    +0.000 N 
ATOM      4  C   UNL     1       2.572   6.562  19.560  0.00  0.00    +0.000 A 
ATOM      5  C   UNL     1       2.848   5.299  20.067  0.00  0.00    +0.000 A 
ATOM      6  C   UNL     1       3.705   4.460  19.356  0.00  0.00    +0.000 A 
ATOM      7  C   UNL     1       4.288   4.913  18.167  0.00  0.00    +0.000 A 
ATOM      8  C   UNL     1       5.223   4.147  17.449  0.00  0.00    +0.000 A 
ATOM      9  C   UNL     1       5.825   4.665  16.303  0.00  0.00    +0.000 A 
ATOM     10  C   UNL     1       5.469   5.932  15.851  0.00  0.00    +0.000 A 
ATOM     11  C   UNL     1       4.516   6.675  16.552  0.00  0.00    +0.000 A 
ATOM     12  C   UNL     1       3.931   6.198  17.716  0.00  0.00    +0.000 A 
ATOM     13  N   UNL     1       3.080   6.985  18.392  0.00  0.00    +0.000 NA
ATOM     14  H   UNL     1       1.491   7.054  21.242  0.00  0.00    +0.000 HD
ENDROOT
BRANCH   2  15
ATOM     15  C   UNL     1       0.662   9.528  21.001  0.00  0.00    +0.000 A 
ATOM     16  C   UNL     1       0.483   8.931  22.268  0.00  0.00    +0.000 A 
ATOM     17  C   UNL     1      -0.242   9.565  23.271  0.00  0.00    +0.000 A 
ATOM     18  C   UNL     1      -0.772  10.803  22.990  0.00  0.00    +0.000 A 
ATOM     19  N   UNL     1      -0.624  11.421  21.802  0.00  0.00    +0.000 NA
ATOM     20  C   UNL     1       0.076  10.787  20.814  0.00  0.00    +0.000 A 
BRANCH  20  21
ATOM     21  S   UNL     1       0.043  11.696  19.284  0.00  0.00    +0.000 S 
BRANCH  21  22
ATOM     22  C   UNL     1      -1.457  11.188  18.457  0.00  0.00    +0.000 A 
ATOM     23  C   UNL     1      -1.551  10.133  17.544  0.00  0.00    +0.000 A 
ATOM     24  C   UNL     1      -2.790   9.769  17.003  0.00  0.00    +0.000 A 
ATOM     25  C   UNL     1      -3.946  10.460  17.364  0.00  0.00    +0.000 A 
ATOM     26  C   UNL     1      -3.865  11.522  18.257  0.00  0.00    +0.000 A 
ATOM     27  C   UNL     1      -2.629  11.883  18.798  0.00  0.00    +0.000 A 
ENDBRANCH  21  22
ENDBRANCH  20  21
ENDBRANCH   2  15
TORSDOF 3
ENDMDL
MODEL 8
REMARK VINA RESULT:      -8.4      1.652      4.048
REMARK  Name = 
REMARK  3 active torsions:
REMARK  status: ('A' for Active; 'I' for Inactive)
REMARK    1  A    between atoms: C_2  and  C_14
REMARK    2  A    between atoms: C_19  and  S_20
REMARK    3  A    between atoms: S_20  and  C_21
REMARK                            x       y       z     vdW  Elec       q    Type
REMARK                         _______ _______ _______ _____ _____    ______ ____
ROOT
ATOM      1  O   UNL     1       1.444   6.094  20.815  0.00  0.00    +0.000 OA
ATOM      2  C   UNL     1       2.060   5.887  19.774  0.00  0.00    +0.000 C 
ATOM      3  N   UNL     1       2.266   6.824  18.781  0.00  0.00    +0.000 N 
ATOM      4  C   UNL     1       1.884   8.175  18.854  0.00  0.00    +0.000 A 
ATOM      5  C   UNL     1       2.212   8.992  17.781  0.00  0.00    +0.000 A 
ATOM      6  C   UNL     1       1.926  10.354  17.860  0.00  0.00    +0.000 A 
ATOM      7  C   UNL     1       1.343  10.873  19.021  0.00  0.00    +0.000 A 
ATOM      8  C   UNL     1       1.107  12.249  19.195  0.00  0.00    +0.000 A 
ATOM      9  C   UNL     1       0.582  12.727  20.394  0.00  0.00    +0.000 A 
ATOM     10  C   UNL     1       0.258  11.832  21.409  0.00  0.00    +0.000 A 
ATOM     11  C   UNL     1       0.466  10.463  21.219  0.00  0.00    +0.000 A 
ATOM     12  C   UNL     1       1.023   9.966  20.050  0.00  0.00    +0.000 A 
ATOM     13  N   UNL     1       1.273   8.652  19.950  0.00  0.00    +0.000 NA
ATOM     14  H   UNL     1       2.784   6.554  17.958  0.00  0.00    +0.000 HD
ENDROOT
BRANCH   2  15
ATOM     15  C   UNL     1       2.609   4.504  19.580  0.00  0.00    +0.000 A 
ATOM     16  C   UNL     1       1.672   3.458  19.713  0.00  0.00    +0.000 A 
ATOM     17  C   UNL     1       2.049   2.126  19.582  0.00  0.00    +0.000 A 
ATOM     18  C   UNL     1       3.370   1.862  19.306  0.00  0.00    +0.000 A 
ATOM     19  N   UNL     1       4.305   2.822  19.160  0.00  0.00    +0.000 NA
ATOM     20  C   UNL     1       3.931   4.129  19.306  0.00  0.00    +0.000 A 
BRANCH  20  21
ATOM     21  S   UNL     1       5.323   5.234  19.216  0.00  0.00    +0.000 S 
BRANCH  21  22
ATOM     22  C   UNL     1       5.841   5.216  17.507  0.00  0.00    +0.000 A 
ATOM     23  C   UNL     1       6.993   4.587  17.025  0.00  0.00    +0.000 A 
ATOM     24  C   UNL     1       7.274   4.571  15.654  0.00  0.00    +0.000 A 
ATOM     25  C   UNL     1       6.410   5.188  14.751  0.00  0.00    +0.000 A 
ATOM     26  C   UNL     1       5.270   5.833  15.217  0.00  0.00    +0.000 A 
ATOM     27  C   UNL     1       4.989   5.847  16.585  0.00  0.00    +0.000 A 
ENDBRANCH  21  22
ENDBRANCH  20  21
ENDBRANCH   2  15
TORSDOF 3
ENDMDL
MODEL 9
REMARK VINA RESULT:      -8.4      3.378      7.896
REMARK  Name = 
REMARK  3 active torsions:
REMARK  status: ('A' for Active; 'I' for Inactive)
REMARK    1  A    between atoms: C_2  and  C_14
REMARK    2  A    between atoms: C_19  and  S_20
REMARK    3  A    between atoms: S_20  and  C_21
REMARK                            x       y       z     vdW  Elec       q    Type
REMARK                         _______ _______ _______ _____ _____    ______ ____
ROOT
ATOM      1  O   UNL     1       2.198   9.244  17.218  0.00  0.00    +0.000 OA
ATOM      2  C   UNL     1       1.785   9.612  18.314  0.00  0.00    +0.000 C 
ATOM      3  N   UNL     1       1.595   8.785  19.403  0.00  0.00    +0.000 N 
ATOM      4  C   UNL     1       1.932   7.421  19.449  0.00  0.00    +0.000 A 
ATOM      5  C   UNL     1       1.716   6.747  20.643  0.00  0.00    +0.000 A 
ATOM      6  C   UNL     1       2.121   5.417  20.749  0.00  0.00    +0.000 A 
ATOM      7  C   UNL     1       2.758   4.799  19.667  0.00  0.00    +0.000 A 
ATOM      8  C   UNL     1       3.263   3.489  19.741  0.00  0.00    +0.000 A 
ATOM      9  C   UNL     1       3.945   2.936  18.658  0.00  0.00    +0.000 A 
ATOM     10  C   UNL     1       4.094   3.675  17.489  0.00  0.00    +0.000 A 
ATOM     11  C   UNL     1       3.562   4.965  17.411  0.00  0.00    +0.000 A 
ATOM     12  C   UNL     1       2.913   5.551  18.487  0.00  0.00    +0.000 A 
ATOM     13  N   UNL     1       2.490   6.820  18.385  0.00  0.00    +0.000 NA
ATOM     14  H   UNL     1       1.246   9.184  20.262  0.00  0.00    +0.000 HD
ENDROOT
BRANCH   2  15
ATOM     15  C   UNL     1       1.456  11.069  18.454  0.00  0.00    +0.000 A 
ATOM     16  C   UNL     1       2.508  11.958  18.148  0.00  0.00    +0.000 A 
ATOM     17  C   UNL     1       2.349  13.335  18.258  0.00  0.00    +0.000 A 
ATOM     18  C   UNL     1       1.122  13.804  18.667  0.00  0.00    +0.000 A 
ATOM     19  N   UNL     1       0.082  13.001  18.964  0.00  0.00    +0.000 NA
ATOM     20  C   UNL     1       0.249  11.647  18.869  0.00  0.00    +0.000 A 
BRANCH  20  21
ATOM     21  S   UNL     1      -1.185  10.756  19.433  0.00  0.00    +0.000 S 
BRANCH  21  22
ATOM     22  C   UNL     1      -2.311  10.733  18.047  0.00  0.00    +0.000 A 
ATOM     23  C   UNL     1      -3.504  11.459  17.970  0.00  0.00    +0.000 A 
ATOM     24  C   UNL     1      -4.283  11.426  16.808  0.00  0.00    +0.000 A 
ATOM     25  C   UNL     1      -3.882  10.663  15.712  0.00  0.00    +0.000 A 
ATOM     26  C   UNL     1      -2.707   9.923  15.780  0.00  0.00    +0.000 A 
ATOM     27  C   UNL     1      -1.929   9.957  16.940  0.00  0.00    +0.000 A 
ENDBRANCH  21  22
ENDBRANCH  20  21
ENDBRANCH   2  15
TORSDOF 3
ENDMDL
