MODEL 1
REMARK VINA RESULT:      -8.9      0.000      0.000
REMARK  Name = 
REMARK  6 active torsions:
REMARK  status: ('A' for Active; 'I' for Inactive)
REMARK    1  A    between atoms: C_2  and  C_14
REMARK    2  A    between atoms: N_3  and  C_4
REMARK    3  A    between atoms: C_4  and  C_5
REMARK    4  A    between atoms: C_18  and  S_19
REMARK    5  A    between atoms: S_19  and  N_22
REMARK    6  A    between atoms: N_22  and  C_23
REMARK                            x       y       z     vdW  Elec       q    Type
REMARK                         _______ _______ _______ _____ _____    ______ ____
ROOT
ATOM      1  C   UNL     1       2.107   6.949  18.994  0.00  0.00    +0.000 A 
ATOM      2  C   UNL     1       1.869   6.823  20.369  0.00  0.00    +0.000 A 
ATOM      3  C   UNL     1       1.940   5.574  20.991  0.00  0.00    +0.000 A 
ATOM      4  C   UNL     1       2.242   4.433  20.246  0.00  0.00    +0.000 A 
ATOM      5  C   UNL     1       2.490   4.556  18.873  0.00  0.00    +0.000 A 
ATOM      6  C   UNL     1       2.435   5.813  18.247  0.00  0.00    +0.000 A 
ENDROOT
BRANCH   1   8
ATOM      7  O   UNL     1       2.526   8.543  17.308  0.00  0.00    +0.000 OA
ATOM      8  C   UNL     1       1.990   8.305  18.386  0.00  0.00    +0.000 C 
ATOM      9  N   UNL     1       1.313   9.260  19.109  0.00  0.00    +0.000 N 
ATOM     10  H   UNL     1       1.043   9.089  20.073  0.00  0.00    +0.000 HD
BRANCH   9  11
ATOM     11  C   UNL     1       1.221  10.629  18.631  0.00  0.00    +0.000 C 
BRANCH  11  12
ATOM     12  C   UNL     1      -0.115  11.196  18.956  0.00  0.00    +0.000 A 
ATOM     13  N   UNL     1      -0.385  12.079  19.902  0.00  0.00    +0.000 NA
ATOM     14  N   UNL     1      -1.732  12.347  19.876  0.00  0.00    +0.000 NA
ATOM     15  C   UNL     1      -2.268  11.630  18.914  0.00  0.00    +0.000 A 
ATOM     16  C   UNL     1      -3.603  11.507  18.436  0.00  0.00    +0.000 A 
ATOM     17  C   UNL     1      -3.869  10.683  17.406  0.00  0.00    +0.000 A 
ATOM     18  C   UNL     1      -2.815   9.908  16.766  0.00  0.00    +0.000 A 
ATOM     19  C   UNL     1      -1.550  10.019  17.218  0.00  0.00    +0.000 A 
ATOM     20  N   UNL     1      -1.284  10.877  18.288  0.00  0.00    +0.000 N 
ENDBRANCH  11  12
ENDBRANCH   9  11
ENDBRANCH   1   8
BRANCH   5  21
ATOM     21  S   UNL     1       2.724   3.125  17.830  0.00  0.00    +0.000 S 
ATOM     22  O   UNL     1       2.226   1.980  18.563  0.00  0.00    +0.000 OA
ATOM     23  O   UNL     1       2.176   3.464  16.542  0.00  0.00    +0.000 OA
BRANCH  21  24
ATOM     24  N   UNL     1       4.390   2.959  17.649  0.00  0.00    +0.000 N 
ATOM     25  H   UNL     1       4.748   2.066  17.310  0.00  0.00    +0.000 HD
BRANCH  24  26
ATOM     26  C   UNL     1       5.243   4.094  17.584  0.00  0.00    +0.000 A 
ATOM     27  C   UNL     1       5.354   4.849  16.412  0.00  0.00    +0.000 A 
ATOM     28  C   UNL     1       6.130   6.015  16.398  0.00  0.00    +0.000 A 
ATOM     29  C   UNL     1       6.789   6.428  17.551  0.00  0.00    +0.000 A 
ATOM     30 CL   UNL     1       7.728   7.867  17.539  0.00  0.00    +0.000 Cl
ATOM     31  C   UNL     1       6.674   5.680  18.726  0.00  0.00    +0.000 A 
ATOM     32  C   UNL     1       5.905   4.512  18.738  0.00  0.00    +0.000 A 
ENDBRANCH  24  26
ENDBRANCH  21  24
ENDBRANCH   5  21
TORSDOF 6
ENDMDL
MODEL 2
REMARK VINA RESULT:      -8.8      4.162      9.448
REMARK  Name = 
REMARK  6 active torsions:
REMARK  status: ('A' for Active; 'I' for Inactive)
REMARK    1  A    between atoms: C_2  and  C_14
REMARK    2  A    between atoms: N_3  and  C_4
REMARK    3  A    between atoms: C_4  and  C_5
REMARK    4  A    between atoms: C_18  and  S_19
REMARK    5  A    between atoms: S_19  and  N_22
REMARK    6  A    between atoms: N_22  and  C_23
REMARK                            x       y       z     vdW  Elec       q    Type
REMARK                         _______ _______ _______ _____ _____    ______ ____
ROOT
ATOM      1  C   UNL     1       2.047   7.657  19.074  0.00  0.00    +0.000 A 
ATOM      2  C   UNL     1       1.882   8.504  17.970  0.00  0.00    +0.000 A 
ATOM      3  C   UNL     1       1.307   9.768  18.125  0.00  0.00    +0.000 A 
ATOM      4  C   UNL     1       0.883  10.199  19.382  0.00  0.00    +0.000 A 
ATOM      5  C   UNL     1       1.055   9.359  20.489  0.00  0.00    +0.000 A 
ATOM      6  C   UNL     1       1.647   8.093  20.341  0.00  0.00    +0.000 A 
ENDROOT
BRANCH   1   8
ATOM      7  O   UNL     1       2.193   5.586  17.956  0.00  0.00    +0.000 OA
ATOM      8  C   UNL     1       2.644   6.311  18.838  0.00  0.00    +0.000 C 
ATOM      9  N   UNL     1       3.662   5.921  19.676  0.00  0.00    +0.000 N 
ATOM     10  H   UNL     1       3.887   6.459  20.508  0.00  0.00    +0.000 HD
BRANCH   9  11
ATOM     11  C   UNL     1       4.246   4.594  19.571  0.00  0.00    +0.000 C 
BRANCH  11  12
ATOM     12  C   UNL     1       5.552   4.665  18.862  0.00  0.00    +0.000 A 
ATOM     13  N   UNL     1       6.740   4.828  19.419  0.00  0.00    +0.000 NA
ATOM     14  N   UNL     1       7.688   4.836  18.424  0.00  0.00    +0.000 NA
ATOM     15  C   UNL     1       7.071   4.674  17.275  0.00  0.00    +0.000 A 
ATOM     16  C   UNL     1       7.540   4.602  15.934  0.00  0.00    +0.000 A 
ATOM     17  C   UNL     1       6.663   4.421  14.930  0.00  0.00    +0.000 A 
ATOM     18  C   UNL     1       5.235   4.296  15.187  0.00  0.00    +0.000 A 
ATOM     19  C   UNL     1       4.787   4.367  16.456  0.00  0.00    +0.000 A 
ATOM     20  N   UNL     1       5.705   4.556  17.491  0.00  0.00    +0.000 N 
ENDBRANCH  11  12
ENDBRANCH   9  11
ENDBRANCH   1   8
BRANCH   5  21
ATOM     21  S   UNL     1       0.393   9.775  22.096  0.00  0.00    +0.000 S 
ATOM     22  O   UNL     1      -0.864   9.068  22.233  0.00  0.00    +0.000 OA
ATOM     23  O   UNL     1       1.457   9.566  23.043  0.00  0.00    +0.000 OA
BRANCH  21  24
ATOM     24  N   UNL     1       0.072  11.428  22.043  0.00  0.00    +0.000 N 
ATOM     25  H   UNL     1       0.827  12.053  21.762  0.00  0.00    +0.000 HD
BRANCH  24  26
ATOM     26  C   UNL     1      -1.260  11.921  22.002  0.00  0.00    +0.000 A 
ATOM     27  C   UNL     1      -1.892  12.197  20.785  0.00  0.00    +0.000 A 
ATOM     28  C   UNL     1      -3.234  12.596  20.765  0.00  0.00    +0.000 A 
ATOM     29  C   UNL     1      -3.945  12.713  21.954  0.00  0.00    +0.000 A 
ATOM     30 CL   UNL     1      -5.597  13.187  21.929  0.00  0.00    +0.000 Cl
ATOM     31  C   UNL     1      -3.320  12.430  23.172  0.00  0.00    +0.000 A 
ATOM     32  C   UNL     1      -1.977  12.039  23.192  0.00  0.00    +0.000 A 
ENDBRANCH  24  26
ENDBRANCH  21  24
ENDBRANCH   5  21
TORSDOF 6
ENDMDL
MODEL 3
REMARK VINA RESULT:      -8.7      4.085      9.450
REMARK  Name = 
REMARK  6 active torsions:
REMARK  status: ('A' for Active; 'I' for Inactive)
REMARK    1  A    between atoms: C_2  and  C_14
REMARK    2  A    between atoms: N_3  and  C_4
REMARK    3  A    between atoms: C_4  and  C_5
REMARK    4  A    between atoms: C_18  and  S_19
REMARK    5  A    between atoms: S_19  and  N_22
REMARK    6  A    between atoms: N_22  and  C_23
REMARK                            x       y       z     vdW  Elec       q    Type
REMARK                         _______ _______ _______ _____ _____    ______ ____
ROOT
ATOM      1  C   UNL     1       2.218   7.366  18.952  0.00  0.00    +0.000 A 
ATOM      2  C   UNL     1       2.073   8.199  17.834  0.00  0.00    +0.000 A 
ATOM      3  C   UNL     1       1.510   9.471  17.963  0.00  0.00    +0.000 A 
ATOM      4  C   UNL     1       1.077   9.925  19.210  0.00  0.00    +0.000 A 
ATOM      5  C   UNL     1       1.229   9.100  20.331  0.00  0.00    +0.000 A 
ATOM      6  C   UNL     1       1.809   7.826  20.208  0.00  0.00    +0.000 A 
ENDROOT
BRANCH   1   8
ATOM      7  O   UNL     1       2.157   5.148  18.157  0.00  0.00    +0.000 OA
ATOM      8  C   UNL     1       2.803   6.012  18.742  0.00  0.00    +0.000 C 
ATOM      9  N   UNL     1       4.050   5.778  19.275  0.00  0.00    +0.000 N 
ATOM     10  H   UNL     1       4.478   6.445  19.909  0.00  0.00    +0.000 HD
BRANCH   9  11
ATOM     11  C   UNL     1       4.660   4.462  19.190  0.00  0.00    +0.000 C 
BRANCH  11  12
ATOM     12  C   UNL     1       5.862   4.511  18.313  0.00  0.00    +0.000 A 
ATOM     13  N   UNL     1       7.123   4.549  18.710  0.00  0.00    +0.000 NA
ATOM     14  N   UNL     1       7.928   4.584  17.598  0.00  0.00    +0.000 NA
ATOM     15  C   UNL     1       7.153   4.565  16.536  0.00  0.00    +0.000 A 
ATOM     16  C   UNL     1       7.432   4.581  15.142  0.00  0.00    +0.000 A 
ATOM     17  C   UNL     1       6.418   4.546  14.258  0.00  0.00    +0.000 A 
ATOM     18  C   UNL     1       5.031   4.490  14.701  0.00  0.00    +0.000 A 
ATOM     19  C   UNL     1       4.762   4.477  16.021  0.00  0.00    +0.000 A 
ATOM     20  N   UNL     1       5.822   4.515  16.931  0.00  0.00    +0.000 N 
ENDBRANCH  11  12
ENDBRANCH   9  11
ENDBRANCH   1   8
BRANCH   5  21
ATOM     21  S   UNL     1       0.554   9.547  21.924  0.00  0.00    +0.000 S 
ATOM     22  O   UNL     1      -0.680   8.807  22.085  0.00  0.00    +0.000 OA
ATOM     23  O   UNL     1       1.625   9.402  22.877  0.00  0.00    +0.000 OA
BRANCH  21  24
ATOM     24  N   UNL     1       0.182  11.187  21.819  0.00  0.00    +0.000 N 
ATOM     25  H   UNL     1       0.886  11.813  21.429  0.00  0.00    +0.000 HD
BRANCH  24  26
ATOM     26  C   UNL     1      -1.160  11.646  21.890  0.00  0.00    +0.000 A 
ATOM     27  C   UNL     1      -1.820  11.764  23.117  0.00  0.00    +0.000 A 
ATOM     28  C   UNL     1      -3.111  12.304  23.171  0.00  0.00    +0.000 A 
ATOM     29  C   UNL     1      -3.740  12.729  22.006  0.00  0.00    +0.000 A 
ATOM     30 CL   UNL     1      -5.317  13.406  22.074  0.00  0.00    +0.000 Cl
ATOM     31  C   UNL     1      -3.080  12.620  20.778  0.00  0.00    +0.000 A 
ATOM     32  C   UNL     1      -1.794  12.074  20.723  0.00  0.00    +0.000 A 
ENDBRANCH  24  26
ENDBRANCH  21  24
ENDBRANCH   5  21
TORSDOF 6
ENDMDL
MODEL 4
REMARK VINA RESULT:      -8.6      1.965      2.460
REMARK  Name = 
REMARK  6 active torsions:
REMARK  status: ('A' for Active; 'I' for Inactive)
REMARK    1  A    between atoms: C_2  and  C_14
REMARK    2  A    between atoms: N_3  and  C_4
REMARK    3  A    between atoms: C_4  and  C_5
REMARK    4  A    between atoms: C_18  and  S_19
REMARK    5  A    between atoms: S_19  and  N_22
REMARK    6  A    between atoms: N_22  and  C_23
REMARK                            x       y       z     vdW  Elec       q    Type
REMARK                         _______ _______ _______ _____ _____    ______ ____
ROOT
ATOM      1  C   UNL     1       2.373   6.640  19.492  0.00  0.00    +0.000 A 
ATOM      2  C   UNL     1       1.890   6.027  20.656  0.00  0.00    +0.000 A 
ATOM      3  C   UNL     1       2.198   4.693  20.937  0.00  0.00    +0.000 A 
ATOM      4  C   UNL     1       2.986   3.952  20.055  0.00  0.00    +0.000 A 
ATOM      5  C   UNL     1       3.478   4.565  18.895  0.00  0.00    +0.000 A 
ATOM      6  C   UNL     1       3.184   5.910  18.617  0.00  0.00    +0.000 A 
ENDROOT
BRANCH   1   8
ATOM      7  O   UNL     1       2.392   8.633  18.233  0.00  0.00    +0.000 OA
ATOM      8  C   UNL     1       1.987   8.057  19.238  0.00  0.00    +0.000 C 
ATOM      9  N   UNL     1       1.218   8.679  20.195  0.00  0.00    +0.000 N 
ATOM     10  H   UNL     1       1.056   8.242  21.097  0.00  0.00    +0.000 HD
BRANCH   9  11
ATOM     11  C   UNL     1       0.865  10.083  20.069  0.00  0.00    +0.000 C 
BRANCH  11  12
ATOM     12  C   UNL     1       0.118  10.532  21.274  0.00  0.00    +0.000 A 
ATOM     13  N   UNL     1       0.400  10.233  22.531  0.00  0.00    +0.000 NA
ATOM     14  N   UNL     1      -0.524  10.845  23.342  0.00  0.00    +0.000 NA
ATOM     15  C   UNL     1      -1.356  11.513  22.575  0.00  0.00    +0.000 A 
ATOM     16  C   UNL     1      -2.490  12.323  22.862  0.00  0.00    +0.000 A 
ATOM     17  C   UNL     1      -3.167  12.905  21.856  0.00  0.00    +0.000 A 
ATOM     18  C   UNL     1      -2.762  12.723  20.468  0.00  0.00    +0.000 A 
ATOM     19  C   UNL     1      -1.690  11.955  20.191  0.00  0.00    +0.000 A 
ATOM     20  N   UNL     1      -0.995  11.354  21.243  0.00  0.00    +0.000 N 
ENDBRANCH  11  12
ENDBRANCH   9  11
ENDBRANCH   1   8
BRANCH   5  21
ATOM     21  S   UNL     1       4.356   3.638  17.645  0.00  0.00    +0.000 S 
ATOM     22  O   UNL     1       3.980   2.249  17.804  0.00  0.00    +0.000 OA
ATOM     23  O   UNL     1       4.129   4.319  16.396  0.00  0.00    +0.000 OA
BRANCH  21  24
ATOM     24  N   UNL     1       5.990   3.794  18.023  0.00  0.00    +0.000 N 
ATOM     25  H   UNL     1       6.566   2.953  18.014  0.00  0.00    +0.000 HD
BRANCH  24  26
ATOM     26  C   UNL     1       6.642   5.056  17.974  0.00  0.00    +0.000 A 
ATOM     27  C   UNL     1       6.355   5.980  16.964  0.00  0.00    +0.000 A 
ATOM     28  C   UNL     1       6.943   7.251  16.988  0.00  0.00    +0.000 A 
ATOM     29  C   UNL     1       7.809   7.601  18.017  0.00  0.00    +0.000 A 
ATOM     30 CL   UNL     1       8.517   9.166  18.055  0.00  0.00    +0.000 Cl
ATOM     31  C   UNL     1       8.092   6.683  19.033  0.00  0.00    +0.000 A 
ATOM     32  C   UNL     1       7.511   5.411  19.006  0.00  0.00    +0.000 A 
ENDBRANCH  24  26
ENDBRANCH  21  24
ENDBRANCH   5  21
TORSDOF 6
ENDMDL
MODEL 5
REMARK VINA RESULT:      -8.5      1.026      1.758
REMARK  Name = 
REMARK  6 active torsions:
REMARK  status: ('A' for Active; 'I' for Inactive)
REMARK    1  A    between atoms: C_2  and  C_14
REMARK    2  A    between atoms: N_3  and  C_4
REMARK    3  A    between atoms: C_4  and  C_5
REMARK    4  A    between atoms: C_18  and  S_19
REMARK    5  A    between atoms: S_19  and  N_22
REMARK    6  A    between atoms: N_22  and  C_23
REMARK                            x       y       z     vdW  Elec       q    Type
REMARK                         _______ _______ _______ _____ _____    ______ ____
ROOT
ATOM      1  C   UNL     1       2.190   6.807  19.035  0.00  0.00    +0.000 A 
ATOM      2  C   UNL     1       1.934   6.612  20.399  0.00  0.00    +0.000 A 
ATOM      3  C   UNL     1       2.041   5.341  20.968  0.00  0.00    +0.000 A 
ATOM      4  C   UNL     1       2.398   4.245  20.180  0.00  0.00    +0.000 A 
ATOM      5  C   UNL     1       2.663   4.438  18.818  0.00  0.00    +0.000 A 
ATOM      6  C   UNL     1       2.572   5.718  18.246  0.00  0.00    +0.000 A 
ENDROOT
BRANCH   1   8
ATOM      7  O   UNL     1       2.527   8.470  17.398  0.00  0.00    +0.000 OA
ATOM      8  C   UNL     1       2.034   8.183  18.485  0.00  0.00    +0.000 C 
ATOM      9  N   UNL     1       1.371   9.100  19.268  0.00  0.00    +0.000 N 
ATOM     10  H   UNL     1       1.139   8.889  20.234  0.00  0.00    +0.000 HD
BRANCH   9  11
ATOM     11  C   UNL     1       1.244  10.485  18.847  0.00  0.00    +0.000 C 
BRANCH  11  12
ATOM     12  C   UNL     1       0.612  11.292  19.925  0.00  0.00    +0.000 A 
ATOM     13  N   UNL     1       1.201  11.732  21.024  0.00  0.00    +0.000 NA
ATOM     14  N   UNL     1       0.279  12.438  21.758  0.00  0.00    +0.000 NA
ATOM     15  C   UNL     1      -0.858  12.425  21.099  0.00  0.00    +0.000 A 
ATOM     16  C   UNL     1      -2.136  12.988  21.375  0.00  0.00    +0.000 A 
ATOM     17  C   UNL     1      -3.142  12.818  20.499  0.00  0.00    +0.000 A 
ATOM     18  C   UNL     1      -2.952  12.066  19.265  0.00  0.00    +0.000 A 
ATOM     19  C   UNL     1      -1.745  11.530  19.002  0.00  0.00    +0.000 A 
ATOM     20  N   UNL     1      -0.706  11.711  19.919  0.00  0.00    +0.000 N 
ENDBRANCH  11  12
ENDBRANCH   9  11
ENDBRANCH   1   8
BRANCH   5  21
ATOM     21  S   UNL     1       2.967   3.063  17.718  0.00  0.00    +0.000 S 
ATOM     22  O   UNL     1       2.709   1.853  18.470  0.00  0.00    +0.000 OA
ATOM     23  O   UNL     1       2.240   3.340  16.506  0.00  0.00    +0.000 OA
BRANCH  21  24
ATOM     24  N   UNL     1       4.611   3.124  17.354  0.00  0.00    +0.000 N 
ATOM     25  H   UNL     1       5.007   2.364  16.800  0.00  0.00    +0.000 HD
BRANCH  24  26
ATOM     26  C   UNL     1       5.346   4.336  17.456  0.00  0.00    +0.000 A 
ATOM     27  C   UNL     1       6.134   4.612  18.578  0.00  0.00    +0.000 A 
ATOM     28  C   UNL     1       6.920   5.770  18.616  0.00  0.00    +0.000 A 
ATOM     29  C   UNL     1       6.924   6.647  17.537  0.00  0.00    +0.000 A 
ATOM     30 CL   UNL     1       7.900   8.060  17.577  0.00  0.00    +0.000 Cl
ATOM     31  C   UNL     1       6.144   6.370  16.410  0.00  0.00    +0.000 A 
ATOM     32  C   UNL     1       5.353   5.217  16.375  0.00  0.00    +0.000 A 
ENDBRANCH  24  26
ENDBRANCH  21  24
ENDBRANCH   5  21
TORSDOF 6
ENDMDL
MODEL 6
REMARK VINA RESULT:      -8.4      1.481      2.102
REMARK  Name = 
REMARK  6 active torsions:
REMARK  status: ('A' for Active; 'I' for Inactive)
REMARK    1  A    between atoms: C_2  and  C_14
REMARK    2  A    between atoms: N_3  and  C_4
REMARK    3  A    between atoms: C_4  and  C_5
REMARK    4  A    between atoms: C_18  and  S_19
REMARK    5  A    between atoms: S_19  and  N_22
REMARK    6  A    between atoms: N_22  and  C_23
REMARK                            x       y       z     vdW  Elec       q    Type
REMARK                         _______ _______ _______ _____ _____    ______ ____
ROOT
ATOM      1  C   UNL     1       2.113   6.914  18.974  0.00  0.00    +0.000 A 
ATOM      2  C   UNL     1       1.844   6.782  20.343  0.00  0.00    +0.000 A 
ATOM      3  C   UNL     1       1.889   5.529  20.959  0.00  0.00    +0.000 A 
ATOM      4  C   UNL     1       2.197   4.389  20.214  0.00  0.00    +0.000 A 
ATOM      5  C   UNL     1       2.476   4.518  18.847  0.00  0.00    +0.000 A 
ATOM      6  C   UNL     1       2.447   5.779  18.228  0.00  0.00    +0.000 A 
ENDROOT
BRANCH   1   8
ATOM      7  O   UNL     1       2.545   8.501  17.285  0.00  0.00    +0.000 OA
ATOM      8  C   UNL     1       2.023   8.275  18.372  0.00  0.00    +0.000 C 
ATOM      9  N   UNL     1       1.386   9.246  19.110  0.00  0.00    +0.000 N 
ATOM     10  H   UNL     1       1.129   9.079  20.079  0.00  0.00    +0.000 HD
BRANCH   9  11
ATOM     11  C   UNL     1       1.324  10.618  18.638  0.00  0.00    +0.000 C 
BRANCH  11  12
ATOM     12  C   UNL     1       0.188  11.330  19.283  0.00  0.00    +0.000 A 
ATOM     13  N   UNL     1      -0.605  12.222  18.714  0.00  0.00    +0.000 NA
ATOM     14  N   UNL     1      -1.528  12.639  19.643  0.00  0.00    +0.000 NA
ATOM     15  C   UNL     1      -1.291  11.996  20.765  0.00  0.00    +0.000 A 
ATOM     16  C   UNL     1      -1.921  12.025  22.040  0.00  0.00    +0.000 A 
ATOM     17  C   UNL     1      -1.461  11.236  23.028  0.00  0.00    +0.000 A 
ATOM     18  C   UNL     1      -0.325  10.348  22.821  0.00  0.00    +0.000 A 
ATOM     19  C   UNL     1       0.276  10.320  21.615  0.00  0.00    +0.000 A 
ATOM     20  N   UNL     1      -0.208  11.143  20.595  0.00  0.00    +0.000 N 
ENDBRANCH  11  12
ENDBRANCH   9  11
ENDBRANCH   1   8
BRANCH   5  21
ATOM     21  S   UNL     1       2.719   3.091  17.800  0.00  0.00    +0.000 S 
ATOM     22  O   UNL     1       2.220   1.942  18.527  0.00  0.00    +0.000 OA
ATOM     23  O   UNL     1       2.177   3.433  16.510  0.00  0.00    +0.000 OA
BRANCH  21  24
ATOM     24  N   UNL     1       4.387   2.930  17.628  0.00  0.00    +0.000 N 
ATOM     25  H   UNL     1       4.749   2.040  17.286  0.00  0.00    +0.000 HD
BRANCH  24  26
ATOM     26  C   UNL     1       5.237   4.067  17.574  0.00  0.00    +0.000 A 
ATOM     27  C   UNL     1       5.346   4.834  16.410  0.00  0.00    +0.000 A 
ATOM     28  C   UNL     1       6.120   6.002  16.407  0.00  0.00    +0.000 A 
ATOM     29  C   UNL     1       6.779   6.404  17.564  0.00  0.00    +0.000 A 
ATOM     30 CL   UNL     1       7.715   7.845  17.566  0.00  0.00    +0.000 Cl
ATOM     31  C   UNL     1       6.666   5.645  18.731  0.00  0.00    +0.000 A 
ATOM     32  C   UNL     1       5.899   4.475  18.732  0.00  0.00    +0.000 A 
ENDBRANCH  24  26
ENDBRANCH  21  24
ENDBRANCH   5  21
TORSDOF 6
ENDMDL
MODEL 7
REMARK VINA RESULT:      -8.4      4.466      9.541
REMARK  Name = 
REMARK  6 active torsions:
REMARK  status: ('A' for Active; 'I' for Inactive)
REMARK    1  A    between atoms: C_2  and  C_14
REMARK    2  A    between atoms: N_3  and  C_4
REMARK    3  A    between atoms: C_4  and  C_5
REMARK    4  A    between atoms: C_18  and  S_19
REMARK    5  A    between atoms: S_19  and  N_22
REMARK    6  A    between atoms: N_22  and  C_23
REMARK                            x       y       z     vdW  Elec       q    Type
REMARK                         _______ _______ _______ _____ _____    ______ ____
ROOT
ATOM      1  C   UNL     1       0.943   9.896  18.278  0.00  0.00    +0.000 A 
ATOM      2  C   UNL     1       1.273  11.110  18.897  0.00  0.00    +0.000 A 
ATOM      3  C   UNL     1       0.321  12.124  19.026  0.00  0.00    +0.000 A 
ATOM      4  C   UNL     1      -0.972  11.943  18.531  0.00  0.00    +0.000 A 
ATOM      5  C   UNL     1      -1.308  10.728  17.920  0.00  0.00    +0.000 A 
ATOM      6  C   UNL     1      -0.357   9.700  17.802  0.00  0.00    +0.000 A 
ENDROOT
BRANCH   1   8
ATOM      7  O   UNL     1       2.695   8.813  17.131  0.00  0.00    +0.000 OA
ATOM      8  C   UNL     1       2.011   8.865  18.149  0.00  0.00    +0.000 C 
ATOM      9  N   UNL     1       2.146   7.968  19.184  0.00  0.00    +0.000 N 
ATOM     10  H   UNL     1       1.451   7.919  19.923  0.00  0.00    +0.000 HD
BRANCH   9  11
ATOM     11  C   UNL     1       3.105   6.880  19.106  0.00  0.00    +0.000 C 
BRANCH  11  12
ATOM     12  C   UNL     1       2.409   5.607  18.779  0.00  0.00    +0.000 A 
ATOM     13  N   UNL     1       2.017   5.211  17.579  0.00  0.00    +0.000 NA
ATOM     14  N   UNL     1       1.418   3.981  17.701  0.00  0.00    +0.000 NA
ATOM     15  C   UNL     1       1.454   3.637  18.970  0.00  0.00    +0.000 A 
ATOM     16  C   UNL     1       0.993   2.487  19.667  0.00  0.00    +0.000 A 
ATOM     17  C   UNL     1       1.174   2.396  20.997  0.00  0.00    +0.000 A 
ATOM     18  C   UNL     1       1.836   3.458  21.744  0.00  0.00    +0.000 A 
ATOM     19  C   UNL     1       2.272   4.550  21.087  0.00  0.00    +0.000 A 
ATOM     20  N   UNL     1       2.078   4.635  19.706  0.00  0.00    +0.000 N 
ENDBRANCH  11  12
ENDBRANCH   9  11
ENDBRANCH   1   8
BRANCH   5  21
ATOM     21  S   UNL     1      -2.888  10.484  17.123  0.00  0.00    +0.000 S 
ATOM     22  O   UNL     1      -2.640  10.422  15.698  0.00  0.00    +0.000 OA
ATOM     23  O   UNL     1      -3.524   9.386  17.804  0.00  0.00    +0.000 OA
BRANCH  21  24
ATOM     24  N   UNL     1      -3.783  11.875  17.448  0.00  0.00    +0.000 N 
ATOM     25  H   UNL     1      -3.775  12.621  16.753  0.00  0.00    +0.000 HD
BRANCH  24  26
ATOM     26  C   UNL     1      -4.809  11.880  18.430  0.00  0.00    +0.000 A 
ATOM     27  C   UNL     1      -6.054  11.294  18.179  0.00  0.00    +0.000 A 
ATOM     28  C   UNL     1      -7.018  11.231  19.193  0.00  0.00    +0.000 A 
ATOM     29  C   UNL     1      -6.739  11.746  20.454  0.00  0.00    +0.000 A 
ATOM     30 CL   UNL     1      -7.916  11.655  21.702  0.00  0.00    +0.000 Cl
ATOM     31  C   UNL     1      -5.494  12.325  20.711  0.00  0.00    +0.000 A 
ATOM     32  C   UNL     1      -4.533  12.395  19.697  0.00  0.00    +0.000 A 
ENDBRANCH  24  26
ENDBRANCH  21  24
ENDBRANCH   5  21
TORSDOF 6
ENDMDL
MODEL 8
REMARK VINA RESULT:      -8.4      4.131      9.300
REMARK  Name = 
REMARK  6 active torsions:
REMARK  status: ('A' for Active; 'I' for Inactive)
REMARK    1  A    between atoms: C_2  and  C_14
REMARK    2  A    between atoms: N_3  and  C_4
REMARK    3  A    between atoms: C_4  and  C_5
REMARK    4  A    between atoms: C_18  and  S_19
REMARK    5  A    between atoms: S_19  and  N_22
REMARK    6  A    between atoms: N_22  and  C_23
REMARK                            x       y       z     vdW  Elec       q    Type
REMARK                         _______ _______ _______ _____ _____    ______ ____
ROOT
ATOM      1  C   UNL     1       2.084   7.670  19.091  0.00  0.00    +0.000 A 
ATOM      2  C   UNL     1       2.173   8.596  18.042  0.00  0.00    +0.000 A 
ATOM      3  C   UNL     1       1.617   9.871  18.172  0.00  0.00    +0.000 A 
ATOM      4  C   UNL     1       0.957  10.236  19.347  0.00  0.00    +0.000 A 
ATOM      5  C   UNL     1       0.875   9.316  20.400  0.00  0.00    +0.000 A 
ATOM      6  C   UNL     1       1.446   8.038  20.280  0.00  0.00    +0.000 A 
ENDROOT
BRANCH   1   8
ATOM      7  O   UNL     1       2.182   5.554  18.057  0.00  0.00    +0.000 OA
ATOM      8  C   UNL     1       2.676   6.318  18.880  0.00  0.00    +0.000 C 
ATOM      9  N   UNL     1       3.742   5.970  19.677  0.00  0.00    +0.000 N 
ATOM     10  H   UNL     1       4.009   6.545  20.470  0.00  0.00    +0.000 HD
BRANCH   9  11
ATOM     11  C   UNL     1       4.328   4.642  19.596  0.00  0.00    +0.000 C 
BRANCH  11  12
ATOM     12  C   UNL     1       5.616   4.696  18.854  0.00  0.00    +0.000 A 
ATOM     13  N   UNL     1       6.820   4.843  19.379  0.00  0.00    +0.000 NA
ATOM     14  N   UNL     1       7.742   4.839  18.361  0.00  0.00    +0.000 NA
ATOM     15  C   UNL     1       7.094   4.686  17.228  0.00  0.00    +0.000 A 
ATOM     16  C   UNL     1       7.527   4.608  15.875  0.00  0.00    +0.000 A 
ATOM     17  C   UNL     1       6.622   4.438  14.895  0.00  0.00    +0.000 A 
ATOM     18  C   UNL     1       5.199   4.333  15.188  0.00  0.00    +0.000 A 
ATOM     19  C   UNL     1       4.785   4.409  16.468  0.00  0.00    +0.000 A 
ATOM     20  N   UNL     1       5.732   4.586  17.480  0.00  0.00    +0.000 N 
ENDBRANCH  11  12
ENDBRANCH   9  11
ENDBRANCH   1   8
BRANCH   5  21
ATOM     21  S   UNL     1      -0.089   9.653  21.866  0.00  0.00    +0.000 S 
ATOM     22  O   UNL     1      -0.869   8.465  22.144  0.00  0.00    +0.000 OA
ATOM     23  O   UNL     1       0.829  10.172  22.848  0.00  0.00    +0.000 OA
BRANCH  21  24
ATOM     24  N   UNL     1      -1.143  10.898  21.444  0.00  0.00    +0.000 N 
ATOM     25  H   UNL     1      -2.040  10.645  21.029  0.00  0.00    +0.000 HD
BRANCH  24  26
ATOM     26  C   UNL     1      -0.995  12.205  21.981  0.00  0.00    +0.000 A 
ATOM     27  C   UNL     1      -1.723  12.612  23.104  0.00  0.00    +0.000 A 
ATOM     28  C   UNL     1      -1.494  13.873  23.669  0.00  0.00    +0.000 A 
ATOM     29  C   UNL     1      -0.540  14.722  23.119  0.00  0.00    +0.000 A 
ATOM     30 CL   UNL     1      -0.248  16.263  23.822  0.00  0.00    +0.000 Cl
ATOM     31  C   UNL     1       0.195  14.315  22.002  0.00  0.00    +0.000 A 
ATOM     32  C   UNL     1      -0.038  13.059  21.433  0.00  0.00    +0.000 A 
ENDBRANCH  24  26
ENDBRANCH  21  24
ENDBRANCH   5  21
TORSDOF 6
ENDMDL
MODEL 9
REMARK VINA RESULT:      -8.4      1.944      3.019
REMARK  Name = 
REMARK  6 active torsions:
REMARK  status: ('A' for Active; 'I' for Inactive)
REMARK    1  A    between atoms: C_2  and  C_14
REMARK    2  A    between atoms: N_3  and  C_4
REMARK    3  A    between atoms: C_4  and  C_5
REMARK    4  A    between atoms: C_18  and  S_19
REMARK    5  A    between atoms: S_19  and  N_22
REMARK    6  A    between atoms: N_22  and  C_23
REMARK                            x       y       z     vdW  Elec       q    Type
REMARK                         _______ _______ _______ _____ _____    ______ ____
ROOT
ATOM      1  C   UNL     1       2.186   6.926  18.898  0.00  0.00    +0.000 A 
ATOM      2  C   UNL     1       1.970   6.848  20.280  0.00  0.00    +0.000 A 
ATOM      3  C   UNL     1       2.053   5.621  20.944  0.00  0.00    +0.000 A 
ATOM      4  C   UNL     1       2.347   4.456  20.235  0.00  0.00    +0.000 A 
ATOM      5  C   UNL     1       2.572   4.532  18.855  0.00  0.00    +0.000 A 
ATOM      6  C   UNL     1       2.505   5.766  18.186  0.00  0.00    +0.000 A 
ENDROOT
BRANCH   1   8
ATOM      7  O   UNL     1       2.688   8.506  17.222  0.00  0.00    +0.000 OA
ATOM      8  C   UNL     1       2.057   8.260  18.246  0.00  0.00    +0.000 C 
ATOM      9  N   UNL     1       1.256   9.189  18.869  0.00  0.00    +0.000 N 
ATOM     10  H   UNL     1       0.898   9.022  19.805  0.00  0.00    +0.000 HD
BRANCH   9  11
ATOM     11  C   UNL     1       1.138  10.540  18.348  0.00  0.00    +0.000 C 
BRANCH  11  12
ATOM     12  C   UNL     1       1.329  11.529  19.442  0.00  0.00    +0.000 A 
ATOM     13  N   UNL     1       0.904  11.414  20.689  0.00  0.00    +0.000 NA
ATOM     14  N   UNL     1       1.285  12.535  21.385  0.00  0.00    +0.000 NA
ATOM     15  C   UNL     1       1.942  13.319  20.559  0.00  0.00    +0.000 A 
ATOM     16  C   UNL     1       2.561  14.589  20.727  0.00  0.00    +0.000 A 
ATOM     17  C   UNL     1       3.183  15.170  19.685  0.00  0.00    +0.000 A 
ATOM     18  C   UNL     1       3.236  14.525  18.380  0.00  0.00    +0.000 A 
ATOM     19  C   UNL     1       2.649  13.323  18.217  0.00  0.00    +0.000 A 
ATOM     20  N   UNL     1       2.005  12.728  19.304  0.00  0.00    +0.000 N 
ENDBRANCH  11  12
ENDBRANCH   9  11
ENDBRANCH   1   8
BRANCH   5  21
ATOM     21  S   UNL     1       2.793   3.065  17.858  0.00  0.00    +0.000 S 
ATOM     22  O   UNL     1       2.357   1.939  18.658  0.00  0.00    +0.000 OA
ATOM     23  O   UNL     1       2.179   3.340  16.585  0.00  0.00    +0.000 OA
BRANCH  21  24
ATOM     24  N   UNL     1       4.453   2.930  17.606  0.00  0.00    +0.000 N 
ATOM     25  H   UNL     1       4.809   2.054  17.224  0.00  0.00    +0.000 HD
BRANCH  24  26
ATOM     26  C   UNL     1       5.288   4.078  17.545  0.00  0.00    +0.000 A 
ATOM     27  C   UNL     1       5.377   4.846  16.379  0.00  0.00    +0.000 A 
ATOM     28  C   UNL     1       6.135   6.024  16.371  0.00  0.00    +0.000 A 
ATOM     29  C   UNL     1       6.796   6.437  17.522  0.00  0.00    +0.000 A 
ATOM     30 CL   UNL     1       7.712   7.890  17.516  0.00  0.00    +0.000 Cl
ATOM     31  C   UNL     1       6.702   5.677  18.691  0.00  0.00    +0.000 A 
ATOM     32  C   UNL     1       5.951   4.497  18.698  0.00  0.00    +0.000 A 
ENDBRANCH  24  26
ENDBRANCH  21  24
ENDBRANCH   5  21
TORSDOF 6
ENDMDL
