MODEL 1
REMARK VINA RESULT:      -8.0      0.000      0.000
REMARK  Name = 
REMARK  6 active torsions:
REMARK  status: ('A' for Active; 'I' for Inactive)
REMARK    1  A    between atoms: C_1  and  C_2
REMARK    2  A    between atoms: C_4  and  C_5
REMARK    3  A    between atoms: N_7  and  C_8
REMARK    4  A    between atoms: C_11  and  O_12
REMARK    5  A    between atoms: O_12  and  C_13
REMARK    6  A    between atoms: N_25  and  C_26
REMARK                            x       y       z     vdW  Elec       q    Type
REMARK                         _______ _______ _______ _____ _____    ______ ____
ROOT
ATOM      1  C   UNL     1       0.173  11.360  20.828  0.00  0.00    +0.000 C 
ATOM      2  O   UNL     1       1.302  11.791  21.064  0.00  0.00    +0.000 OA
ATOM      3  N   UNL     1      -0.118  10.175  20.188  0.00  0.00    +0.000 N 
ATOM      4  H   UNL     1      -1.079   9.995  19.896  0.00  0.00    +0.000 HD
ENDROOT
BRANCH   1   8
ATOM      5  C   UNL     1      -1.509  14.499  24.282  0.00  0.00    +0.000 C 
ATOM      6  C   UNL     1      -1.745  13.729  23.016  0.00  0.00    +0.000 A 
ATOM      7  C   UNL     1      -0.749  12.892  22.512  0.00  0.00    +0.000 A 
ATOM      8  C   UNL     1      -0.944  12.207  21.304  0.00  0.00    +0.000 A 
ATOM      9  C   UNL     1      -2.145  12.422  20.664  0.00  0.00    +0.000 A 
ATOM     10  C   UNL     1      -2.699  12.014  19.380  0.00  0.00    +0.000 A 
ATOM     11  O   UNL     1      -2.229  11.173  18.636  0.00  0.00    +0.000 OA
ATOM     12  N   UNL     1      -3.881  12.707  19.210  0.00  0.00    +0.000 N 
ATOM     13  N   UNL     1      -4.298  13.224  20.452  0.00  0.00    +0.000 N 
ATOM     14  C   UNL     1      -5.127  14.409  20.494  0.00  0.00    +0.000 C 
ATOM     15  C   UNL     1      -3.120  13.235  21.239  0.00  0.00    +0.000 A 
ATOM     16  N   UNL     1      -2.939  13.901  22.393  0.00  0.00    +0.000 NA
ATOM     17  H   UNL     1      -4.580  12.353  18.568  0.00  0.00    +0.000 HD
ENDBRANCH   1   8
BRANCH   3  18
ATOM     18  C   UNL     1       0.831   9.264  19.676  0.00  0.00    +0.000 A 
ATOM     19  C   UNL     1       1.287   9.317  18.360  0.00  0.00    +0.000 A 
ATOM     20  C   UNL     1       2.135   8.332  17.862  0.00  0.00    +0.000 A 
ATOM     21  C   UNL     1       2.627   7.335  18.702  0.00  0.00    +0.000 A 
ATOM     22  C   UNL     1       2.194   7.280  20.027  0.00  0.00    +0.000 A 
ATOM     23  C   UNL     1       1.302   8.246  20.515  0.00  0.00    +0.000 A 
BRANCH  21  24
ATOM     24  O   UNL     1       3.517   6.363  18.292  0.00  0.00    +0.000 OA
BRANCH  24  25
ATOM     25  C   UNL     1       3.144   5.042  18.418  0.00  0.00    +0.000 A 
ATOM     26  C   UNL     1       1.978   4.518  17.843  0.00  0.00    +0.000 A 
ATOM     27  C   UNL     1       1.606   3.200  18.090  0.00  0.00    +0.000 A 
ATOM     28  C   UNL     1       2.435   2.376  18.849  0.00  0.00    +0.000 A 
ATOM     29  C   UNL     1       3.640   2.871  19.356  0.00  0.00    +0.000 A 
ATOM     30  C   UNL     1       3.993   4.205  19.140  0.00  0.00    +0.000 A 
ENDBRANCH  24  25
ENDBRANCH  21  24
ENDBRANCH   3  18
TORSDOF 4
ENDMDL
MODEL 2
REMARK VINA RESULT:      -8.0      1.676      2.277
REMARK  Name = 
REMARK  6 active torsions:
REMARK  status: ('A' for Active; 'I' for Inactive)
REMARK    1  A    between atoms: C_1  and  C_2
REMARK    2  A    between atoms: C_4  and  C_5
REMARK    3  A    between atoms: N_7  and  C_8
REMARK    4  A    between atoms: C_11  and  O_12
REMARK    5  A    between atoms: O_12  and  C_13
REMARK    6  A    between atoms: N_25  and  C_26
REMARK                            x       y       z     vdW  Elec       q    Type
REMARK                         _______ _______ _______ _____ _____    ______ ____
ROOT
ATOM      1  C   UNL     1       0.386  11.777  20.851  0.00  0.00    +0.000 C 
ATOM      2  O   UNL     1       1.564  12.042  21.088  0.00  0.00    +0.000 OA
ATOM      3  N   UNL     1      -0.074  10.626  20.249  0.00  0.00    +0.000 N 
ATOM      4  H   UNL     1      -1.048  10.582  19.948  0.00  0.00    +0.000 HD
ENDROOT
BRANCH   1   8
ATOM      5  C   UNL     1      -1.482  16.319  20.152  0.00  0.00    +0.000 C 
ATOM      6  C   UNL     1      -1.480  15.032  20.922  0.00  0.00    +0.000 A 
ATOM      7  C   UNL     1      -0.572  14.025  20.594  0.00  0.00    +0.000 A 
ATOM      8  C   UNL     1      -0.596  12.800  21.278  0.00  0.00    +0.000 A 
ATOM      9  C   UNL     1      -1.556  12.662  22.255  0.00  0.00    +0.000 A 
ATOM     10  C   UNL     1      -1.992  11.560  23.104  0.00  0.00    +0.000 A 
ATOM     11  O   UNL     1      -1.409  10.502  23.252  0.00  0.00    +0.000 OA
ATOM     12  N   UNL     1      -3.138  11.977  23.751  0.00  0.00    +0.000 N 
ATOM     13  N   UNL     1      -3.237  13.378  23.666  0.00  0.00    +0.000 N 
ATOM     14  C   UNL     1      -4.536  14.012  23.730  0.00  0.00    +0.000 C 
ATOM     15  C   UNL     1      -2.408  13.721  22.569  0.00  0.00    +0.000 A 
ATOM     16  N   UNL     1      -2.397  14.896  21.914  0.00  0.00    +0.000 NA
ATOM     17  H   UNL     1      -3.422  11.518  24.609  0.00  0.00    +0.000 HD
ENDBRANCH   1   8
BRANCH   3  18
ATOM     18  C   UNL     1       0.733   9.564  19.784  0.00  0.00    +0.000 A 
ATOM     19  C   UNL     1       1.154   8.525  20.612  0.00  0.00    +0.000 A 
ATOM     20  C   UNL     1       2.042   7.561  20.145  0.00  0.00    +0.000 A 
ATOM     21  C   UNL     1       2.441   7.558  18.809  0.00  0.00    +0.000 A 
ATOM     22  C   UNL     1       2.012   8.581  17.964  0.00  0.00    +0.000 A 
ATOM     23  C   UNL     1       1.155   9.580  18.449  0.00  0.00    +0.000 A 
BRANCH  21  24
ATOM     24  O   UNL     1       3.271   6.599  18.264  0.00  0.00    +0.000 OA
BRANCH  24  25
ATOM     25  C   UNL     1       2.940   5.273  18.441  0.00  0.00    +0.000 A 
ATOM     26  C   UNL     1       1.780   4.696  17.904  0.00  0.00    +0.000 A 
ATOM     27  C   UNL     1       1.453   3.376  18.202  0.00  0.00    +0.000 A 
ATOM     28  C   UNL     1       2.318   2.603  18.972  0.00  0.00    +0.000 A 
ATOM     29  C   UNL     1       3.517   3.151  19.441  0.00  0.00    +0.000 A 
ATOM     30  C   UNL     1       3.826   4.486  19.174  0.00  0.00    +0.000 A 
ENDBRANCH  24  25
ENDBRANCH  21  24
ENDBRANCH   3  18
TORSDOF 4
ENDMDL
MODEL 3
REMARK VINA RESULT:      -7.9      2.254      3.558
REMARK  Name = 
REMARK  6 active torsions:
REMARK  status: ('A' for Active; 'I' for Inactive)
REMARK    1  A    between atoms: C_1  and  C_2
REMARK    2  A    between atoms: C_4  and  C_5
REMARK    3  A    between atoms: N_7  and  C_8
REMARK    4  A    between atoms: C_11  and  O_12
REMARK    5  A    between atoms: O_12  and  C_13
REMARK    6  A    between atoms: N_25  and  C_26
REMARK                            x       y       z     vdW  Elec       q    Type
REMARK                         _______ _______ _______ _____ _____    ______ ____
ROOT
ATOM      1  C   UNL     1       0.456   9.991  19.427  0.00  0.00    +0.000 C 
ATOM      2  O   UNL     1      -0.093   9.714  18.361  0.00  0.00    +0.000 OA
ATOM      3  N   UNL     1       1.388   9.213  20.078  0.00  0.00    +0.000 N 
ATOM      4  H   UNL     1       1.653   9.455  21.033  0.00  0.00    +0.000 HD
ENDROOT
BRANCH   1   8
ATOM      5  C   UNL     1      -0.087  14.881  18.793  0.00  0.00    +0.000 C 
ATOM      6  C   UNL     1      -0.173  13.682  19.688  0.00  0.00    +0.000 A 
ATOM      7  C   UNL     1       0.193  12.424  19.207  0.00  0.00    +0.000 A 
ATOM      8  C   UNL     1       0.068  11.290  20.023  0.00  0.00    +0.000 A 
ATOM      9  C   UNL     1      -0.436  11.497  21.288  0.00  0.00    +0.000 A 
ATOM     10  C   UNL     1      -0.819  10.618  22.386  0.00  0.00    +0.000 A 
ATOM     11  O   UNL     1      -0.571   9.430  22.467  0.00  0.00    +0.000 OA
ATOM     12  N   UNL     1      -1.448  11.403  23.332  0.00  0.00    +0.000 N 
ATOM     13  N   UNL     1      -1.148  12.757  23.086  0.00  0.00    +0.000 N 
ATOM     14  C   UNL     1      -2.069  13.786  23.518  0.00  0.00    +0.000 C 
ATOM     15  C   UNL     1      -0.743  12.784  21.729  0.00  0.00    +0.000 A 
ATOM     16  N   UNL     1      -0.634  13.876  20.951  0.00  0.00    +0.000 NA
ATOM     17  H   UNL     1      -1.503  11.081  24.291  0.00  0.00    +0.000 HD
ENDBRANCH   1   8
BRANCH   3  18
ATOM     18  C   UNL     1       1.856   7.955  19.640  0.00  0.00    +0.000 A 
ATOM     19  C   UNL     1       1.752   6.804  20.419  0.00  0.00    +0.000 A 
ATOM     20  C   UNL     1       2.328   5.608  20.001  0.00  0.00    +0.000 A 
ATOM     21  C   UNL     1       2.927   5.516  18.745  0.00  0.00    +0.000 A 
ATOM     22  C   UNL     1       3.022   6.656  17.946  0.00  0.00    +0.000 A 
ATOM     23  C   UNL     1       2.483   7.871  18.390  0.00  0.00    +0.000 A 
BRANCH  21  24
ATOM     24  O   UNL     1       3.465   4.349  18.241  0.00  0.00    +0.000 OA
BRANCH  24  25
ATOM     25  C   UNL     1       4.750   4.384  17.745  0.00  0.00    +0.000 A 
ATOM     26  C   UNL     1       5.867   4.686  18.536  0.00  0.00    +0.000 A 
ATOM     27  C   UNL     1       7.126   4.802  17.954  0.00  0.00    +0.000 A 
ATOM     28  C   UNL     1       7.289   4.543  16.596  0.00  0.00    +0.000 A 
ATOM     29  C   UNL     1       6.191   4.161  15.819  0.00  0.00    +0.000 A 
ATOM     30  C   UNL     1       4.922   4.083  16.395  0.00  0.00    +0.000 A 
ENDBRANCH  24  25
ENDBRANCH  21  24
ENDBRANCH   3  18
TORSDOF 4
ENDMDL
MODEL 4
REMARK VINA RESULT:      -7.9      1.698      2.285
REMARK  Name = 
REMARK  6 active torsions:
REMARK  status: ('A' for Active; 'I' for Inactive)
REMARK    1  A    between atoms: C_1  and  C_2
REMARK    2  A    between atoms: C_4  and  C_5
REMARK    3  A    between atoms: N_7  and  C_8
REMARK    4  A    between atoms: C_11  and  O_12
REMARK    5  A    between atoms: O_12  and  C_13
REMARK    6  A    between atoms: N_25  and  C_26
REMARK                            x       y       z     vdW  Elec       q    Type
REMARK                         _______ _______ _______ _____ _____    ______ ____
ROOT
ATOM      1  C   UNL     1       0.456  11.745  20.862  0.00  0.00    +0.000 C 
ATOM      2  O   UNL     1       1.616  12.010  21.174  0.00  0.00    +0.000 OA
ATOM      3  N   UNL     1       0.041  10.613  20.195  0.00  0.00    +0.000 N 
ATOM      4  H   UNL     1      -0.915  10.572  19.839  0.00  0.00    +0.000 HD
ENDROOT
BRANCH   1   8
ATOM      5  C   UNL     1      -1.523  16.231  20.112  0.00  0.00    +0.000 C 
ATOM      6  C   UNL     1      -1.495  14.950  20.890  0.00  0.00    +0.000 A 
ATOM      7  C   UNL     1      -0.557  13.965  20.580  0.00  0.00    +0.000 A 
ATOM      8  C   UNL     1      -0.557  12.744  21.271  0.00  0.00    +0.000 A 
ATOM      9  C   UNL     1      -1.525  12.587  22.239  0.00  0.00    +0.000 A 
ATOM     10  C   UNL     1      -1.941  11.480  23.089  0.00  0.00    +0.000 A 
ATOM     11  O   UNL     1      -1.333  10.437  23.251  0.00  0.00    +0.000 OA
ATOM     12  N   UNL     1      -3.106  11.869  23.720  0.00  0.00    +0.000 N 
ATOM     13  N   UNL     1      -3.240  13.267  23.625  0.00  0.00    +0.000 N 
ATOM     14  C   UNL     1      -4.556  13.867  23.669  0.00  0.00    +0.000 C 
ATOM     15  C   UNL     1      -2.408  13.625  22.535  0.00  0.00    +0.000 A 
ATOM     16  N   UNL     1      -2.420  14.795  21.873  0.00  0.00    +0.000 NA
ATOM     17  H   UNL     1      -3.387  11.409  24.578  0.00  0.00    +0.000 HD
ENDBRANCH   1   8
BRANCH   3  18
ATOM     18  C   UNL     1       0.882   9.575  19.738  0.00  0.00    +0.000 A 
ATOM     19  C   UNL     1       1.341   9.506  18.424  0.00  0.00    +0.000 A 
ATOM     20  C   UNL     1       2.072   8.407  17.984  0.00  0.00    +0.000 A 
ATOM     21  C   UNL     1       2.449   7.407  18.879  0.00  0.00    +0.000 A 
ATOM     22  C   UNL     1       2.012   7.472  20.202  0.00  0.00    +0.000 A 
ATOM     23  C   UNL     1       1.234   8.556  20.633  0.00  0.00    +0.000 A 
BRANCH  21  24
ATOM     24  O   UNL     1       3.223   6.320  18.527  0.00  0.00    +0.000 OA
BRANCH  24  25
ATOM     25  C   UNL     1       2.751   5.059  18.823  0.00  0.00    +0.000 A 
ATOM     26  C   UNL     1       3.249   4.286  19.881  0.00  0.00    +0.000 A 
ATOM     27  C   UNL     1       2.799   2.982  20.067  0.00  0.00    +0.000 A 
ATOM     28  C   UNL     1       1.797   2.470  19.246  0.00  0.00    +0.000 A 
ATOM     29  C   UNL     1       1.239   3.267  18.241  0.00  0.00    +0.000 A 
ATOM     30  C   UNL     1       1.719   4.561  18.031  0.00  0.00    +0.000 A 
ENDBRANCH  24  25
ENDBRANCH  21  24
ENDBRANCH   3  18
TORSDOF 4
ENDMDL
MODEL 5
REMARK VINA RESULT:      -7.9      3.088      9.429
REMARK  Name = 
REMARK  6 active torsions:
REMARK  status: ('A' for Active; 'I' for Inactive)
REMARK    1  A    between atoms: C_1  and  C_2
REMARK    2  A    between atoms: C_4  and  C_5
REMARK    3  A    between atoms: N_7  and  C_8
REMARK    4  A    between atoms: C_11  and  O_12
REMARK    5  A    between atoms: O_12  and  C_13
REMARK    6  A    between atoms: N_25  and  C_26
REMARK                            x       y       z     vdW  Elec       q    Type
REMARK                         _______ _______ _______ _____ _____    ______ ____
ROOT
ATOM      1  C   UNL     1       1.847   8.172  19.115  0.00  0.00    +0.000 C 
ATOM      2  O   UNL     1       1.469   8.948  18.238  0.00  0.00    +0.000 OA
ATOM      3  N   UNL     1       1.578   8.287  20.461  0.00  0.00    +0.000 N 
ATOM      4  H   UNL     1       2.077   7.686  21.118  0.00  0.00    +0.000 HD
ENDROOT
BRANCH   1   8
ATOM      5  C   UNL     1       5.368   6.506  16.043  0.00  0.00    +0.000 C 
ATOM      6  C   UNL     1       4.360   6.228  17.118  0.00  0.00    +0.000 A 
ATOM      7  C   UNL     1       3.555   7.259  17.604  0.00  0.00    +0.000 A 
ATOM      8  C   UNL     1       2.644   7.017  18.643  0.00  0.00    +0.000 A 
ATOM      9  C   UNL     1       2.610   5.734  19.142  0.00  0.00    +0.000 A 
ATOM     10  C   UNL     1       1.918   5.094  20.253  0.00  0.00    +0.000 A 
ATOM     11  O   UNL     1       1.010   5.580  20.902  0.00  0.00    +0.000 OA
ATOM     12  N   UNL     1       2.441   3.821  20.377  0.00  0.00    +0.000 N 
ATOM     13  N   UNL     1       3.128   3.485  19.195  0.00  0.00    +0.000 N 
ATOM     14  C   UNL     1       4.206   2.522  19.241  0.00  0.00    +0.000 C 
ATOM     15  C   UNL     1       3.408   4.734  18.586  0.00  0.00    +0.000 A 
ATOM     16  N   UNL     1       4.288   4.958  17.595  0.00  0.00    +0.000 NA
ATOM     17  H   UNL     1       1.903   3.105  20.850  0.00  0.00    +0.000 HD
ENDBRANCH   1   8
BRANCH   3  18
ATOM     18  C   UNL     1       0.838   9.328  21.064  0.00  0.00    +0.000 A 
ATOM     19  C   UNL     1       0.870  10.639  20.595  0.00  0.00    +0.000 A 
ATOM     20  C   UNL     1       0.219  11.657  21.285  0.00  0.00    +0.000 A 
ATOM     21  C   UNL     1      -0.565  11.363  22.400  0.00  0.00    +0.000 A 
ATOM     22  C   UNL     1      -0.621  10.051  22.871  0.00  0.00    +0.000 A 
ATOM     23  C   UNL     1       0.074   9.034  22.201  0.00  0.00    +0.000 A 
BRANCH  21  24
ATOM     24  O   UNL     1      -1.286  12.311  23.097  0.00  0.00    +0.000 OA
BRANCH  24  25
ATOM     25  C   UNL     1      -2.614  12.490  22.772  0.00  0.00    +0.000 A 
ATOM     26  C   UNL     1      -3.065  12.631  21.453  0.00  0.00    +0.000 A 
ATOM     27  C   UNL     1      -4.405  12.908  21.198  0.00  0.00    +0.000 A 
ATOM     28  C   UNL     1      -5.314  12.970  22.252  0.00  0.00    +0.000 A 
ATOM     29  C   UNL     1      -4.881  12.748  23.564  0.00  0.00    +0.000 A 
ATOM     30  C   UNL     1      -3.531  12.509  23.822  0.00  0.00    +0.000 A 
ENDBRANCH  24  25
ENDBRANCH  21  24
ENDBRANCH   3  18
TORSDOF 4
ENDMDL
MODEL 6
REMARK VINA RESULT:      -7.8      1.703      1.860
REMARK  Name = 
REMARK  6 active torsions:
REMARK  status: ('A' for Active; 'I' for Inactive)
REMARK    1  A    between atoms: C_1  and  C_2
REMARK    2  A    between atoms: C_4  and  C_5
REMARK    3  A    between atoms: N_7  and  C_8
REMARK    4  A    between atoms: C_11  and  O_12
REMARK    5  A    between atoms: O_12  and  C_13
REMARK    6  A    between atoms: N_25  and  C_26
REMARK                            x       y       z     vdW  Elec       q    Type
REMARK                         _______ _______ _______ _____ _____    ______ ____
ROOT
ATOM      1  C   UNL     1      -0.751  11.100  22.002  0.00  0.00    +0.000 C 
ATOM      2  O   UNL     1      -0.063  10.830  22.986  0.00  0.00    +0.000 OA
ATOM      3  N   UNL     1      -0.628  10.530  20.754  0.00  0.00    +0.000 N 
ATOM      4  H   UNL     1      -1.133  10.945  19.970  0.00  0.00    +0.000 HD
ENDROOT
BRANCH   1   8
ATOM      5  C   UNL     1      -4.556  12.638  24.788  0.00  0.00    +0.000 C 
ATOM      6  C   UNL     1      -3.671  12.838  23.595  0.00  0.00    +0.000 A 
ATOM      7  C   UNL     1      -2.667  11.912  23.307  0.00  0.00    +0.000 A 
ATOM      8  C   UNL     1      -1.803  12.118  22.221  0.00  0.00    +0.000 A 
ATOM      9  C   UNL     1      -2.002  13.268  21.489  0.00  0.00    +0.000 A 
ATOM     10  C   UNL     1      -1.293  13.907  20.388  0.00  0.00    +0.000 A 
ATOM     11  O   UNL     1      -0.407  13.402  19.722  0.00  0.00    +0.000 OA
ATOM     12  N   UNL     1      -1.862  15.152  20.208  0.00  0.00    +0.000 N 
ATOM     13  N   UNL     1      -3.114  15.187  20.851  0.00  0.00    +0.000 N 
ATOM     14  C   UNL     1      -3.649  16.450  21.310  0.00  0.00    +0.000 C 
ATOM     15  C   UNL     1      -3.050  14.134  21.798  0.00  0.00    +0.000 A 
ATOM     16  N   UNL     1      -3.878  13.949  22.841  0.00  0.00    +0.000 NA
ATOM     17  H   UNL     1      -1.756  15.624  19.318  0.00  0.00    +0.000 HD
ENDBRANCH   1   8
BRANCH   3  18
ATOM     18  C   UNL     1       0.324   9.553  20.388  0.00  0.00    +0.000 A 
ATOM     19  C   UNL     1       1.017   9.598  19.180  0.00  0.00    +0.000 A 
ATOM     20  C   UNL     1       1.860   8.556  18.806  0.00  0.00    +0.000 A 
ATOM     21  C   UNL     1       2.108   7.500  19.683  0.00  0.00    +0.000 A 
ATOM     22  C   UNL     1       1.434   7.452  20.904  0.00  0.00    +0.000 A 
ATOM     23  C   UNL     1       0.549   8.479  21.258  0.00  0.00    +0.000 A 
BRANCH  21  24
ATOM     24  O   UNL     1       2.977   6.465  19.403  0.00  0.00    +0.000 OA
BRANCH  24  25
ATOM     25  C   UNL     1       2.471   5.184  19.356  0.00  0.00    +0.000 A 
ATOM     26  C   UNL     1       1.931   4.618  18.192  0.00  0.00    +0.000 A 
ATOM     27  C   UNL     1       1.347   3.355  18.234  0.00  0.00    +0.000 A 
ATOM     28  C   UNL     1       1.367   2.620  19.417  0.00  0.00    +0.000 A 
ATOM     29  C   UNL     1       1.978   3.148  20.560  0.00  0.00    +0.000 A 
ATOM     30  C   UNL     1       2.529   4.430  20.527  0.00  0.00    +0.000 A 
ENDBRANCH  24  25
ENDBRANCH  21  24
ENDBRANCH   3  18
TORSDOF 4
ENDMDL
MODEL 7
REMARK VINA RESULT:      -7.8      3.254      9.572
REMARK  Name = 
REMARK  6 active torsions:
REMARK  status: ('A' for Active; 'I' for Inactive)
REMARK    1  A    between atoms: C_1  and  C_2
REMARK    2  A    between atoms: C_4  and  C_5
REMARK    3  A    between atoms: N_7  and  C_8
REMARK    4  A    between atoms: C_11  and  O_12
REMARK    5  A    between atoms: O_12  and  C_13
REMARK    6  A    between atoms: N_25  and  C_26
REMARK                            x       y       z     vdW  Elec       q    Type
REMARK                         _______ _______ _______ _____ _____    ______ ____
ROOT
ATOM      1  C   UNL     1       2.137   7.338  18.897  0.00  0.00    +0.000 C 
ATOM      2  O   UNL     1       1.809   8.165  18.047  0.00  0.00    +0.000 OA
ATOM      3  N   UNL     1       1.888   7.431  20.249  0.00  0.00    +0.000 N 
ATOM      4  H   UNL     1       2.349   6.778  20.882  0.00  0.00    +0.000 HD
ENDROOT
BRANCH   1   8
ATOM      5  C   UNL     1       5.779   5.553  16.040  0.00  0.00    +0.000 C 
ATOM      6  C   UNL     1       4.627   5.299  16.966  0.00  0.00    +0.000 A 
ATOM      7  C   UNL     1       3.894   6.371  17.478  0.00  0.00    +0.000 A 
ATOM      8  C   UNL     1       2.847   6.144  18.383  0.00  0.00    +0.000 A 
ATOM      9  C   UNL     1       2.607   4.832  18.729  0.00  0.00    +0.000 A 
ATOM     10  C   UNL     1       1.721   4.178  19.682  0.00  0.00    +0.000 A 
ATOM     11  O   UNL     1       0.805   4.708  20.284  0.00  0.00    +0.000 OA
ATOM     12  N   UNL     1       2.076   2.844  19.715  0.00  0.00    +0.000 N 
ATOM     13  N   UNL     1       2.854   2.542  18.581  0.00  0.00    +0.000 N 
ATOM     14  C   UNL     1       3.802   1.450  18.630  0.00  0.00    +0.000 C 
ATOM     15  C   UNL     1       3.344   3.800  18.149  0.00  0.00    +0.000 A 
ATOM     16  N   UNL     1       4.354   4.008  17.287  0.00  0.00    +0.000 NA
ATOM     17  H   UNL     1       1.408   2.158  20.046  0.00  0.00    +0.000 HD
ENDBRANCH   1   8
BRANCH   3  18
ATOM     18  C   UNL     1       1.229   8.504  20.890  0.00  0.00    +0.000 A 
ATOM     19  C   UNL     1       1.492   9.837  20.581  0.00  0.00    +0.000 A 
ATOM     20  C   UNL     1       0.907  10.865  21.315  0.00  0.00    +0.000 A 
ATOM     21  C   UNL     1      -0.035  10.578  22.302  0.00  0.00    +0.000 A 
ATOM     22  C   UNL     1      -0.322   9.248  22.609  0.00  0.00    +0.000 A 
ATOM     23  C   UNL     1       0.304   8.212  21.901  0.00  0.00    +0.000 A 
BRANCH  21  24
ATOM     24  O   UNL     1      -0.698  11.547  23.027  0.00  0.00    +0.000 OA
BRANCH  24  25
ATOM     25  C   UNL     1      -1.893  12.027  22.534  0.00  0.00    +0.000 A 
ATOM     26  C   UNL     1      -2.099  12.319  21.179  0.00  0.00    +0.000 A 
ATOM     27  C   UNL     1      -3.296  12.894  20.761  0.00  0.00    +0.000 A 
ATOM     28  C   UNL     1      -4.321  13.108  21.679  0.00  0.00    +0.000 A 
ATOM     29  C   UNL     1      -4.150  12.741  23.018  0.00  0.00    +0.000 A 
ATOM     30  C   UNL     1      -2.935  12.201  23.444  0.00  0.00    +0.000 A 
ENDBRANCH  24  25
ENDBRANCH  21  24
ENDBRANCH   3  18
TORSDOF 4
ENDMDL
MODEL 8
REMARK VINA RESULT:      -7.8      3.228      9.555
REMARK  Name = 
REMARK  6 active torsions:
REMARK  status: ('A' for Active; 'I' for Inactive)
REMARK    1  A    between atoms: C_1  and  C_2
REMARK    2  A    between atoms: C_4  and  C_5
REMARK    3  A    between atoms: N_7  and  C_8
REMARK    4  A    between atoms: C_11  and  O_12
REMARK    5  A    between atoms: O_12  and  C_13
REMARK    6  A    between atoms: N_25  and  C_26
REMARK                            x       y       z     vdW  Elec       q    Type
REMARK                         _______ _______ _______ _____ _____    ______ ____
ROOT
ATOM      1  C   UNL     1       2.366   7.435  18.649  0.00  0.00    +0.000 C 
ATOM      2  O   UNL     1       2.360   7.524  19.876  0.00  0.00    +0.000 OA
ATOM      3  N   UNL     1       1.844   8.362  17.773  0.00  0.00    +0.000 N 
ATOM      4  H   UNL     1       1.752   8.113  16.788  0.00  0.00    +0.000 HD
ENDROOT
BRANCH   1   8
ATOM      5  C   UNL     1       5.905   5.552  15.727  0.00  0.00    +0.000 C 
ATOM      6  C   UNL     1       4.746   5.330  16.653  0.00  0.00    +0.000 A 
ATOM      7  C   UNL     1       4.068   6.422  17.196  0.00  0.00    +0.000 A 
ATOM      8  C   UNL     1       3.015   6.222  18.101  0.00  0.00    +0.000 A 
ATOM      9  C   UNL     1       2.715   4.915  18.415  0.00  0.00    +0.000 A 
ATOM     10  C   UNL     1       1.803   4.280  19.357  0.00  0.00    +0.000 A 
ATOM     11  O   UNL     1       0.916   4.838  19.977  0.00  0.00    +0.000 OA
ATOM     12  N   UNL     1       2.094   2.930  19.354  0.00  0.00    +0.000 N 
ATOM     13  N   UNL     1       2.851   2.620  18.208  0.00  0.00    +0.000 N 
ATOM     14  C   UNL     1       3.746   1.484  18.225  0.00  0.00    +0.000 C 
ATOM     15  C   UNL     1       3.399   3.864  17.806  0.00  0.00    +0.000 A 
ATOM     16  N   UNL     1       4.414   4.045  16.943  0.00  0.00    +0.000 NA
ATOM     17  H   UNL     1       1.395   2.268  19.672  0.00  0.00    +0.000 HD
ENDBRANCH   1   8
BRANCH   3  18
ATOM     18  C   UNL     1       1.195   9.561  18.138  0.00  0.00    +0.000 A 
ATOM     19  C   UNL     1       1.892  10.721  18.470  0.00  0.00    +0.000 A 
ATOM     20  C   UNL     1       1.219  11.847  18.936  0.00  0.00    +0.000 A 
ATOM     21  C   UNL     1      -0.175  11.868  18.976  0.00  0.00    +0.000 A 
ATOM     22  C   UNL     1      -0.887  10.720  18.628  0.00  0.00    +0.000 A 
ATOM     23  C   UNL     1      -0.205   9.571  18.205  0.00  0.00    +0.000 A 
BRANCH  21  24
ATOM     24  O   UNL     1      -0.909  12.968  19.369  0.00  0.00    +0.000 OA
BRANCH  24  25
ATOM     25  C   UNL     1      -1.600  12.900  20.559  0.00  0.00    +0.000 A 
ATOM     26  C   UNL     1      -0.975  12.683  21.795  0.00  0.00    +0.000 A 
ATOM     27  C   UNL     1      -1.739  12.526  22.948  0.00  0.00    +0.000 A 
ATOM     28  C   UNL     1      -3.124  12.660  22.886  0.00  0.00    +0.000 A 
ATOM     29  C   UNL     1      -3.745  12.958  21.669  0.00  0.00    +0.000 A 
ATOM     30  C   UNL     1      -2.982  13.077  20.507  0.00  0.00    +0.000 A 
ENDBRANCH  24  25
ENDBRANCH  21  24
ENDBRANCH   3  18
TORSDOF 4
ENDMDL
MODEL 9
REMARK VINA RESULT:      -7.7      2.636      3.611
REMARK  Name = 
REMARK  6 active torsions:
REMARK  status: ('A' for Active; 'I' for Inactive)
REMARK    1  A    between atoms: C_1  and  C_2
REMARK    2  A    between atoms: C_4  and  C_5
REMARK    3  A    between atoms: N_7  and  C_8
REMARK    4  A    between atoms: C_11  and  O_12
REMARK    5  A    between atoms: O_12  and  C_13
REMARK    6  A    between atoms: N_25  and  C_26
REMARK                            x       y       z     vdW  Elec       q    Type
REMARK                         _______ _______ _______ _____ _____    ______ ____
ROOT
ATOM      1  C   UNL     1       0.175  10.364  18.740  0.00  0.00    +0.000 C 
ATOM      2  O   UNL     1      -0.434   9.799  17.831  0.00  0.00    +0.000 OA
ATOM      3  N   UNL     1       1.286   9.873  19.390  0.00  0.00    +0.000 N 
ATOM      4  H   UNL     1       1.610  10.341  20.236  0.00  0.00    +0.000 HD
ENDROOT
BRANCH   1   8
ATOM      5  C   UNL     1      -3.508  12.944  20.833  0.00  0.00    +0.000 C 
ATOM      6  C   UNL     1      -2.175  12.929  20.146  0.00  0.00    +0.000 A 
ATOM      7  C   UNL     1      -1.619  11.719  19.729  0.00  0.00    +0.000 A 
ATOM      8  C   UNL     1      -0.351  11.692  19.130  0.00  0.00    +0.000 A 
ATOM      9  C   UNL     1       0.291  12.903  18.997  0.00  0.00    +0.000 A 
ATOM     10  C   UNL     1       1.617  13.307  18.548  0.00  0.00    +0.000 A 
ATOM     11  O   UNL     1       2.423  12.595  17.977  0.00  0.00    +0.000 OA
ATOM     12  N   UNL     1       1.748  14.652  18.830  0.00  0.00    +0.000 N 
ATOM     13  N   UNL     1       0.475  15.203  19.068  0.00  0.00    +0.000 N 
ATOM     14  C   UNL     1       0.344  16.373  19.909  0.00  0.00    +0.000 C 
ATOM     15  C   UNL     1      -0.334  14.085  19.392  0.00  0.00    +0.000 A 
ATOM     16  N   UNL     1      -1.546  14.120  19.974  0.00  0.00    +0.000 NA
ATOM     17  H   UNL     1       2.433  15.203  18.326  0.00  0.00    +0.000 HD
ENDBRANCH   1   8
BRANCH   3  18
ATOM     18  C   UNL     1       1.902   8.628  19.136  0.00  0.00    +0.000 A 
ATOM     19  C   UNL     1       2.574   8.352  17.947  0.00  0.00    +0.000 A 
ATOM     20  C   UNL     1       3.067   7.076  17.689  0.00  0.00    +0.000 A 
ATOM     21  C   UNL     1       2.991   6.081  18.662  0.00  0.00    +0.000 A 
ATOM     22  C   UNL     1       2.337   6.348  19.865  0.00  0.00    +0.000 A 
ATOM     23  C   UNL     1       1.799   7.621  20.105  0.00  0.00    +0.000 A 
BRANCH  21  24
ATOM     24  O   UNL     1       3.510   4.813  18.498  0.00  0.00    +0.000 OA
BRANCH  24  25
ATOM     25  C   UNL     1       4.767   4.690  17.944  0.00  0.00    +0.000 A 
ATOM     26  C   UNL     1       5.943   5.007  18.638  0.00  0.00    +0.000 A 
ATOM     27  C   UNL     1       7.173   4.955  17.990  0.00  0.00    +0.000 A 
ATOM     28  C   UNL     1       7.245   4.513  16.671  0.00  0.00    +0.000 A 
ATOM     29  C   UNL     1       6.083   4.116  16.001  0.00  0.00    +0.000 A 
ATOM     30  C   UNL     1       4.844   4.206  16.639  0.00  0.00    +0.000 A 
ENDBRANCH  24  25
ENDBRANCH  21  24
ENDBRANCH   3  18
TORSDOF 4
ENDMDL
