MODEL 1
REMARK VINA RESULT:      -8.4      0.000      0.000
REMARK  Name = 
REMARK  4 active torsions:
REMARK  status: ('A' for Active; 'I' for Inactive)
REMARK    1  A    between atoms: C_1  and  C_2
REMARK    2  A    between atoms: C_13  and  C_14
REMARK    3  A    between atoms: C_14  and  C_15
REMARK    4  A    between atoms: C_21  and  C_22
REMARK                            x       y       z     vdW  Elec       q    Type
REMARK                         _______ _______ _______ _____ _____    ______ ____
ROOT
ATOM      1  C   UNL     1      -1.083  10.813  18.348  0.00  0.00    +0.000 C 
ATOM      2  O   UNL     1      -1.455   9.889  17.632  0.00  0.00    +0.000 OA
ATOM      3  N   UNL     1       0.037  10.761  19.159  0.00  0.00    +0.000 N 
ATOM      4  C   UNL     1       0.880   9.651  19.075  0.00  0.00    +0.000 A 
ATOM      5  C   UNL     1       1.489   9.330  17.875  0.00  0.00    +0.000 A 
ATOM      6  C   UNL     1       2.295   8.200  17.820  0.00  0.00    +0.000 A 
ATOM      7  C   UNL     1       2.434   7.410  18.955  0.00  0.00    +0.000 A 
ATOM      8  N   UNL     1       1.857   7.794  20.122  0.00  0.00    +0.000 NA
ATOM      9  N   UNL     1       1.105   8.942  20.193  0.00  0.00    +0.000 NA
ATOM     10  H   UNL     1      -0.116  11.090  20.105  0.00  0.00    +0.000 HD
ENDROOT
BRANCH   7  11
ATOM     11  C   UNL     1       3.196   6.148  18.974  0.00  0.00    +0.000 A 
ATOM     12  C   UNL     1       4.328   5.979  18.157  0.00  0.00    +0.000 A 
ATOM     13  C   UNL     1       5.055   4.787  18.159  0.00  0.00    +0.000 A 
ATOM     14  C   UNL     1       4.668   3.735  18.983  0.00  0.00    +0.000 A 
ATOM     15  C   UNL     1       3.560   3.878  19.811  0.00  0.00    +0.000 A 
ATOM     16  C   UNL     1       2.837   5.072  19.810  0.00  0.00    +0.000 A 
ENDBRANCH   7  11
BRANCH   1  17
ATOM     17  C   UNL     1      -1.821  12.129  18.463  0.00  0.00    +0.000 C 
BRANCH  17  30
ATOM     18  C   UNL     1      -1.106  14.985  21.847  0.00  0.00    +0.000 C 
ATOM     19  C   UNL     1      -1.334  14.045  20.685  0.00  0.00    +0.000 C 
ATOM     20  O   UNL     1      -0.442  13.966  19.838  0.00  0.00    +0.000 OA
ATOM     21  N   UNL     1      -2.555  13.346  20.636  0.00  0.00    +0.000 N 
ATOM     22  C   UNL     1      -3.526  13.506  21.631  0.00  0.00    +0.000 C 
ATOM     23  C   UNL     1      -4.774  13.050  21.526  0.00  0.00    +0.000 C 
ATOM     24  C   UNL     1      -5.246  12.448  20.285  0.00  0.00    +0.000 A 
ATOM     25  C   UNL     1      -6.618  12.223  20.093  0.00  0.00    +0.000 A 
ATOM     26  C   UNL     1      -7.084  11.678  18.901  0.00  0.00    +0.000 A 
ATOM     27  C   UNL     1      -6.186  11.396  17.883  0.00  0.00    +0.000 A 
ATOM     28  C   UNL     1      -4.823  11.649  18.061  0.00  0.00    +0.000 A 
ATOM     29  C   UNL     1      -4.315  12.137  19.278  0.00  0.00    +0.000 A 
ATOM     30  C   UNL     1      -2.815  12.215  19.641  0.00  0.00    +0.000 C 
ENDBRANCH  17  30
ENDBRANCH   1  17
TORSDOF 3
ENDMDL
MODEL 2
REMARK VINA RESULT:      -8.4      3.326     10.008
REMARK  Name = 
REMARK  4 active torsions:
REMARK  status: ('A' for Active; 'I' for Inactive)
REMARK    1  A    between atoms: C_1  and  C_2
REMARK    2  A    between atoms: C_13  and  C_14
REMARK    3  A    between atoms: C_14  and  C_15
REMARK    4  A    between atoms: C_21  and  C_22
REMARK                            x       y       z     vdW  Elec       q    Type
REMARK                         _______ _______ _______ _____ _____    ______ ____
ROOT
ATOM      1  C   UNL     1       2.150   8.061  18.089  0.00  0.00    +0.000 C 
ATOM      2  O   UNL     1       2.331   9.149  17.551  0.00  0.00    +0.000 OA
ATOM      3  N   UNL     1       1.567   7.901  19.334  0.00  0.00    +0.000 N 
ATOM      4  C   UNL     1       1.027   9.019  19.975  0.00  0.00    +0.000 A 
ATOM      5  C   UNL     1       0.015   9.745  19.372  0.00  0.00    +0.000 A 
ATOM      6  C   UNL     1      -0.475  10.869  20.023  0.00  0.00    +0.000 A 
ATOM      7  C   UNL     1       0.089  11.252  21.234  0.00  0.00    +0.000 A 
ATOM      8  N   UNL     1       1.046  10.480  21.809  0.00  0.00    +0.000 NA
ATOM      9  N   UNL     1       1.493   9.335  21.194  0.00  0.00    +0.000 NA
ATOM     10  H   UNL     1       2.067   7.275  19.954  0.00  0.00    +0.000 HD
ENDROOT
BRANCH   7  11
ATOM     11  C   UNL     1      -0.302  12.475  21.958  0.00  0.00    +0.000 A 
ATOM     12  C   UNL     1       0.308  13.709  21.668  0.00  0.00    +0.000 A 
ATOM     13  C   UNL     1      -0.045  14.874  22.351  0.00  0.00    +0.000 A 
ATOM     14  C   UNL     1      -1.023  14.834  23.340  0.00  0.00    +0.000 A 
ATOM     15  C   UNL     1      -1.653  13.630  23.640  0.00  0.00    +0.000 A 
ATOM     16  C   UNL     1      -1.300  12.467  22.953  0.00  0.00    +0.000 A 
ENDBRANCH   7  11
BRANCH   1  17
ATOM     17  C   UNL     1       2.571   6.745  17.474  0.00  0.00    +0.000 C 
BRANCH  17  30
ATOM     18  C   UNL     1       1.568   2.476  18.419  0.00  0.00    +0.000 C 
ATOM     19  C   UNL     1       1.892   3.910  18.070  0.00  0.00    +0.000 C 
ATOM     20  O   UNL     1       1.038   4.550  17.453  0.00  0.00    +0.000 OA
ATOM     21  N   UNL     1       3.154   4.410  18.448  0.00  0.00    +0.000 N 
ATOM     22  C   UNL     1       4.076   3.611  19.133  0.00  0.00    +0.000 C 
ATOM     23  C   UNL     1       5.352   3.950  19.319  0.00  0.00    +0.000 C 
ATOM     24  C   UNL     1       5.903   5.149  18.700  0.00  0.00    +0.000 A 
ATOM     25  C   UNL     1       7.292   5.350  18.675  0.00  0.00    +0.000 A 
ATOM     26  C   UNL     1       7.832   6.475  18.059  0.00  0.00    +0.000 A 
ATOM     27  C   UNL     1       6.989   7.379  17.431  0.00  0.00    +0.000 A 
ATOM     28  C   UNL     1       5.608   7.164  17.427  0.00  0.00    +0.000 A 
ATOM     29  C   UNL     1       5.029   6.072  18.098  0.00  0.00    +0.000 A 
ATOM     30  C   UNL     1       3.515   5.891  18.348  0.00  0.00    +0.000 C 
ENDBRANCH  17  30
ENDBRANCH   1  17
TORSDOF 3
ENDMDL
MODEL 3
REMARK VINA RESULT:      -8.2      1.260      1.898
REMARK  Name = 
REMARK  4 active torsions:
REMARK  status: ('A' for Active; 'I' for Inactive)
REMARK    1  A    between atoms: C_1  and  C_2
REMARK    2  A    between atoms: C_13  and  C_14
REMARK    3  A    between atoms: C_14  and  C_15
REMARK    4  A    between atoms: C_21  and  C_22
REMARK                            x       y       z     vdW  Elec       q    Type
REMARK                         _______ _______ _______ _____ _____    ______ ____
ROOT
ATOM      1  C   UNL     1      -0.460  10.976  18.744  0.00  0.00    +0.000 C 
ATOM      2  O   UNL     1      -0.941  10.240  17.889  0.00  0.00    +0.000 OA
ATOM      3  N   UNL     1       0.622  10.637  19.537  0.00  0.00    +0.000 N 
ATOM      4  C   UNL     1       1.304   9.446  19.275  0.00  0.00    +0.000 A 
ATOM      5  C   UNL     1       1.888   9.236  18.039  0.00  0.00    +0.000 A 
ATOM      6  C   UNL     1       2.529   8.027  17.803  0.00  0.00    +0.000 A 
ATOM      7  C   UNL     1       2.530   7.055  18.797  0.00  0.00    +0.000 A 
ATOM      8  N   UNL     1       1.986   7.326  20.010  0.00  0.00    +0.000 NA
ATOM      9  N   UNL     1       1.401   8.543  20.264  0.00  0.00    +0.000 NA
ATOM     10  H   UNL     1       0.496  10.829  20.524  0.00  0.00    +0.000 HD
ENDROOT
BRANCH   7  11
ATOM     11  C   UNL     1       3.106   5.710  18.613  0.00  0.00    +0.000 A 
ATOM     12  C   UNL     1       2.486   4.770  17.770  0.00  0.00    +0.000 A 
ATOM     13  C   UNL     1       3.015   3.491  17.592  0.00  0.00    +0.000 A 
ATOM     14  C   UNL     1       4.184   3.121  18.252  0.00  0.00    +0.000 A 
ATOM     15  C   UNL     1       4.827   4.035  19.081  0.00  0.00    +0.000 A 
ATOM     16  C   UNL     1       4.297   5.315  19.255  0.00  0.00    +0.000 A 
ENDBRANCH   7  11
BRANCH   1  17
ATOM     17  C   UNL     1      -1.009  12.348  19.069  0.00  0.00    +0.000 C 
BRANCH  17  30
ATOM     18  C   UNL     1       1.529  14.816  21.825  0.00  0.00    +0.000 C 
ATOM     19  C   UNL     1       0.681  14.005  20.871  0.00  0.00    +0.000 C 
ATOM     20  O   UNL     1       1.132  13.809  19.740  0.00  0.00    +0.000 OA
ATOM     21  N   UNL     1      -0.572  13.553  21.327  0.00  0.00    +0.000 N 
ATOM     22  C   UNL     1      -1.019  13.834  22.623  0.00  0.00    +0.000 C 
ATOM     23  C   UNL     1      -2.270  13.629  23.034  0.00  0.00    +0.000 C 
ATOM     24  C   UNL     1      -3.301  13.200  22.097  0.00  0.00    +0.000 A 
ATOM     25  C   UNL     1      -4.653  13.249  22.472  0.00  0.00    +0.000 A 
ATOM     26  C   UNL     1      -5.649  12.871  21.577  0.00  0.00    +0.000 A 
ATOM     27  C   UNL     1      -5.299  12.485  20.292  0.00  0.00    +0.000 A 
ATOM     28  C   UNL     1      -3.955  12.466  19.907  0.00  0.00    +0.000 A 
ATOM     29  C   UNL     1      -2.924  12.778  20.810  0.00  0.00    +0.000 A 
ATOM     30  C   UNL     1      -1.419  12.551  20.544  0.00  0.00    +0.000 C 
ENDBRANCH  17  30
ENDBRANCH   1  17
TORSDOF 3
ENDMDL
MODEL 4
REMARK VINA RESULT:      -8.1      2.357      9.686
REMARK  Name = 
REMARK  4 active torsions:
REMARK  status: ('A' for Active; 'I' for Inactive)
REMARK    1  A    between atoms: C_1  and  C_2
REMARK    2  A    between atoms: C_13  and  C_14
REMARK    3  A    between atoms: C_14  and  C_15
REMARK    4  A    between atoms: C_21  and  C_22
REMARK                            x       y       z     vdW  Elec       q    Type
REMARK                         _______ _______ _______ _____ _____    ______ ____
ROOT
ATOM      1  C   UNL     1       2.120   7.905  19.250  0.00  0.00    +0.000 C 
ATOM      2  O   UNL     1       1.594   7.765  20.349  0.00  0.00    +0.000 OA
ATOM      3  N   UNL     1       1.679   8.799  18.290  0.00  0.00    +0.000 N 
ATOM      4  C   UNL     1       0.661   9.696  18.620  0.00  0.00    +0.000 A 
ATOM      5  C   UNL     1       0.832  10.590  19.662  0.00  0.00    +0.000 A 
ATOM      6  C   UNL     1      -0.215  11.445  19.983  0.00  0.00    +0.000 A 
ATOM      7  C   UNL     1      -1.409  11.350  19.278  0.00  0.00    +0.000 A 
ATOM      8  N   UNL     1      -1.511  10.491  18.232  0.00  0.00    +0.000 NA
ATOM      9  N   UNL     1      -0.457   9.685  17.876  0.00  0.00    +0.000 NA
ATOM     10  H   UNL     1       1.596   8.408  17.359  0.00  0.00    +0.000 HD
ENDROOT
BRANCH   7  11
ATOM     11  C   UNL     1      -2.604  12.151  19.599  0.00  0.00    +0.000 A 
ATOM     12  C   UNL     1      -2.532  13.216  20.515  0.00  0.00    +0.000 A 
ATOM     13  C   UNL     1      -3.657  13.978  20.836  0.00  0.00    +0.000 A 
ATOM     14  C   UNL     1      -4.884  13.695  20.243  0.00  0.00    +0.000 A 
ATOM     15  C   UNL     1      -4.982  12.656  19.322  0.00  0.00    +0.000 A 
ATOM     16  C   UNL     1      -3.855  11.898  19.002  0.00  0.00    +0.000 A 
ENDBRANCH   7  11
BRANCH   1  17
ATOM     17  C   UNL     1       3.307   7.092  18.783  0.00  0.00    +0.000 C 
BRANCH  17  30
ATOM     18  C   UNL     1       5.606   5.423  15.311  0.00  0.00    +0.000 C 
ATOM     19  C   UNL     1       4.859   6.000  16.492  0.00  0.00    +0.000 C 
ATOM     20  O   UNL     1       5.134   7.154  16.827  0.00  0.00    +0.000 OA
ATOM     21  N   UNL     1       3.923   5.175  17.144  0.00  0.00    +0.000 N 
ATOM     22  C   UNL     1       3.681   3.866  16.711  0.00  0.00    +0.000 C 
ATOM     23  C   UNL     1       2.981   2.974  17.411  0.00  0.00    +0.000 C 
ATOM     24  C   UNL     1       2.518   3.281  18.759  0.00  0.00    +0.000 A 
ATOM     25  C   UNL     1       2.027   2.255  19.582  0.00  0.00    +0.000 A 
ATOM     26  C   UNL     1       1.610   2.530  20.881  0.00  0.00    +0.000 A 
ATOM     27  C   UNL     1       1.723   3.821  21.374  0.00  0.00    +0.000 A 
ATOM     28  C   UNL     1       2.241   4.838  20.566  0.00  0.00    +0.000 A 
ATOM     29  C   UNL     1       2.608   4.603  19.229  0.00  0.00    +0.000 A 
ATOM     30  C   UNL     1       2.957   5.705  18.203  0.00  0.00    +0.000 C 
ENDBRANCH  17  30
ENDBRANCH   1  17
TORSDOF 3
ENDMDL
MODEL 5
REMARK VINA RESULT:      -8.1      0.622      1.177
REMARK  Name = 
REMARK  4 active torsions:
REMARK  status: ('A' for Active; 'I' for Inactive)
REMARK    1  A    between atoms: C_1  and  C_2
REMARK    2  A    between atoms: C_13  and  C_14
REMARK    3  A    between atoms: C_14  and  C_15
REMARK    4  A    between atoms: C_21  and  C_22
REMARK                            x       y       z     vdW  Elec       q    Type
REMARK                         _______ _______ _______ _____ _____    ______ ____
ROOT
ATOM      1  C   UNL     1      -0.953  10.766  18.251  0.00  0.00    +0.000 C 
ATOM      2  O   UNL     1      -1.307   9.848  17.518  0.00  0.00    +0.000 OA
ATOM      3  N   UNL     1       0.131  10.697  19.108  0.00  0.00    +0.000 N 
ATOM      4  C   UNL     1       0.963   9.576  19.056  0.00  0.00    +0.000 A 
ATOM      5  C   UNL     1       1.616   9.249  17.881  0.00  0.00    +0.000 A 
ATOM      6  C   UNL     1       2.409   8.109  17.856  0.00  0.00    +0.000 A 
ATOM      7  C   UNL     1       2.491   7.315  18.994  0.00  0.00    +0.000 A 
ATOM      8  N   UNL     1       1.871   7.704  20.137  0.00  0.00    +0.000 NA
ATOM      9  N   UNL     1       1.132   8.861  20.180  0.00  0.00    +0.000 NA
ATOM     10  H   UNL     1      -0.055  11.026  20.048  0.00  0.00    +0.000 HD
ENDROOT
BRANCH   7  11
ATOM     11  C   UNL     1       3.234   6.043  19.041  0.00  0.00    +0.000 A 
ATOM     12  C   UNL     1       2.735   4.944  19.764  0.00  0.00    +0.000 A 
ATOM     13  C   UNL     1       3.432   3.736  19.824  0.00  0.00    +0.000 A 
ATOM     14  C   UNL     1       4.646   3.596  19.158  0.00  0.00    +0.000 A 
ATOM     15  C   UNL     1       5.158   4.662  18.424  0.00  0.00    +0.000 A 
ATOM     16  C   UNL     1       4.457   5.868  18.363  0.00  0.00    +0.000 A 
ENDBRANCH   7  11
BRANCH   1  17
ATOM     17  C   UNL     1      -1.678  12.091  18.339  0.00  0.00    +0.000 C 
BRANCH  17  30
ATOM     18  C   UNL     1       0.106  15.216  21.018  0.00  0.00    +0.000 C 
ATOM     19  C   UNL     1      -0.487  14.181  20.089  0.00  0.00    +0.000 C 
ATOM     20  O   UNL     1       0.134  13.927  19.054  0.00  0.00    +0.000 OA
ATOM     21  N   UNL     1      -1.716  13.599  20.452  0.00  0.00    +0.000 N 
ATOM     22  C   UNL     1      -2.368  13.956  21.638  0.00  0.00    +0.000 C 
ATOM     23  C   UNL     1      -3.623  13.612  21.925  0.00  0.00    +0.000 C 
ATOM     24  C   UNL     1      -4.451  12.926  20.940  0.00  0.00    +0.000 A 
ATOM     25  C   UNL     1      -5.835  12.812  21.145  0.00  0.00    +0.000 A 
ATOM     26  C   UNL     1      -6.641  12.187  20.198  0.00  0.00    +0.000 A 
ATOM     27  C   UNL     1      -6.072  11.714  19.025  0.00  0.00    +0.000 A 
ATOM     28  C   UNL     1      -4.699  11.855  18.805  0.00  0.00    +0.000 A 
ATOM     29  C   UNL     1      -3.850  12.422  19.773  0.00  0.00    +0.000 A 
ATOM     30  C   UNL     1      -2.307  12.397  19.716  0.00  0.00    +0.000 C 
ENDBRANCH  17  30
ENDBRANCH   1  17
TORSDOF 3
ENDMDL
MODEL 6
REMARK VINA RESULT:      -8.1      1.291      1.433
REMARK  Name = 
REMARK  4 active torsions:
REMARK  status: ('A' for Active; 'I' for Inactive)
REMARK    1  A    between atoms: C_1  and  C_2
REMARK    2  A    between atoms: C_13  and  C_14
REMARK    3  A    between atoms: C_14  and  C_15
REMARK    4  A    between atoms: C_21  and  C_22
REMARK                            x       y       z     vdW  Elec       q    Type
REMARK                         _______ _______ _______ _____ _____    ______ ____
ROOT
ATOM      1  C   UNL     1      -0.967  11.466  19.499  0.00  0.00    +0.000 C 
ATOM      2  O   UNL     1      -1.538  10.804  18.638  0.00  0.00    +0.000 OA
ATOM      3  N   UNL     1       0.248  11.119  20.063  0.00  0.00    +0.000 N 
ATOM      4  C   UNL     1       0.946  10.026  19.542  0.00  0.00    +0.000 A 
ATOM      5  C   UNL     1       1.332  10.016  18.214  0.00  0.00    +0.000 A 
ATOM      6  C   UNL     1       1.995   8.899  17.723  0.00  0.00    +0.000 A 
ATOM      7  C   UNL     1       2.214   7.815  18.565  0.00  0.00    +0.000 A 
ATOM      8  N   UNL     1       1.861   7.893  19.873  0.00  0.00    +0.000 NA
ATOM      9  N   UNL     1       1.256   9.019  20.375  0.00  0.00    +0.000 NA
ATOM     10  H   UNL     1       0.274  11.178  21.074  0.00  0.00    +0.000 HD
ENDROOT
BRANCH   7  11
ATOM     11  C   UNL     1       2.830   6.553  18.117  0.00  0.00    +0.000 A 
ATOM     12  C   UNL     1       4.095   6.549  17.501  0.00  0.00    +0.000 A 
ATOM     13  C   UNL     1       4.688   5.363  17.064  0.00  0.00    +0.000 A 
ATOM     14  C   UNL     1       4.030   4.149  17.236  0.00  0.00    +0.000 A 
ATOM     15  C   UNL     1       2.783   4.121  17.854  0.00  0.00    +0.000 A 
ATOM     16  C   UNL     1       2.194   5.308  18.293  0.00  0.00    +0.000 A 
ENDBRANCH   7  11
BRANCH   1  17
ATOM     17  C   UNL     1      -1.534  12.740  20.085  0.00  0.00    +0.000 C 
BRANCH  17  30
ATOM     18  C   UNL     1      -1.210  14.625  24.143  0.00  0.00    +0.000 C 
ATOM     19  C   UNL     1      -1.304  14.017  22.762  0.00  0.00    +0.000 C 
ATOM     20  O   UNL     1      -0.330  14.147  22.019  0.00  0.00    +0.000 OA
ATOM     21  N   UNL     1      -2.504  13.368  22.411  0.00  0.00    +0.000 N 
ATOM     22  C   UNL     1      -3.573  13.279  23.309  0.00  0.00    +0.000 C 
ATOM     23  C   UNL     1      -4.797  12.880  22.964  0.00  0.00    +0.000 C 
ATOM     24  C   UNL     1      -5.131  12.622  21.569  0.00  0.00    +0.000 A 
ATOM     25  C   UNL     1      -6.473  12.470  21.186  0.00  0.00    +0.000 A 
ATOM     26  C   UNL     1      -6.807  12.254  19.852  0.00  0.00    +0.000 A 
ATOM     27  C   UNL     1      -5.806  12.232  18.894  0.00  0.00    +0.000 A 
ATOM     28  C   UNL     1      -4.472  12.415  19.269  0.00  0.00    +0.000 A 
ATOM     29  C   UNL     1      -4.098  12.568  20.616  0.00  0.00    +0.000 A 
ATOM     30  C   UNL     1      -2.644  12.533  21.139  0.00  0.00    +0.000 C 
ENDBRANCH  17  30
ENDBRANCH   1  17
TORSDOF 3
ENDMDL
MODEL 7
REMARK VINA RESULT:      -8.0      1.338      1.818
REMARK  Name = 
REMARK  4 active torsions:
REMARK  status: ('A' for Active; 'I' for Inactive)
REMARK    1  A    between atoms: C_1  and  C_2
REMARK    2  A    between atoms: C_13  and  C_14
REMARK    3  A    between atoms: C_14  and  C_15
REMARK    4  A    between atoms: C_21  and  C_22
REMARK                            x       y       z     vdW  Elec       q    Type
REMARK                         _______ _______ _______ _____ _____    ______ ____
ROOT
ATOM      1  C   UNL     1       0.277  10.230  18.603  0.00  0.00    +0.000 C 
ATOM      2  O   UNL     1      -0.223   9.566  17.700  0.00  0.00    +0.000 OA
ATOM      3  N   UNL     1       1.200   9.733  19.508  0.00  0.00    +0.000 N 
ATOM      4  C   UNL     1       1.704   8.444  19.319  0.00  0.00    +0.000 A 
ATOM      5  C   UNL     1       2.375   8.123  18.153  0.00  0.00    +0.000 A 
ATOM      6  C   UNL     1       2.833   6.823  17.986  0.00  0.00    +0.000 A 
ATOM      7  C   UNL     1       2.571   5.879  18.973  0.00  0.00    +0.000 A 
ATOM      8  N   UNL     1       1.952   6.254  20.121  0.00  0.00    +0.000 NA
ATOM      9  N   UNL     1       1.548   7.554  20.312  0.00  0.00    +0.000 NA
ATOM     10  H   UNL     1       1.002   9.959  20.475  0.00  0.00    +0.000 HD
ENDROOT
BRANCH   7  11
ATOM     11  C   UNL     1       2.939   4.457  18.850  0.00  0.00    +0.000 A 
ATOM     12  C   UNL     1       2.211   3.595  18.010  0.00  0.00    +0.000 A 
ATOM     13  C   UNL     1       2.542   2.244  17.890  0.00  0.00    +0.000 A 
ATOM     14  C   UNL     1       3.615   1.723  18.606  0.00  0.00    +0.000 A 
ATOM     15  C   UNL     1       4.361   2.554  19.435  0.00  0.00    +0.000 A 
ATOM     16  C   UNL     1       4.030   3.905  19.551  0.00  0.00    +0.000 A 
ENDBRANCH   7  11
BRANCH   1  17
ATOM     17  C   UNL     1      -0.074  11.677  18.869  0.00  0.00    +0.000 C 
BRANCH  17  30
ATOM     18  C   UNL     1       0.058  14.478  22.370  0.00  0.00    +0.000 C 
ATOM     19  C   UNL     1       0.034  13.554  21.173  0.00  0.00    +0.000 C 
ATOM     20  O   UNL     1       1.100  13.363  20.584  0.00  0.00    +0.000 OA
ATOM     21  N   UNL     1      -1.203  12.998  20.798  0.00  0.00    +0.000 N 
ATOM     22  C   UNL     1      -2.374  13.280  21.511  0.00  0.00    +0.000 C 
ATOM     23  C   UNL     1      -3.596  12.968  21.078  0.00  0.00    +0.000 C 
ATOM     24  C   UNL     1      -3.795  12.407  19.748  0.00  0.00    +0.000 A 
ATOM     25  C   UNL     1      -5.087  12.337  19.203  0.00  0.00    +0.000 A 
ATOM     26  C   UNL     1      -5.287  11.832  17.921  0.00  0.00    +0.000 A 
ATOM     27  C   UNL     1      -4.193  11.437  17.166  0.00  0.00    +0.000 A 
ATOM     28  C   UNL     1      -2.903  11.535  17.696  0.00  0.00    +0.000 A 
ATOM     29  C   UNL     1      -2.676  11.978  19.011  0.00  0.00    +0.000 A 
ATOM     30  C   UNL     1      -1.323  11.891  19.751  0.00  0.00    +0.000 C 
ENDBRANCH  17  30
ENDBRANCH   1  17
TORSDOF 3
ENDMDL
MODEL 8
REMARK VINA RESULT:      -8.0      1.995      3.026
REMARK  Name = 
REMARK  4 active torsions:
REMARK  status: ('A' for Active; 'I' for Inactive)
REMARK    1  A    between atoms: C_1  and  C_2
REMARK    2  A    between atoms: C_13  and  C_14
REMARK    3  A    between atoms: C_14  and  C_15
REMARK    4  A    between atoms: C_21  and  C_22
REMARK                            x       y       z     vdW  Elec       q    Type
REMARK                         _______ _______ _______ _____ _____    ______ ____
ROOT
ATOM      1  C   UNL     1      -1.206  10.843  19.188  0.00  0.00    +0.000 C 
ATOM      2  O   UNL     1      -1.656  10.079  18.339  0.00  0.00    +0.000 OA
ATOM      3  N   UNL     1       0.019  10.671  19.810  0.00  0.00    +0.000 N 
ATOM      4  C   UNL     1       0.864   9.651  19.367  0.00  0.00    +0.000 A 
ATOM      5  C   UNL     1       1.303   9.632  18.055  0.00  0.00    +0.000 A 
ATOM      6  C   UNL     1       2.115   8.585  17.641  0.00  0.00    +0.000 A 
ATOM      7  C   UNL     1       2.429   7.573  18.542  0.00  0.00    +0.000 A 
ATOM      8  N   UNL     1       2.016   7.662  19.831  0.00  0.00    +0.000 NA
ATOM      9  N   UNL     1       1.259   8.727  20.257  0.00  0.00    +0.000 NA
ATOM     10  H   UNL     1      -0.004  10.776  20.817  0.00  0.00    +0.000 HD
ENDROOT
BRANCH   7  11
ATOM     11  C   UNL     1       3.211   6.378  18.176  0.00  0.00    +0.000 A 
ATOM     12  C   UNL     1       4.335   6.483  17.336  0.00  0.00    +0.000 A 
ATOM     13  C   UNL     1       5.080   5.359  16.974  0.00  0.00    +0.000 A 
ATOM     14  C   UNL     1       4.722   4.101  17.449  0.00  0.00    +0.000 A 
ATOM     15  C   UNL     1       3.623   3.969  18.292  0.00  0.00    +0.000 A 
ATOM     16  C   UNL     1       2.881   5.094  18.655  0.00  0.00    +0.000 A 
ENDBRANCH   7  11
BRANCH   1  17
ATOM     17  C   UNL     1      -1.946  12.061  19.692  0.00  0.00    +0.000 C 
BRANCH  17  30
ATOM     18  C   UNL     1       1.094  15.268  18.920  0.00  0.00    +0.000 C 
ATOM     19  C   UNL     1       0.053  14.198  19.153  0.00  0.00    +0.000 C 
ATOM     20  O   UNL     1      -0.367  13.592  18.165  0.00  0.00    +0.000 OA
ATOM     21  N   UNL     1      -0.385  13.983  20.474  0.00  0.00    +0.000 N 
ATOM     22  C   UNL     1       0.130  14.728  21.541  0.00  0.00    +0.000 C 
ATOM     23  C   UNL     1      -0.397  14.727  22.765  0.00  0.00    +0.000 C 
ATOM     24  C   UNL     1      -1.645  14.025  23.039  0.00  0.00    +0.000 A 
ATOM     25  C   UNL     1      -2.328  14.252  24.245  0.00  0.00    +0.000 A 
ATOM     26  C   UNL     1      -3.535  13.612  24.505  0.00  0.00    +0.000 A 
ATOM     27  C   UNL     1      -4.084  12.777  23.544  0.00  0.00    +0.000 A 
ATOM     28  C   UNL     1      -3.422  12.574  22.330  0.00  0.00    +0.000 A 
ATOM     29  C   UNL     1      -2.169  13.155  22.066  0.00  0.00    +0.000 A 
ATOM     30  C   UNL     1      -1.264  12.796  20.867  0.00  0.00    +0.000 C 
ENDBRANCH  17  30
ENDBRANCH   1  17
TORSDOF 3
ENDMDL
MODEL 9
REMARK VINA RESULT:      -8.0      2.446      9.641
REMARK  Name = 
REMARK  4 active torsions:
REMARK  status: ('A' for Active; 'I' for Inactive)
REMARK    1  A    between atoms: C_1  and  C_2
REMARK    2  A    between atoms: C_13  and  C_14
REMARK    3  A    between atoms: C_14  and  C_15
REMARK    4  A    between atoms: C_21  and  C_22
REMARK                            x       y       z     vdW  Elec       q    Type
REMARK                         _______ _______ _______ _____ _____    ______ ____
ROOT
ATOM      1  C   UNL     1       2.246   7.986  18.869  0.00  0.00    +0.000 C 
ATOM      2  O   UNL     1       1.834   7.928  20.023  0.00  0.00    +0.000 OA
ATOM      3  N   UNL     1       1.650   8.739  17.872  0.00  0.00    +0.000 N 
ATOM      4  C   UNL     1       0.598   9.594  18.210  0.00  0.00    +0.000 A 
ATOM      5  C   UNL     1       0.792  10.604  19.135  0.00  0.00    +0.000 A 
ATOM      6  C   UNL     1      -0.285  11.414  19.470  0.00  0.00    +0.000 A 
ATOM      7  C   UNL     1      -1.528  11.161  18.900  0.00  0.00    +0.000 A 
ATOM      8  N   UNL     1      -1.656  10.190  17.961  0.00  0.00    +0.000 NA
ATOM      9  N   UNL     1      -0.579   9.425  17.585  0.00  0.00    +0.000 NA
ATOM     10  H   UNL     1       1.513   8.245  16.998  0.00  0.00    +0.000 HD
ENDROOT
BRANCH   7  11
ATOM     11  C   UNL     1      -2.748  11.907  19.256  0.00  0.00    +0.000 A 
ATOM     12  C   UNL     1      -3.944  11.715  18.540  0.00  0.00    +0.000 A 
ATOM     13  C   UNL     1      -5.105  12.421  18.860  0.00  0.00    +0.000 A 
ATOM     14  C   UNL     1      -5.100  13.334  19.910  0.00  0.00    +0.000 A 
ATOM     15  C   UNL     1      -3.936  13.534  20.645  0.00  0.00    +0.000 A 
ATOM     16  C   UNL     1      -2.777  12.826  20.325  0.00  0.00    +0.000 A 
ENDBRANCH   7  11
BRANCH   1  17
ATOM     17  C   UNL     1       3.446   7.212  18.371  0.00  0.00    +0.000 C 
BRANCH  17  30
ATOM     18  C   UNL     1       6.193   5.243  15.420  0.00  0.00    +0.000 C 
ATOM     19  C   UNL     1       5.294   5.921  16.429  0.00  0.00    +0.000 C 
ATOM     20  O   UNL     1       5.565   7.082  16.741  0.00  0.00    +0.000 OA
ATOM     21  N   UNL     1       4.226   5.174  16.964  0.00  0.00    +0.000 N 
ATOM     22  C   UNL     1       3.995   3.851  16.570  0.00  0.00    +0.000 C 
ATOM     23  C   UNL     1       3.151   3.031  17.195  0.00  0.00    +0.000 C 
ATOM     24  C   UNL     1       2.491   3.439  18.429  0.00  0.00    +0.000 A 
ATOM     25  C   UNL     1       1.825   2.486  19.216  0.00  0.00    +0.000 A 
ATOM     26  C   UNL     1       1.218   2.857  20.412  0.00  0.00    +0.000 A 
ATOM     27  C   UNL     1       1.311   4.171  20.844  0.00  0.00    +0.000 A 
ATOM     28  C   UNL     1       2.001   5.115  20.077  0.00  0.00    +0.000 A 
ATOM     29  C   UNL     1       2.566   4.784  18.833  0.00  0.00    +0.000 A 
ATOM     30  C   UNL     1       3.128   5.805  17.819  0.00  0.00    +0.000 C 
ENDBRANCH  17  30
ENDBRANCH   1  17
TORSDOF 3
ENDMDL
