MODEL 1
REMARK VINA RESULT:      -7.5      0.000      0.000
REMARK  Name = 
REMARK  6 active torsions:
REMARK  status: ('A' for Active; 'I' for Inactive)
REMARK    1  A    between atoms: C_2  and  C_11
REMARK    2  A    between atoms: N_3  and  C_4
REMARK    3  A    between atoms: C_4  and  C_5
REMARK    4  A    between atoms: C_11  and  C_12
REMARK    5  A    between atoms: C_11  and  N_18
REMARK    6  A    between atoms: C_22  and  C_24
REMARK                            x       y       z     vdW  Elec       q    Type
REMARK                         _______ _______ _______ _____ _____    ______ ____
ROOT
ATOM      1  C   UNL     1      -0.652  10.905  20.855  0.00  0.00    +0.000 C 
ENDROOT
BRANCH   1   2
ATOM      2  N   UNL     1      -0.404  11.540  19.509  0.00  0.00    +0.000 NA
ATOM      3  C   UNL     1      -1.333  12.658  19.210  0.00  0.00    +0.000 C 
ATOM      4  C   UNL     1      -2.804  12.255  19.028  0.00  0.00    +0.000 C 
ATOM      5  N   UNL     1      -3.004  11.162  18.073  0.00  0.00    +0.000 N 
ATOM      6  C   UNL     1      -4.187  10.906  17.366  0.00  0.00    +0.000 C 
ATOM      7  O   UNL     1      -4.270  10.012  16.525  0.00  0.00    +0.000 OA
ATOM      8  C   UNL     1      -2.012  10.082  18.123  0.00  0.00    +0.000 C 
ATOM      9  C   UNL     1      -0.569  10.559  18.398  0.00  0.00    +0.000 C 
BRANCH   6  10
ATOM     10  C   UNL     1      -5.420  11.712  17.606  0.00  0.00    +0.000 A 
ATOM     11  C   UNL     1      -6.119  11.553  18.809  0.00  0.00    +0.000 A 
ATOM     12  C   UNL     1      -7.257  12.315  19.046  0.00  0.00    +0.000 A 
ATOM     13  F   UNL     1      -7.917  12.176  20.203  0.00  0.00    +0.000 F 
ATOM     14  C   UNL     1      -7.727  13.229  18.113  0.00  0.00    +0.000 A 
ATOM     15  C   UNL     1      -7.005  13.411  16.946  0.00  0.00    +0.000 A 
ATOM     16  F   UNL     1      -7.427  14.290  16.028  0.00  0.00    +0.000 F 
ATOM     17  C   UNL     1      -5.839  12.697  16.708  0.00  0.00    +0.000 A 
ENDBRANCH   6  10
ENDBRANCH   1   2
BRANCH   1  18
ATOM     18  C   UNL     1      -1.032  11.901  21.955  0.00  0.00    +0.000 A 
ATOM     19  C   UNL     1      -0.360  13.124  22.120  0.00  0.00    +0.000 A 
ATOM     20  C   UNL     1      -0.836  14.082  23.020  0.00  0.00    +0.000 A 
ATOM     21  C   UNL     1      -1.959  13.811  23.800  0.00  0.00    +0.000 A 
ATOM     22  C   UNL     1      -2.583  12.570  23.710  0.00  0.00    +0.000 A 
ATOM     23  C   UNL     1      -2.120  11.618  22.800  0.00  0.00    +0.000 A 
ENDBRANCH   1  18
BRANCH   1  25
ATOM     24  O   UNL     1       1.507  10.554  21.941  0.00  0.00    +0.000 OA
ATOM     25  C   UNL     1       0.574  10.059  21.308  0.00  0.00    +0.000 C 
ATOM     26  N   UNL     1       0.533   8.726  20.961  0.00  0.00    +0.000 N 
ATOM     27  H   UNL     1      -0.266   8.405  20.425  0.00  0.00    +0.000 HD
BRANCH  26  28
ATOM     28  C   UNL     1       1.579   7.805  21.330  0.00  0.00    +0.000 C 
BRANCH  28  29
ATOM     29  C   UNL     1       1.858   6.816  20.229  0.00  0.00    +0.000 A 
ATOM     30  C   UNL     1       2.303   7.249  18.972  0.00  0.00    +0.000 A 
ATOM     31  C   UNL     1       2.577   6.326  17.960  0.00  0.00    +0.000 A 
ATOM     32  C   UNL     1       2.400   4.963  18.191  0.00  0.00    +0.000 A 
ATOM     33  C   UNL     1       1.942   4.521  19.430  0.00  0.00    +0.000 A 
ATOM     34  C   UNL     1       1.667   5.443  20.442  0.00  0.00    +0.000 A 
ENDBRANCH  28  29
ENDBRANCH  26  28
ENDBRANCH   1  25
TORSDOF 6
ENDMDL
MODEL 2
REMARK VINA RESULT:      -7.5      4.828      8.412
REMARK  Name = 
REMARK  6 active torsions:
REMARK  status: ('A' for Active; 'I' for Inactive)
REMARK    1  A    between atoms: C_2  and  C_11
REMARK    2  A    between atoms: N_3  and  C_4
REMARK    3  A    between atoms: C_4  and  C_5
REMARK    4  A    between atoms: C_11  and  C_12
REMARK    5  A    between atoms: C_11  and  N_18
REMARK    6  A    between atoms: C_22  and  C_24
REMARK                            x       y       z     vdW  Elec       q    Type
REMARK                         _______ _______ _______ _____ _____    ______ ____
ROOT
ATOM      1  C   UNL     1       1.049  11.722  20.338  0.00  0.00    +0.000 C 
ENDROOT
BRANCH   1   2
ATOM      2  N   UNL     1       0.595  11.338  18.951  0.00  0.00    +0.000 NA
ATOM      3  C   UNL     1      -0.085  10.020  18.903  0.00  0.00    +0.000 C 
ATOM      4  C   UNL     1       0.810   8.811  19.215  0.00  0.00    +0.000 C 
ATOM      5  N   UNL     1       2.046   8.772  18.430  0.00  0.00    +0.000 N 
ATOM      6  C   UNL     1       2.793   7.620  18.146  0.00  0.00    +0.000 C 
ATOM      7  O   UNL     1       3.788   7.643  17.421  0.00  0.00    +0.000 OA
ATOM      8  C   UNL     1       2.710  10.063  18.220  0.00  0.00    +0.000 C 
ATOM      9  C   UNL     1       1.740  11.245  18.001  0.00  0.00    +0.000 C 
BRANCH   6  10
ATOM     10  C   UNL     1       2.418   6.295  18.721  0.00  0.00    +0.000 A 
ATOM     11  C   UNL     1       2.598   6.067  20.091  0.00  0.00    +0.000 A 
ATOM     12  C   UNL     1       2.232   4.840  20.635  0.00  0.00    +0.000 A 
ATOM     13  F   UNL     1       2.388   4.627  21.947  0.00  0.00    +0.000 F 
ATOM     14  C   UNL     1       1.697   3.827  19.850  0.00  0.00    +0.000 A 
ATOM     15  C   UNL     1       1.482   4.078  18.505  0.00  0.00    +0.000 A 
ATOM     16  F   UNL     1       0.962   3.125  17.722  0.00  0.00    +0.000 F 
ATOM     17  C   UNL     1       1.794   5.311  17.949  0.00  0.00    +0.000 A 
ENDBRANCH   6  10
ENDBRANCH   1   2
BRANCH   1  18
ATOM     18  C   UNL     1      -0.088  11.850  21.354  0.00  0.00    +0.000 A 
ATOM     19  C   UNL     1      -1.048  12.873  21.279  0.00  0.00    +0.000 A 
ATOM     20  C   UNL     1      -2.166  12.865  22.117  0.00  0.00    +0.000 A 
ATOM     21  C   UNL     1      -2.315  11.864  23.074  0.00  0.00    +0.000 A 
ATOM     22  C   UNL     1      -1.329  10.892  23.219  0.00  0.00    +0.000 A 
ATOM     23  C   UNL     1      -0.220  10.887  22.372  0.00  0.00    +0.000 A 
ENDBRANCH   1  18
BRANCH   1  25
ATOM     24  O   UNL     1       2.722  13.292  21.173  0.00  0.00    +0.000 OA
ATOM     25  C   UNL     1       1.883  13.036  20.309  0.00  0.00    +0.000 C 
ATOM     26  N   UNL     1       1.622  13.879  19.250  0.00  0.00    +0.000 N 
ATOM     27  H   UNL     1       0.903  13.598  18.594  0.00  0.00    +0.000 HD
BRANCH  26  28
ATOM     28  C   UNL     1       2.329  15.122  19.067  0.00  0.00    +0.000 C 
BRANCH  28  29
ATOM     29  C   UNL     1       1.436  16.186  18.486  0.00  0.00    +0.000 A 
ATOM     30  C   UNL     1       1.969  17.220  17.702  0.00  0.00    +0.000 A 
ATOM     31  C   UNL     1       1.133  18.194  17.152  0.00  0.00    +0.000 A 
ATOM     32  C   UNL     1      -0.240  18.152  17.388  0.00  0.00    +0.000 A 
ATOM     33  C   UNL     1      -0.779  17.140  18.180  0.00  0.00    +0.000 A 
ATOM     34  C   UNL     1       0.055  16.165  18.731  0.00  0.00    +0.000 A 
ENDBRANCH  28  29
ENDBRANCH  26  28
ENDBRANCH   1  25
TORSDOF 6
ENDMDL
MODEL 3
REMARK VINA RESULT:      -7.5      4.800      8.526
REMARK  Name = 
REMARK  6 active torsions:
REMARK  status: ('A' for Active; 'I' for Inactive)
REMARK    1  A    between atoms: C_2  and  C_11
REMARK    2  A    between atoms: N_3  and  C_4
REMARK    3  A    between atoms: C_4  and  C_5
REMARK    4  A    between atoms: C_11  and  C_12
REMARK    5  A    between atoms: C_11  and  N_18
REMARK    6  A    between atoms: C_22  and  C_24
REMARK                            x       y       z     vdW  Elec       q    Type
REMARK                         _______ _______ _______ _____ _____    ______ ____
ROOT
ATOM      1  C   UNL     1       0.859  11.737  20.270  0.00  0.00    +0.000 C 
ENDROOT
BRANCH   1   2
ATOM      2  N   UNL     1       0.476  11.340  18.865  0.00  0.00    +0.000 NA
ATOM      3  C   UNL     1      -0.175  10.009  18.792  0.00  0.00    +0.000 C 
ATOM      4  C   UNL     1       0.727   8.818  19.150  0.00  0.00    +0.000 C 
ATOM      5  N   UNL     1       1.999   8.801  18.422  0.00  0.00    +0.000 N 
ATOM      6  C   UNL     1       2.780   7.663  18.177  0.00  0.00    +0.000 C 
ATOM      7  O   UNL     1       3.806   7.703  17.499  0.00  0.00    +0.000 OA
ATOM      8  C   UNL     1       2.646  10.104  18.237  0.00  0.00    +0.000 C 
ATOM      9  C   UNL     1       1.665  11.267  17.970  0.00  0.00    +0.000 C 
BRANCH   6  10
ATOM     10  C   UNL     1       2.404   6.333  18.740  0.00  0.00    +0.000 A 
ATOM     11  C   UNL     1       1.963   5.323  17.876  0.00  0.00    +0.000 A 
ATOM     12  C   UNL     1       1.629   4.076  18.393  0.00  0.00    +0.000 A 
ATOM     13  F   UNL     1       1.224   3.105  17.565  0.00  0.00    +0.000 F 
ATOM     14  C   UNL     1       1.714   3.806  19.752  0.00  0.00    +0.000 A 
ATOM     15  C   UNL     1       2.194   4.797  20.593  0.00  0.00    +0.000 A 
ATOM     16  F   UNL     1       2.294   4.566  21.908  0.00  0.00    +0.000 F 
ATOM     17  C   UNL     1       2.578   6.034  20.094  0.00  0.00    +0.000 A 
ENDBRANCH   6  10
ENDBRANCH   1   2
BRANCH   1  18
ATOM     18  C   UNL     1      -0.331  11.900  21.219  0.00  0.00    +0.000 A 
ATOM     19  C   UNL     1      -0.570  11.008  22.279  0.00  0.00    +0.000 A 
ATOM     20  C   UNL     1      -1.561  11.276  23.226  0.00  0.00    +0.000 A 
ATOM     21  C   UNL     1      -2.359  12.412  23.101  0.00  0.00    +0.000 A 
ATOM     22  C   UNL     1      -2.192  13.259  22.009  0.00  0.00    +0.000 A 
ATOM     23  C   UNL     1      -1.191  13.003  21.071  0.00  0.00    +0.000 A 
ENDBRANCH   1  18
BRANCH   1  25
ATOM     24  O   UNL     1       2.567  13.255  21.132  0.00  0.00    +0.000 OA
ATOM     25  C   UNL     1       1.716  13.037  20.269  0.00  0.00    +0.000 C 
ATOM     26  N   UNL     1       1.461  13.913  19.237  0.00  0.00    +0.000 N 
ATOM     27  H   UNL     1       0.731  13.663  18.579  0.00  0.00    +0.000 HD
BRANCH  26  28
ATOM     28  C   UNL     1       2.188  15.148  19.080  0.00  0.00    +0.000 C 
BRANCH  28  29
ATOM     29  C   UNL     1       1.321  16.231  18.494  0.00  0.00    +0.000 A 
ATOM     30  C   UNL     1       1.877  17.240  17.695  0.00  0.00    +0.000 A 
ATOM     31  C   UNL     1       1.066  18.232  17.140  0.00  0.00    +0.000 A 
ATOM     32  C   UNL     1      -0.306  18.230  17.385  0.00  0.00    +0.000 A 
ATOM     33  C   UNL     1      -0.868  17.243  18.192  0.00  0.00    +0.000 A 
ATOM     34  C   UNL     1      -0.058  16.252  18.748  0.00  0.00    +0.000 A 
ENDBRANCH  28  29
ENDBRANCH  26  28
ENDBRANCH   1  25
TORSDOF 6
ENDMDL
MODEL 4
REMARK VINA RESULT:      -7.4      1.878      2.844
REMARK  Name = 
REMARK  6 active torsions:
REMARK  status: ('A' for Active; 'I' for Inactive)
REMARK    1  A    between atoms: C_2  and  C_11
REMARK    2  A    between atoms: N_3  and  C_4
REMARK    3  A    between atoms: C_4  and  C_5
REMARK    4  A    between atoms: C_11  and  C_12
REMARK    5  A    between atoms: C_11  and  N_18
REMARK    6  A    between atoms: C_22  and  C_24
REMARK                            x       y       z     vdW  Elec       q    Type
REMARK                         _______ _______ _______ _____ _____    ______ ____
ROOT
ATOM      1  C   UNL     1      -0.210  10.236  18.879  0.00  0.00    +0.000 C 
ENDROOT
BRANCH   1   2
ATOM      2  N   UNL     1      -0.810  10.769  17.601  0.00  0.00    +0.000 NA
ATOM      3  C   UNL     1      -1.449  12.097  17.766  0.00  0.00    +0.000 C 
ATOM      4  C   UNL     1      -2.703  12.114  18.654  0.00  0.00    +0.000 C 
ATOM      5  N   UNL     1      -3.705  11.112  18.281  0.00  0.00    +0.000 N 
ATOM      6  C   UNL     1      -5.075  11.187  18.566  0.00  0.00    +0.000 C 
ATOM      7  O   UNL     1      -5.878  10.345  18.165  0.00  0.00    +0.000 OA
ATOM      8  C   UNL     1      -3.179   9.801  17.884  0.00  0.00    +0.000 C 
ATOM      9  C   UNL     1      -1.869   9.865  17.069  0.00  0.00    +0.000 C 
BRANCH   6  10
ATOM     10  C   UNL     1      -5.633  12.303  19.385  0.00  0.00    +0.000 A 
ATOM     11  C   UNL     1      -6.243  13.387  18.742  0.00  0.00    +0.000 A 
ATOM     12  C   UNL     1      -6.781  14.420  19.501  0.00  0.00    +0.000 A 
ATOM     13  F   UNL     1      -7.380  15.449  18.888  0.00  0.00    +0.000 F 
ATOM     14  C   UNL     1      -6.723  14.410  20.889  0.00  0.00    +0.000 A 
ATOM     15  C   UNL     1      -6.157  13.313  21.517  0.00  0.00    +0.000 A 
ATOM     16  F   UNL     1      -6.091  13.269  22.853  0.00  0.00    +0.000 F 
ATOM     17  C   UNL     1      -5.656  12.247  20.782  0.00  0.00    +0.000 A 
ENDBRANCH   6  10
ENDBRANCH   1   2
BRANCH   1  18
ATOM     18  C   UNL     1       0.148  11.318  19.900  0.00  0.00    +0.000 A 
ATOM     19  C   UNL     1       1.144  12.279  19.654  0.00  0.00    +0.000 A 
ATOM     20  C   UNL     1       1.331  13.352  20.529  0.00  0.00    +0.000 A 
ATOM     21  C   UNL     1       0.562  13.453  21.686  0.00  0.00    +0.000 A 
ATOM     22  C   UNL     1      -0.369  12.462  21.988  0.00  0.00    +0.000 A 
ATOM     23  C   UNL     1      -0.570  11.399  21.107  0.00  0.00    +0.000 A 
ENDBRANCH   1  18
BRANCH   1  25
ATOM     24  O   UNL     1       1.705   9.492  17.561  0.00  0.00    +0.000 OA
ATOM     25  C   UNL     1       1.037   9.352  18.585  0.00  0.00    +0.000 C 
ATOM     26  N   UNL     1       1.340   8.416  19.551  0.00  0.00    +0.000 N 
ATOM     27  H   UNL     1       0.726   8.357  20.356  0.00  0.00    +0.000 HD
BRANCH  26  28
ATOM     28  C   UNL     1       2.479   7.540  19.439  0.00  0.00    +0.000 C 
BRANCH  28  29
ATOM     29  C   UNL     1       2.061   6.095  19.370  0.00  0.00    +0.000 A 
ATOM     30  C   UNL     1       1.627   5.418  20.519  0.00  0.00    +0.000 A 
ATOM     31  C   UNL     1       1.225   4.083  20.445  0.00  0.00    +0.000 A 
ATOM     32  C   UNL     1       1.261   3.409  19.225  0.00  0.00    +0.000 A 
ATOM     33  C   UNL     1       1.707   4.065  18.080  0.00  0.00    +0.000 A 
ATOM     34  C   UNL     1       2.111   5.399  18.153  0.00  0.00    +0.000 A 
ENDBRANCH  28  29
ENDBRANCH  26  28
ENDBRANCH   1  25
TORSDOF 6
ENDMDL
MODEL 5
REMARK VINA RESULT:      -7.3      1.788      2.356
REMARK  Name = 
REMARK  6 active torsions:
REMARK  status: ('A' for Active; 'I' for Inactive)
REMARK    1  A    between atoms: C_2  and  C_11
REMARK    2  A    between atoms: N_3  and  C_4
REMARK    3  A    between atoms: C_4  and  C_5
REMARK    4  A    between atoms: C_11  and  C_12
REMARK    5  A    between atoms: C_11  and  N_18
REMARK    6  A    between atoms: C_22  and  C_24
REMARK                            x       y       z     vdW  Elec       q    Type
REMARK                         _______ _______ _______ _____ _____    ______ ____
ROOT
ATOM      1  C   UNL     1      -0.358  10.225  19.026  0.00  0.00    +0.000 C 
ENDROOT
BRANCH   1   2
ATOM      2  N   UNL     1      -0.895  10.791  17.734  0.00  0.00    +0.000 NA
ATOM      3  C   UNL     1      -1.540  12.116  17.901  0.00  0.00    +0.000 C 
ATOM      4  C   UNL     1      -2.835  12.113  18.728  0.00  0.00    +0.000 C 
ATOM      5  N   UNL     1      -3.819  11.122  18.282  0.00  0.00    +0.000 N 
ATOM      6  C   UNL     1      -5.201  11.193  18.503  0.00  0.00    +0.000 C 
ATOM      7  O   UNL     1      -5.984  10.362  18.043  0.00  0.00    +0.000 OA
ATOM      8  C   UNL     1      -3.275   9.821  17.878  0.00  0.00    +0.000 C 
ATOM      9  C   UNL     1      -1.927   9.903  17.129  0.00  0.00    +0.000 C 
BRANCH   6  10
ATOM     10  C   UNL     1      -5.797  12.289  19.323  0.00  0.00    +0.000 A 
ATOM     11  C   UNL     1      -5.798  12.178  20.719  0.00  0.00    +0.000 A 
ATOM     12  C   UNL     1      -6.335  13.204  21.487  0.00  0.00    +0.000 A 
ATOM     13  F   UNL     1      -6.321  13.107  22.823  0.00  0.00    +0.000 F 
ATOM     14  C   UNL     1      -6.881  14.340  20.904  0.00  0.00    +0.000 A 
ATOM     15  C   UNL     1      -6.836  14.460  19.525  0.00  0.00    +0.000 A 
ATOM     16  F   UNL     1      -7.348  15.546  18.932  0.00  0.00    +0.000 F 
ATOM     17  C   UNL     1      -6.262  13.471  18.739  0.00  0.00    +0.000 A 
ENDBRANCH   6  10
ENDBRANCH   1   2
BRANCH   1  18
ATOM     18  C   UNL     1      -0.069  11.279  20.097  0.00  0.00    +0.000 A 
ATOM     19  C   UNL     1       0.883  12.295  19.910  0.00  0.00    +0.000 A 
ATOM     20  C   UNL     1       1.004  13.337  20.832  0.00  0.00    +0.000 A 
ATOM     21  C   UNL     1       0.211  13.352  21.978  0.00  0.00    +0.000 A 
ATOM     22  C   UNL     1      -0.675  12.307  22.221  0.00  0.00    +0.000 A 
ATOM     23  C   UNL     1      -0.810  11.273  21.293  0.00  0.00    +0.000 A 
ENDBRANCH   1  18
BRANCH   1  25
ATOM     24  O   UNL     1       1.578   9.474  17.740  0.00  0.00    +0.000 OA
ATOM     25  C   UNL     1       0.915   9.365  18.772  0.00  0.00    +0.000 C 
ATOM     26  N   UNL     1       1.247   8.487  19.782  0.00  0.00    +0.000 N 
ATOM     27  H   UNL     1       0.636   8.450  20.590  0.00  0.00    +0.000 HD
BRANCH  26  28
ATOM     28  C   UNL     1       2.412   7.641  19.711  0.00  0.00    +0.000 C 
BRANCH  28  29
ATOM     29  C   UNL     1       2.037   6.202  19.475  0.00  0.00    +0.000 A 
ATOM     30  C   UNL     1       1.578   5.399  20.529  0.00  0.00    +0.000 A 
ATOM     31  C   UNL     1       1.215   4.070  20.301  0.00  0.00    +0.000 A 
ATOM     32  C   UNL     1       1.317   3.527  19.021  0.00  0.00    +0.000 A 
ATOM     33  C   UNL     1       1.789   4.310  17.969  0.00  0.00    +0.000 A 
ATOM     34  C   UNL     1       2.152   5.638  18.196  0.00  0.00    +0.000 A 
ENDBRANCH  28  29
ENDBRANCH  26  28
ENDBRANCH   1  25
TORSDOF 6
ENDMDL
MODEL 6
REMARK VINA RESULT:      -7.3      4.585      8.464
REMARK  Name = 
REMARK  6 active torsions:
REMARK  status: ('A' for Active; 'I' for Inactive)
REMARK    1  A    between atoms: C_2  and  C_11
REMARK    2  A    between atoms: N_3  and  C_4
REMARK    3  A    between atoms: C_4  and  C_5
REMARK    4  A    between atoms: C_11  and  C_12
REMARK    5  A    between atoms: C_11  and  N_18
REMARK    6  A    between atoms: C_22  and  C_24
REMARK                            x       y       z     vdW  Elec       q    Type
REMARK                         _______ _______ _______ _____ _____    ______ ____
ROOT
ATOM      1  C   UNL     1       0.662  11.751  20.252  0.00  0.00    +0.000 C 
ENDROOT
BRANCH   1   2
ATOM      2  N   UNL     1       0.373  11.379  18.818  0.00  0.00    +0.000 NA
ATOM      3  C   UNL     1      -0.233  10.033  18.676  0.00  0.00    +0.000 C 
ATOM      4  C   UNL     1       0.683   8.859  19.056  0.00  0.00    +0.000 C 
ATOM      5  N   UNL     1       1.994   8.897  18.404  0.00  0.00    +0.000 N 
ATOM      6  C   UNL     1       2.822   7.788  18.178  0.00  0.00    +0.000 C 
ATOM      7  O   UNL     1       3.884   7.875  17.562  0.00  0.00    +0.000 OA
ATOM      8  C   UNL     1       2.612  10.222  18.289  0.00  0.00    +0.000 C 
ATOM      9  C   UNL     1       1.613  11.363  17.992  0.00  0.00    +0.000 C 
BRANCH   6  10
ATOM     10  C   UNL     1       2.454   6.434  18.686  0.00  0.00    +0.000 A 
ATOM     11  C   UNL     1       2.592   6.153  20.051  0.00  0.00    +0.000 A 
ATOM     12  C   UNL     1       2.233   4.899  20.532  0.00  0.00    +0.000 A 
ATOM     13  F   UNL     1       2.348   4.635  21.840  0.00  0.00    +0.000 F 
ATOM     14  C   UNL     1       1.746   3.909  19.689  0.00  0.00    +0.000 A 
ATOM     15  C   UNL     1       1.572   4.210  18.349  0.00  0.00    +0.000 A 
ATOM     16  F   UNL     1       1.099   3.280  17.511  0.00  0.00    +0.000 F 
ATOM     17  C   UNL     1       1.878   5.470  17.854  0.00  0.00    +0.000 A 
ENDBRANCH   6  10
ENDBRANCH   1   2
BRANCH   1  18
ATOM     18  C   UNL     1      -0.589  11.922  21.118  0.00  0.00    +0.000 A 
ATOM     19  C   UNL     1      -0.657  11.444  22.437  0.00  0.00    +0.000 A 
ATOM     20  C   UNL     1      -1.744  11.763  23.255  0.00  0.00    +0.000 A 
ATOM     21  C   UNL     1      -2.800  12.520  22.751  0.00  0.00    +0.000 A 
ATOM     22  C   UNL     1      -2.788  12.927  21.420  0.00  0.00    +0.000 A 
ATOM     23  C   UNL     1      -1.695  12.625  20.606  0.00  0.00    +0.000 A 
ENDBRANCH   1  18
BRANCH   1  25
ATOM     24  O   UNL     1       2.478  13.133  21.121  0.00  0.00    +0.000 OA
ATOM     25  C   UNL     1       1.539  13.035  20.331  0.00  0.00    +0.000 C 
ATOM     26  N   UNL     1       1.196  14.040  19.452  0.00  0.00    +0.000 N 
ATOM     27  H   UNL     1       0.398  13.882  18.847  0.00  0.00    +0.000 HD
BRANCH  26  28
ATOM     28  C   UNL     1       1.927  15.281  19.383  0.00  0.00    +0.000 C 
BRANCH  28  29
ATOM     29  C   UNL     1       1.159  16.334  18.628  0.00  0.00    +0.000 A 
ATOM     30  C   UNL     1      -0.236  16.426  18.746  0.00  0.00    +0.000 A 
ATOM     31  C   UNL     1      -0.941  17.415  18.058  0.00  0.00    +0.000 A 
ATOM     32  C   UNL     1      -0.262  18.315  17.237  0.00  0.00    +0.000 A 
ATOM     33  C   UNL     1       1.121  18.222  17.097  0.00  0.00    +0.000 A 
ATOM     34  C   UNL     1       1.827  17.233  17.785  0.00  0.00    +0.000 A 
ENDBRANCH  28  29
ENDBRANCH  26  28
ENDBRANCH   1  25
TORSDOF 6
ENDMDL
MODEL 7
REMARK VINA RESULT:      -7.3      4.376      8.405
REMARK  Name = 
REMARK  6 active torsions:
REMARK  status: ('A' for Active; 'I' for Inactive)
REMARK    1  A    between atoms: C_2  and  C_11
REMARK    2  A    between atoms: N_3  and  C_4
REMARK    3  A    between atoms: C_4  and  C_5
REMARK    4  A    between atoms: C_11  and  C_12
REMARK    5  A    between atoms: C_11  and  N_18
REMARK    6  A    between atoms: C_22  and  C_24
REMARK                            x       y       z     vdW  Elec       q    Type
REMARK                         _______ _______ _______ _____ _____    ______ ____
ROOT
ATOM      1  C   UNL     1      -0.024  12.029  20.518  0.00  0.00    +0.000 C 
ENDROOT
BRANCH   1   2
ATOM      2  N   UNL     1      -0.308  11.698  19.073  0.00  0.00    +0.000 NA
ATOM      3  C   UNL     1      -0.778  10.305  18.875  0.00  0.00    +0.000 C 
ATOM      4  C   UNL     1       0.260   9.214  19.180  0.00  0.00    +0.000 C 
ATOM      5  N   UNL     1       1.545   9.416  18.505  0.00  0.00    +0.000 N 
ATOM      6  C   UNL     1       2.474   8.410  18.210  0.00  0.00    +0.000 C 
ATOM      7  O   UNL     1       3.507   8.633  17.578  0.00  0.00    +0.000 OA
ATOM      8  C   UNL     1       2.023  10.802  18.444  0.00  0.00    +0.000 C 
ATOM      9  C   UNL     1       0.907  11.847  18.223  0.00  0.00    +0.000 C 
BRANCH   6  10
ATOM     10  C   UNL     1       2.257   7.002  18.656  0.00  0.00    +0.000 A 
ATOM     11  C   UNL     1       2.034   6.006  17.698  0.00  0.00    +0.000 A 
ATOM     12  C   UNL     1       1.850   4.690  18.108  0.00  0.00    +0.000 A 
ATOM     13  F   UNL     1       1.653   3.734  17.192  0.00  0.00    +0.000 F 
ATOM     14  C   UNL     1       1.873   4.337  19.451  0.00  0.00    +0.000 A 
ATOM     15  C   UNL     1       2.139   5.321  20.388  0.00  0.00    +0.000 A 
ATOM     16  F   UNL     1       2.175   5.013  21.690  0.00  0.00    +0.000 F 
ATOM     17  C   UNL     1       2.373   6.633  20.000  0.00  0.00    +0.000 A 
ENDBRANCH   6  10
ENDBRANCH   1   2
BRANCH   1  18
ATOM     18  C   UNL     1      -1.278  12.287  21.358  0.00  0.00    +0.000 A 
ATOM     19  C   UNL     1      -2.452  12.825  20.805  0.00  0.00    +0.000 A 
ATOM     20  C   UNL     1      -3.628  12.891  21.555  0.00  0.00    +0.000 A 
ATOM     21  C   UNL     1      -3.635  12.466  22.882  0.00  0.00    +0.000 A 
ATOM     22  C   UNL     1      -2.459  12.011  23.471  0.00  0.00    +0.000 A 
ATOM     23  C   UNL     1      -1.286  11.927  22.718  0.00  0.00    +0.000 A 
ENDBRANCH   1  18
BRANCH   1  25
ATOM     24  O   UNL     1       2.023  13.156  21.226  0.00  0.00    +0.000 OA
ATOM     25  C   UNL     1       0.948  13.240  20.633  0.00  0.00    +0.000 C 
ATOM     26  N   UNL     1       0.524  14.399  20.020  0.00  0.00    +0.000 N 
ATOM     27  H   UNL     1      -0.384  14.385  19.567  0.00  0.00    +0.000 HD
BRANCH  26  28
ATOM     28  C   UNL     1       1.321  15.600  20.013  0.00  0.00    +0.000 C 
BRANCH  28  29
ATOM     29  C   UNL     1       0.903  16.536  18.910  0.00  0.00    +0.000 A 
ATOM     30  C   UNL     1      -0.453  16.794  18.665  0.00  0.00    +0.000 A 
ATOM     31  C   UNL     1      -0.834  17.676  17.652  0.00  0.00    +0.000 A 
ATOM     32  C   UNL     1       0.134  18.301  16.868  0.00  0.00    +0.000 A 
ATOM     33  C   UNL     1       1.484  18.038  17.090  0.00  0.00    +0.000 A 
ATOM     34  C   UNL     1       1.867  17.156  18.102  0.00  0.00    +0.000 A 
ENDBRANCH  28  29
ENDBRANCH  26  28
ENDBRANCH   1  25
TORSDOF 6
ENDMDL
MODEL 8
REMARK VINA RESULT:      -7.1      7.318      8.882
REMARK  Name = 
REMARK  6 active torsions:
REMARK  status: ('A' for Active; 'I' for Inactive)
REMARK    1  A    between atoms: C_2  and  C_11
REMARK    2  A    between atoms: N_3  and  C_4
REMARK    3  A    between atoms: C_4  and  C_5
REMARK    4  A    between atoms: C_11  and  C_12
REMARK    5  A    between atoms: C_11  and  N_18
REMARK    6  A    between atoms: C_22  and  C_24
REMARK                            x       y       z     vdW  Elec       q    Type
REMARK                         _______ _______ _______ _____ _____    ______ ____
ROOT
ATOM      1  C   UNL     1       6.656  13.570  22.900  0.00  0.00    +0.000 C 
ENDROOT
BRANCH   1   2
ATOM      2  N   UNL     1       6.237  15.005  22.697  0.00  0.00    +0.000 NA
ATOM      3  C   UNL     1       4.765  15.182  22.653  0.00  0.00    +0.000 C 
ATOM      4  C   UNL     1       4.065  14.546  21.442  0.00  0.00    +0.000 C 
ATOM      5  N   UNL     1       4.659  14.915  20.155  0.00  0.00    +0.000 N 
ATOM      6  C   UNL     1       3.998  14.894  18.918  0.00  0.00    +0.000 C 
ATOM      7  O   UNL     1       4.533  15.282  17.880  0.00  0.00    +0.000 OA
ATOM      8  C   UNL     1       6.124  14.987  20.125  0.00  0.00    +0.000 C 
ATOM      9  C   UNL     1       6.757  15.556  21.413  0.00  0.00    +0.000 C 
BRANCH   6  10
ATOM     10  C   UNL     1       2.600  14.386  18.799  0.00  0.00    +0.000 A 
ATOM     11  C   UNL     1       2.381  13.009  18.662  0.00  0.00    +0.000 A 
ATOM     12  C   UNL     1       1.079  12.529  18.570  0.00  0.00    +0.000 A 
ATOM     13  F   UNL     1       0.867  11.212  18.456  0.00  0.00    +0.000 F 
ATOM     14  C   UNL     1      -0.015  13.383  18.601  0.00  0.00    +0.000 A 
ATOM     15  C   UNL     1       0.210  14.738  18.781  0.00  0.00    +0.000 A 
ATOM     16  F   UNL     1      -0.824  15.588  18.822  0.00  0.00    +0.000 F 
ATOM     17  C   UNL     1       1.498  15.236  18.924  0.00  0.00    +0.000 A 
ENDBRANCH   6  10
ENDBRANCH   1   2
BRANCH   1  18
ATOM     18  C   UNL     1       6.237  12.981  24.250  0.00  0.00    +0.000 A 
ATOM     19  C   UNL     1       5.928  13.791  25.355  0.00  0.00    +0.000 A 
ATOM     20  C   UNL     1       5.388  13.234  26.517  0.00  0.00    +0.000 A 
ATOM     21  C   UNL     1       5.196  11.857  26.609  0.00  0.00    +0.000 A 
ATOM     22  C   UNL     1       5.579  11.032  25.555  0.00  0.00    +0.000 A 
ATOM     23  C   UNL     1       6.102  11.588  24.385  0.00  0.00    +0.000 A 
ENDBRANCH   1  18
BRANCH   1  25
ATOM     24  O   UNL     1       9.005  14.053  23.364  0.00  0.00    +0.000 OA
ATOM     25  C   UNL     1       8.192  13.404  22.705  0.00  0.00    +0.000 C 
ATOM     26  N   UNL     1       8.571  12.480  21.755  0.00  0.00    +0.000 N 
ATOM     27  H   UNL     1       7.836  12.002  21.247  0.00  0.00    +0.000 HD
BRANCH  26  28
ATOM     28  C   UNL     1       9.956  12.191  21.476  0.00  0.00    +0.000 C 
BRANCH  28  29
ATOM     29  C   UNL     1      10.255  12.292  20.003  0.00  0.00    +0.000 A 
ATOM     30  C   UNL     1      11.440  11.759  19.475  0.00  0.00    +0.000 A 
ATOM     31  C   UNL     1      11.705  11.842  18.106  0.00  0.00    +0.000 A 
ATOM     32  C   UNL     1      10.794  12.465  17.254  0.00  0.00    +0.000 A 
ATOM     33  C   UNL     1       9.623  13.015  17.770  0.00  0.00    +0.000 A 
ATOM     34  C   UNL     1       9.357  12.934  19.138  0.00  0.00    +0.000 A 
ENDBRANCH  28  29
ENDBRANCH  26  28
ENDBRANCH   1  25
TORSDOF 6
ENDMDL
MODEL 9
REMARK VINA RESULT:      -7.1      5.469      8.949
REMARK  Name = 
REMARK  6 active torsions:
REMARK  status: ('A' for Active; 'I' for Inactive)
REMARK    1  A    between atoms: C_2  and  C_11
REMARK    2  A    between atoms: N_3  and  C_4
REMARK    3  A    between atoms: C_4  and  C_5
REMARK    4  A    between atoms: C_11  and  C_12
REMARK    5  A    between atoms: C_11  and  N_18
REMARK    6  A    between atoms: C_22  and  C_24
REMARK                            x       y       z     vdW  Elec       q    Type
REMARK                         _______ _______ _______ _____ _____    ______ ____
ROOT
ATOM      1  C   UNL     1      -0.415  12.787  20.604  0.00  0.00    +0.000 C 
ENDROOT
BRANCH   1   2
ATOM      2  N   UNL     1      -0.191  12.788  19.111  0.00  0.00    +0.000 NA
ATOM      3  C   UNL     1       1.179  12.368  18.727  0.00  0.00    +0.000 C 
ATOM      4  C   UNL     1       2.301  13.330  19.147  0.00  0.00    +0.000 C 
ATOM      5  N   UNL     1       2.066  14.721  18.750  0.00  0.00    +0.000 N 
ATOM      6  C   UNL     1       3.060  15.692  18.567  0.00  0.00    +0.000 C 
ATOM      7  O   UNL     1       2.804  16.827  18.164  0.00  0.00    +0.000 OA
ATOM      8  C   UNL     1       0.685  15.198  18.881  0.00  0.00    +0.000 C 
ATOM      9  C   UNL     1      -0.386  14.144  18.525  0.00  0.00    +0.000 C 
BRANCH   6  10
ATOM     10  C   UNL     1       4.493  15.397  18.862  0.00  0.00    +0.000 A 
ATOM     11  C   UNL     1       4.984  15.607  20.156  0.00  0.00    +0.000 A 
ATOM     12  C   UNL     1       6.313  15.315  20.440  0.00  0.00    +0.000 A 
ATOM     13  F   UNL     1       6.779  15.500  21.682  0.00  0.00    +0.000 F 
ATOM     14  C   UNL     1       7.174  14.826  19.468  0.00  0.00    +0.000 A 
ATOM     15  C   UNL     1       6.669  14.579  18.202  0.00  0.00    +0.000 A 
ATOM     16  F   UNL     1       7.471  14.100  17.244  0.00  0.00    +0.000 F 
ATOM     17  C   UNL     1       5.333  14.817  17.907  0.00  0.00    +0.000 A 
ENDBRANCH   6  10
ENDBRANCH   1   2
BRANCH   1  18
ATOM     18  C   UNL     1      -0.470  11.389  21.226  0.00  0.00    +0.000 A 
ATOM     19  C   UNL     1      -0.270  10.224  20.468  0.00  0.00    +0.000 A 
ATOM     20  C   UNL     1      -0.158   8.978  21.091  0.00  0.00    +0.000 A 
ATOM     21  C   UNL     1      -0.293   8.874  22.474  0.00  0.00    +0.000 A 
ATOM     22  C   UNL     1      -0.578  10.007  23.230  0.00  0.00    +0.000 A 
ATOM     23  C   UNL     1      -0.672  11.256  22.612  0.00  0.00    +0.000 A 
ENDBRANCH   1  18
BRANCH   1  25
ATOM     24  O   UNL     1      -1.653  14.630  21.620  0.00  0.00    +0.000 OA
ATOM     25  C   UNL     1      -1.701  13.582  20.976  0.00  0.00    +0.000 C 
ATOM     26  N   UNL     1      -2.885  13.036  20.528  0.00  0.00    +0.000 N 
ATOM     27  H   UNL     1      -2.834  12.161  20.018  0.00  0.00    +0.000 HD
BRANCH  26  28
ATOM     28  C   UNL     1      -4.159  13.666  20.766  0.00  0.00    +0.000 C 
BRANCH  28  29
ATOM     29  C   UNL     1      -5.301  12.715  20.521  0.00  0.00    +0.000 A 
ATOM     30  C   UNL     1      -5.371  11.971  19.335  0.00  0.00    +0.000 A 
ATOM     31  C   UNL     1      -6.423  11.078  19.120  0.00  0.00    +0.000 A 
ATOM     32  C   UNL     1      -7.420  10.928  20.084  0.00  0.00    +0.000 A 
ATOM     33  C   UNL     1      -7.371  11.675  21.258  0.00  0.00    +0.000 A 
ATOM     34  C   UNL     1      -6.320  12.569  21.474  0.00  0.00    +0.000 A 
ENDBRANCH  28  29
ENDBRANCH  26  28
ENDBRANCH   1  25
TORSDOF 6
ENDMDL
