MODEL 1
REMARK VINA RESULT:      -9.7      0.000      0.000
REMARK  Name = 
REMARK  4 active torsions:
REMARK  status: ('A' for Active; 'I' for Inactive)
REMARK    1  A    between atoms: C_1  and  S_2
REMARK    2  A    between atoms: S_2  and  C_5
REMARK    3  A    between atoms: C_9  and  N_10
REMARK    4  A    between atoms: C_16  and  C_17
REMARK                            x       y       z     vdW  Elec       q    Type
REMARK                         _______ _______ _______ _____ _____    ______ ____
ROOT
ATOM      1  N   UNL     1       2.492   6.970  18.742  0.00  0.00    +0.000 N 
ATOM      2  C   UNL     1       2.266   8.220  18.223  0.00  0.00    +0.000 C 
ATOM      3  O   UNL     1       2.663   8.563  17.114  0.00  0.00    +0.000 OA
ATOM      4  N   UNL     1       1.546   9.119  19.005  0.00  0.00    +0.000 N 
ATOM      5  C   UNL     1       1.128  10.368  18.341  0.00  0.00    +0.000 C 
ATOM      6  C   UNL     1       1.231  11.576  19.278  0.00  0.00    +0.000 C 
ATOM      7  C   UNL     1       0.467  11.377  20.620  0.00  0.00    +0.000 C 
ATOM      8  C   UNL     1       1.019  10.075  21.226  0.00  0.00    +0.000 C 
ATOM      9  C   UNL     1       0.932   8.853  20.290  0.00  0.00    +0.000 C 
ATOM     10  H   UNL     1       1.828   6.595  19.414  0.00  0.00    +0.000 HD
ENDROOT
BRANCH   7  11
ATOM     11  C   UNL     1      -1.044  11.601  20.442  0.00  0.00    +0.000 A 
ATOM     12  C   UNL     1      -1.678  12.300  21.502  0.00  0.00    +0.000 A 
ATOM     13  C   UNL     1      -2.977  12.781  21.397  0.00  0.00    +0.000 A 
ATOM     14  C   UNL     1      -3.618  12.695  20.174  0.00  0.00    +0.000 A 
ATOM     15  C   UNL     1      -3.054  11.935  19.143  0.00  0.00    +0.000 A 
ATOM     16  C   UNL     1      -3.731  11.827  17.928  0.00  0.00    +0.000 A 
ATOM     17  C   UNL     1      -3.684  10.649  17.209  0.00  0.00    +0.000 A 
ATOM     18  C   UNL     1      -2.664   9.763  17.493  0.00  0.00    +0.000 A 
ATOM     19  C   UNL     1      -1.698  10.104  18.456  0.00  0.00    +0.000 A 
ATOM     20  C   UNL     1      -1.869  11.203  19.344  0.00  0.00    +0.000 A 
ENDBRANCH   7  11
BRANCH   1  25
ATOM     21  C   UNL     1       5.579   5.213  17.566  0.00  0.00    +0.000 A 
ATOM     22  C   UNL     1       5.077   3.988  17.125  0.00  0.00    +0.000 A 
ATOM     23  C   UNL     1       3.708   3.765  17.169  0.00  0.00    +0.000 A 
ATOM     24  C   UNL     1       2.857   4.755  17.671  0.00  0.00    +0.000 A 
ATOM     25  C   UNL     1       3.345   5.984  18.158  0.00  0.00    +0.000 A 
ATOM     26  C   UNL     1       4.726   6.217  18.063  0.00  0.00    +0.000 A 
BRANCH  21  28
ATOM     27  C   UNL     1       7.825   5.869  19.115  0.00  0.00    +0.000 C 
ATOM     28  S   UNL     1       7.329   5.491  17.453  0.00  0.00    +0.000 S 
ATOM     29  O   UNL     1       7.536   6.680  16.649  0.00  0.00    +0.000 OA
ATOM     30  O   UNL     1       7.931   4.225  17.078  0.00  0.00    +0.000 OA
ENDBRANCH  21  28
ENDBRANCH   1  25
TORSDOF 3
ENDMDL
MODEL 2
REMARK VINA RESULT:      -9.5      1.953      3.591
REMARK  Name = 
REMARK  4 active torsions:
REMARK  status: ('A' for Active; 'I' for Inactive)
REMARK    1  A    between atoms: C_1  and  S_2
REMARK    2  A    between atoms: S_2  and  C_5
REMARK    3  A    between atoms: C_9  and  N_10
REMARK    4  A    between atoms: C_16  and  C_17
REMARK                            x       y       z     vdW  Elec       q    Type
REMARK                         _______ _______ _______ _____ _____    ______ ____
ROOT
ATOM      1  N   UNL     1       2.843   7.419  18.170  0.00  0.00    +0.000 N 
ATOM      2  C   UNL     1       2.226   7.563  19.387  0.00  0.00    +0.000 C 
ATOM      3  O   UNL     1       2.300   6.722  20.276  0.00  0.00    +0.000 OA
ATOM      4  N   UNL     1       1.495   8.729  19.601  0.00  0.00    +0.000 N 
ATOM      5  C   UNL     1       1.032   8.961  20.982  0.00  0.00    +0.000 C 
ATOM      6  C   UNL     1      -0.373   9.569  21.019  0.00  0.00    +0.000 C 
ATOM      7  C   UNL     1      -0.503  10.865  20.165  0.00  0.00    +0.000 C 
ATOM      8  C   UNL     1      -0.031  10.481  18.752  0.00  0.00    +0.000 C 
ATOM      9  C   UNL     1       1.377   9.857  18.700  0.00  0.00    +0.000 C 
ATOM     10  H   UNL     1       3.114   8.255  17.660  0.00  0.00    +0.000 HD
ENDROOT
BRANCH   7  11
ATOM     11  C   UNL     1       0.080  12.082  20.902  0.00  0.00    +0.000 A 
ATOM     12  C   UNL     1       1.387  12.459  20.500  0.00  0.00    +0.000 A 
ATOM     13  C   UNL     1       1.965  13.658  20.897  0.00  0.00    +0.000 A 
ATOM     14  C   UNL     1       1.189  14.570  21.589  0.00  0.00    +0.000 A 
ATOM     15  C   UNL     1      -0.069  14.190  22.073  0.00  0.00    +0.000 A 
ATOM     16  C   UNL     1      -0.823  15.109  22.803  0.00  0.00    +0.000 A 
ATOM     17  C   UNL     1      -1.613  14.682  23.852  0.00  0.00    +0.000 A 
ATOM     18  C   UNL     1      -1.950  13.344  23.900  0.00  0.00    +0.000 A 
ATOM     19  C   UNL     1      -1.524  12.485  22.871  0.00  0.00    +0.000 A 
ATOM     20  C   UNL     1      -0.538  12.872  21.921  0.00  0.00    +0.000 A 
ENDBRANCH   7  11
BRANCH   1  25
ATOM     21  C   UNL     1       5.470   5.100  16.857  0.00  0.00    +0.000 A 
ATOM     22  C   UNL     1       4.840   3.857  16.938  0.00  0.00    +0.000 A 
ATOM     23  C   UNL     1       3.526   3.795  17.379  0.00  0.00    +0.000 A 
ATOM     24  C   UNL     1       2.860   4.967  17.753  0.00  0.00    +0.000 A 
ATOM     25  C   UNL     1       3.489   6.227  17.718  0.00  0.00    +0.000 A 
ATOM     26  C   UNL     1       4.802   6.284  17.225  0.00  0.00    +0.000 A 
BRANCH  21  28
ATOM     27  C   UNL     1       7.009   4.592  14.566  0.00  0.00    +0.000 C 
ATOM     28  S   UNL     1       7.136   5.157  16.245  0.00  0.00    +0.000 S 
ATOM     29  O   UNL     1       7.910   4.177  16.983  0.00  0.00    +0.000 OA
ATOM     30  O   UNL     1       7.527   6.554  16.224  0.00  0.00    +0.000 OA
ENDBRANCH  21  28
ENDBRANCH   1  25
TORSDOF 3
ENDMDL
MODEL 3
REMARK VINA RESULT:      -9.4      1.818      3.441
REMARK  Name = 
REMARK  4 active torsions:
REMARK  status: ('A' for Active; 'I' for Inactive)
REMARK    1  A    between atoms: C_1  and  S_2
REMARK    2  A    between atoms: S_2  and  C_5
REMARK    3  A    between atoms: C_9  and  N_10
REMARK    4  A    between atoms: C_16  and  C_17
REMARK                            x       y       z     vdW  Elec       q    Type
REMARK                         _______ _______ _______ _____ _____    ______ ____
ROOT
ATOM      1  N   UNL     1       2.726   7.425  17.987  0.00  0.00    +0.000 N 
ATOM      2  C   UNL     1       2.196   7.692  19.225  0.00  0.00    +0.000 C 
ATOM      3  O   UNL     1       2.408   6.989  20.207  0.00  0.00    +0.000 OA
ATOM      4  N   UNL     1       1.390   8.821  19.346  0.00  0.00    +0.000 N 
ATOM      5  C   UNL     1       1.018   9.208  20.721  0.00  0.00    +0.000 C 
ATOM      6  C   UNL     1      -0.426   9.714  20.801  0.00  0.00    +0.000 C 
ATOM      7  C   UNL     1      -0.728  10.866  19.799  0.00  0.00    +0.000 C 
ATOM      8  C   UNL     1      -0.337  10.326  18.412  0.00  0.00    +0.000 C 
ATOM      9  C   UNL     1       1.110   9.803  18.319  0.00  0.00    +0.000 C 
ATOM     10  H   UNL     1       2.887   8.200  17.350  0.00  0.00    +0.000 HD
ENDROOT
BRANCH   7  11
ATOM     11  C   UNL     1      -0.191  12.212  20.315  0.00  0.00    +0.000 A 
ATOM     12  C   UNL     1      -0.894  12.756  21.420  0.00  0.00    +0.000 A 
ATOM     13  C   UNL     1      -0.409  13.837  22.144  0.00  0.00    +0.000 A 
ATOM     14  C   UNL     1       0.862  14.306  21.863  0.00  0.00    +0.000 A 
ATOM     15  C   UNL     1       1.538  13.849  20.726  0.00  0.00    +0.000 A 
ATOM     16  C   UNL     1       2.804  14.359  20.436  0.00  0.00    +0.000 A 
ATOM     17  C   UNL     1       3.189  14.554  19.124  0.00  0.00    +0.000 A 
ATOM     18  C   UNL     1       2.493  13.878  18.142  0.00  0.00    +0.000 A 
ATOM     19  C   UNL     1       1.463  12.993  18.507  0.00  0.00    +0.000 A 
ATOM     20  C   UNL     1       0.924  12.961  19.823  0.00  0.00    +0.000 A 
ENDBRANCH   7  11
BRANCH   1  25
ATOM     21  C   UNL     1       5.473   5.130  16.898  0.00  0.00    +0.000 A 
ATOM     22  C   UNL     1       4.897   3.870  17.071  0.00  0.00    +0.000 A 
ATOM     23  C   UNL     1       3.580   3.784  17.499  0.00  0.00    +0.000 A 
ATOM     24  C   UNL     1       2.857   4.951  17.769  0.00  0.00    +0.000 A 
ATOM     25  C   UNL     1       3.431   6.232  17.640  0.00  0.00    +0.000 A 
ATOM     26  C   UNL     1       4.748   6.307  17.161  0.00  0.00    +0.000 A 
BRANCH  21  28
ATOM     27  C   UNL     1       7.032   4.722  14.601  0.00  0.00    +0.000 C 
ATOM     28  S   UNL     1       7.144   5.212  16.304  0.00  0.00    +0.000 S 
ATOM     29  O   UNL     1       7.911   4.200  17.005  0.00  0.00    +0.000 OA
ATOM     30  O   UNL     1       7.536   6.608  16.348  0.00  0.00    +0.000 OA
ENDBRANCH  21  28
ENDBRANCH   1  25
TORSDOF 3
ENDMDL
MODEL 4
REMARK VINA RESULT:      -9.2      1.777      3.245
REMARK  Name = 
REMARK  4 active torsions:
REMARK  status: ('A' for Active; 'I' for Inactive)
REMARK    1  A    between atoms: C_1  and  S_2
REMARK    2  A    between atoms: S_2  and  C_5
REMARK    3  A    between atoms: C_9  and  N_10
REMARK    4  A    between atoms: C_16  and  C_17
REMARK                            x       y       z     vdW  Elec       q    Type
REMARK                         _______ _______ _______ _____ _____    ______ ____
ROOT
ATOM      1  N   UNL     1       2.518   7.500  18.037  0.00  0.00    +0.000 N 
ATOM      2  C   UNL     1       2.044   7.914  19.256  0.00  0.00    +0.000 C 
ATOM      3  O   UNL     1       2.350   7.368  20.311  0.00  0.00    +0.000 OA
ATOM      4  N   UNL     1       1.182   9.007  19.271  0.00  0.00    +0.000 N 
ATOM      5  C   UNL     1       0.866   9.567  20.599  0.00  0.00    +0.000 C 
ATOM      6  C   UNL     1      -0.598  10.007  20.700  0.00  0.00    +0.000 C 
ATOM      7  C   UNL     1      -1.022  10.989  19.568  0.00  0.00    +0.000 C 
ATOM      8  C   UNL     1      -0.679  10.277  18.249  0.00  0.00    +0.000 C 
ATOM      9  C   UNL     1       0.788   9.818  18.137  0.00  0.00    +0.000 C 
ATOM     10  H   UNL     1       2.598   8.183  17.289  0.00  0.00    +0.000 HD
ENDROOT
BRANCH   7  11
ATOM     11  C   UNL     1      -0.536  12.420  19.857  0.00  0.00    +0.000 A 
ATOM     12  C   UNL     1       0.259  13.002  18.838  0.00  0.00    +0.000 A 
ATOM     13  C   UNL     1       0.586  14.352  18.836  0.00  0.00    +0.000 A 
ATOM     14  C   UNL     1       0.002  15.176  19.783  0.00  0.00    +0.000 A 
ATOM     15  C   UNL     1      -0.712  14.616  20.849  0.00  0.00    +0.000 A 
ATOM     16  C   UNL     1      -1.262  15.458  21.816  0.00  0.00    +0.000 A 
ATOM     17  C   UNL     1      -1.306  15.061  23.138  0.00  0.00    +0.000 A 
ATOM     18  C   UNL     1      -1.183  13.712  23.409  0.00  0.00    +0.000 A 
ATOM     19  C   UNL     1      -1.065  12.800  22.345  0.00  0.00    +0.000 A 
ATOM     20  C   UNL     1      -0.798  13.221  21.012  0.00  0.00    +0.000 A 
ENDBRANCH   7  11
BRANCH   1  25
ATOM     21  C   UNL     1       5.413   5.194  17.491  0.00  0.00    +0.000 A 
ATOM     22  C   UNL     1       4.803   3.938  17.506  0.00  0.00    +0.000 A 
ATOM     23  C   UNL     1       3.425   3.860  17.644  0.00  0.00    +0.000 A 
ATOM     24  C   UNL     1       2.672   5.030  17.787  0.00  0.00    +0.000 A 
ATOM     25  C   UNL     1       3.270   6.306  17.815  0.00  0.00    +0.000 A 
ATOM     26  C   UNL     1       4.659   6.375  17.626  0.00  0.00    +0.000 A 
BRANCH  21  28
ATOM     27  C   UNL     1       7.600   6.944  17.661  0.00  0.00    +0.000 C 
ATOM     28  S   UNL     1       7.173   5.267  17.264  0.00  0.00    +0.000 S 
ATOM     29  O   UNL     1       7.444   5.065  15.854  0.00  0.00    +0.000 OA
ATOM     30  O   UNL     1       7.762   4.401  18.268  0.00  0.00    +0.000 OA
ENDBRANCH  21  28
ENDBRANCH   1  25
TORSDOF 3
ENDMDL
MODEL 5
REMARK VINA RESULT:      -9.2      0.696      1.093
REMARK  Name = 
REMARK  4 active torsions:
REMARK  status: ('A' for Active; 'I' for Inactive)
REMARK    1  A    between atoms: C_1  and  S_2
REMARK    2  A    between atoms: S_2  and  C_5
REMARK    3  A    between atoms: C_9  and  N_10
REMARK    4  A    between atoms: C_16  and  C_17
REMARK                            x       y       z     vdW  Elec       q    Type
REMARK                         _______ _______ _______ _____ _____    ______ ____
ROOT
ATOM      1  N   UNL     1       2.377   6.867  18.679  0.00  0.00    +0.000 N 
ATOM      2  C   UNL     1       2.199   8.137  18.192  0.00  0.00    +0.000 C 
ATOM      3  O   UNL     1       2.581   8.484  17.079  0.00  0.00    +0.000 OA
ATOM      4  N   UNL     1       1.546   9.053  19.013  0.00  0.00    +0.000 N 
ATOM      5  C   UNL     1       1.171  10.335  18.385  0.00  0.00    +0.000 C 
ATOM      6  C   UNL     1       1.359  11.516  19.342  0.00  0.00    +0.000 C 
ATOM      7  C   UNL     1       0.624  11.327  20.702  0.00  0.00    +0.000 C 
ATOM      8  C   UNL     1       1.128   9.987  21.265  0.00  0.00    +0.000 C 
ATOM      9  C   UNL     1       0.956   8.790  20.309  0.00  0.00    +0.000 C 
ATOM     10  H   UNL     1       1.715   6.511  19.363  0.00  0.00    +0.000 HD
ENDROOT
BRANCH   7  11
ATOM     11  C   UNL     1      -0.878  11.627  20.572  0.00  0.00    +0.000 A 
ATOM     12  C   UNL     1      -1.438  12.368  21.644  0.00  0.00    +0.000 A 
ATOM     13  C   UNL     1      -2.713  12.915  21.577  0.00  0.00    +0.000 A 
ATOM     14  C   UNL     1      -3.400  12.850  20.378  0.00  0.00    +0.000 A 
ATOM     15  C   UNL     1      -2.911  12.052  19.337  0.00  0.00    +0.000 A 
ATOM     16  C   UNL     1      -3.635  11.967  18.148  0.00  0.00    +0.000 A 
ATOM     17  C   UNL     1      -3.673  10.780  17.442  0.00  0.00    +0.000 A 
ATOM     18  C   UNL     1      -2.691   9.846  17.702  0.00  0.00    +0.000 A 
ATOM     19  C   UNL     1      -1.677  10.146  18.627  0.00  0.00    +0.000 A 
ATOM     20  C   UNL     1      -1.760  11.261  19.508  0.00  0.00    +0.000 A 
ENDBRANCH   7  11
BRANCH   1  25
ATOM     21  C   UNL     1       5.288   5.110  17.117  0.00  0.00    +0.000 A 
ATOM     22  C   UNL     1       4.792   3.820  16.925  0.00  0.00    +0.000 A 
ATOM     23  C   UNL     1       3.475   3.547  17.266  0.00  0.00    +0.000 A 
ATOM     24  C   UNL     1       2.673   4.554  17.813  0.00  0.00    +0.000 A 
ATOM     25  C   UNL     1       3.165   5.853  18.052  0.00  0.00    +0.000 A 
ATOM     26  C   UNL     1       4.483   6.131  17.658  0.00  0.00    +0.000 A 
BRANCH  21  28
ATOM     27  C   UNL     1       7.033   4.944  14.925  0.00  0.00    +0.000 C 
ATOM     28  S   UNL     1       6.962   5.445  16.627  0.00  0.00    +0.000 S 
ATOM     29  O   UNL     1       7.827   4.561  17.383  0.00  0.00    +0.000 OA
ATOM     30  O   UNL     1       7.135   6.885  16.682  0.00  0.00    +0.000 OA
ENDBRANCH  21  28
ENDBRANCH   1  25
TORSDOF 3
ENDMDL
MODEL 6
REMARK VINA RESULT:      -9.1      2.077      3.723
REMARK  Name = 
REMARK  4 active torsions:
REMARK  status: ('A' for Active; 'I' for Inactive)
REMARK    1  A    between atoms: C_1  and  S_2
REMARK    2  A    between atoms: S_2  and  C_5
REMARK    3  A    between atoms: C_9  and  N_10
REMARK    4  A    between atoms: C_16  and  C_17
REMARK                            x       y       z     vdW  Elec       q    Type
REMARK                         _______ _______ _______ _____ _____    ______ ____
ROOT
ATOM      1  N   UNL     1       2.385   7.482  18.322  0.00  0.00    +0.000 N 
ATOM      2  C   UNL     1       1.952   7.721  19.602  0.00  0.00    +0.000 C 
ATOM      3  O   UNL     1       2.119   6.926  20.521  0.00  0.00    +0.000 OA
ATOM      4  N   UNL     1       1.303   8.928  19.845  0.00  0.00    +0.000 N 
ATOM      5  C   UNL     1       1.048   9.255  21.261  0.00  0.00    +0.000 C 
ATOM      6  C   UNL     1      -0.314   9.928  21.456  0.00  0.00    +0.000 C 
ATOM      7  C   UNL     1      -0.515  11.180  20.552  0.00  0.00    +0.000 C 
ATOM      8  C   UNL     1      -0.261  10.700  19.112  0.00  0.00    +0.000 C 
ATOM      9  C   UNL     1       1.102  10.010  18.903  0.00  0.00    +0.000 C 
ATOM     10  H   UNL     1       2.613   8.277  17.730  0.00  0.00    +0.000 HD
ENDROOT
BRANCH   7  11
ATOM     11  C   UNL     1       0.212  12.407  21.127  0.00  0.00    +0.000 A 
ATOM     12  C   UNL     1       1.531  12.606  20.644  0.00  0.00    +0.000 A 
ATOM     13  C   UNL     1       2.236  13.779  20.883  0.00  0.00    +0.000 A 
ATOM     14  C   UNL     1       1.579  14.834  21.491  0.00  0.00    +0.000 A 
ATOM     15  C   UNL     1       0.313  14.636  22.055  0.00  0.00    +0.000 A 
ATOM     16  C   UNL     1      -0.319  15.700  22.698  0.00  0.00    +0.000 A 
ATOM     17  C   UNL     1      -1.101  15.471  23.813  0.00  0.00    +0.000 A 
ATOM     18  C   UNL     1      -1.561  14.187  24.023  0.00  0.00    +0.000 A 
ATOM     19  C   UNL     1      -1.262  13.182  23.087  0.00  0.00    +0.000 A 
ATOM     20  C   UNL     1      -0.284  13.362  22.068  0.00  0.00    +0.000 A 
ENDBRANCH   7  11
BRANCH   1  25
ATOM     21  C   UNL     1       4.765   4.952  16.931  0.00  0.00    +0.000 A 
ATOM     22  C   UNL     1       4.042   3.764  17.048  0.00  0.00    +0.000 A 
ATOM     23  C   UNL     1       2.745   3.810  17.540  0.00  0.00    +0.000 A 
ATOM     24  C   UNL     1       2.190   5.034  17.928  0.00  0.00    +0.000 A 
ATOM     25  C   UNL     1       2.916   6.240  17.857  0.00  0.00    +0.000 A 
ATOM     26  C   UNL     1       4.209   6.188  17.313  0.00  0.00    +0.000 A 
BRANCH  21  28
ATOM     27  C   UNL     1       7.452   4.604  17.664  0.00  0.00    +0.000 C 
ATOM     28  S   UNL     1       6.405   4.871  16.254  0.00  0.00    +0.000 S 
ATOM     29  O   UNL     1       6.722   6.178  15.710  0.00  0.00    +0.000 OA
ATOM     30  O   UNL     1       6.456   3.684  15.421  0.00  0.00    +0.000 OA
ENDBRANCH  21  28
ENDBRANCH   1  25
TORSDOF 3
ENDMDL
MODEL 7
REMARK VINA RESULT:      -9.0      1.076      2.405
REMARK  Name = 
REMARK  4 active torsions:
REMARK  status: ('A' for Active; 'I' for Inactive)
REMARK    1  A    between atoms: C_1  and  S_2
REMARK    2  A    between atoms: S_2  and  C_5
REMARK    3  A    between atoms: C_9  and  N_10
REMARK    4  A    between atoms: C_16  and  C_17
REMARK                            x       y       z     vdW  Elec       q    Type
REMARK                         _______ _______ _______ _____ _____    ______ ____
ROOT
ATOM      1  N   UNL     1       2.241   7.171  18.873  0.00  0.00    +0.000 N 
ATOM      2  C   UNL     1       2.172   8.408  18.282  0.00  0.00    +0.000 C 
ATOM      3  O   UNL     1       2.755   8.681  17.238  0.00  0.00    +0.000 OA
ATOM      4  N   UNL     1       1.395   9.376  18.911  0.00  0.00    +0.000 N 
ATOM      5  C   UNL     1       1.158  10.616  18.147  0.00  0.00    +0.000 C 
ATOM      6  C   UNL     1       1.186  11.856  19.045  0.00  0.00    +0.000 C 
ATOM      7  C   UNL     1       0.214  11.756  20.258  0.00  0.00    +0.000 C 
ATOM      8  C   UNL     1       0.588  10.455  20.987  0.00  0.00    +0.000 C 
ATOM      9  C   UNL     1       0.575   9.199  20.092  0.00  0.00    +0.000 C 
ATOM     10  H   UNL     1       1.461   6.861  19.446  0.00  0.00    +0.000 HD
ENDROOT
BRANCH   7  11
ATOM     11  C   UNL     1      -1.236  12.052  19.838  0.00  0.00    +0.000 A 
ATOM     12  C   UNL     1      -1.604  11.561  18.560  0.00  0.00    +0.000 A 
ATOM     13  C   UNL     1      -2.924  11.541  18.128  0.00  0.00    +0.000 A 
ATOM     14  C   UNL     1      -3.919  11.883  19.026  0.00  0.00    +0.000 A 
ATOM     15  C   UNL     1      -3.581  12.453  20.258  0.00  0.00    +0.000 A 
ATOM     16  C   UNL     1      -4.598  12.827  21.138  0.00  0.00    +0.000 A 
ATOM     17  C   UNL     1      -4.454  13.951  21.928  0.00  0.00    +0.000 A 
ATOM     18  C   UNL     1      -3.178  14.437  22.127  0.00  0.00    +0.000 A 
ATOM     19  C   UNL     1      -2.082  13.758  21.567  0.00  0.00    +0.000 A 
ATOM     20  C   UNL     1      -2.243  12.744  20.582  0.00  0.00    +0.000 A 
ENDBRANCH   7  11
BRANCH   1  25
ATOM     21  C   UNL     1       5.354   5.167  18.331  0.00  0.00    +0.000 A 
ATOM     22  C   UNL     1       4.857   3.984  17.783  0.00  0.00    +0.000 A 
ATOM     23  C   UNL     1       3.495   3.871  17.544  0.00  0.00    +0.000 A 
ATOM     24  C   UNL     1       2.641   4.929  17.872  0.00  0.00    +0.000 A 
ATOM     25  C   UNL     1       3.115   6.117  18.464  0.00  0.00    +0.000 A 
ATOM     26  C   UNL     1       4.500   6.238  18.656  0.00  0.00    +0.000 A 
BRANCH  21  28
ATOM     27  C   UNL     1       7.538   6.865  17.857  0.00  0.00    +0.000 C 
ATOM     28  S   UNL     1       7.107   5.303  18.582  0.00  0.00    +0.000 S 
ATOM     29  O   UNL     1       7.746   4.262  17.800  0.00  0.00    +0.000 OA
ATOM     30  O   UNL     1       7.320   5.395  20.015  0.00  0.00    +0.000 OA
ENDBRANCH  21  28
ENDBRANCH   1  25
TORSDOF 3
ENDMDL
MODEL 8
REMARK VINA RESULT:      -9.0      1.283      2.807
REMARK  Name = 
REMARK  4 active torsions:
REMARK  status: ('A' for Active; 'I' for Inactive)
REMARK    1  A    between atoms: C_1  and  S_2
REMARK    2  A    between atoms: S_2  and  C_5
REMARK    3  A    between atoms: C_9  and  N_10
REMARK    4  A    between atoms: C_16  and  C_17
REMARK                            x       y       z     vdW  Elec       q    Type
REMARK                         _______ _______ _______ _____ _____    ______ ____
ROOT
ATOM      1  N   UNL     1       2.077   7.220  18.815  0.00  0.00    +0.000 N 
ATOM      2  C   UNL     1       2.006   8.506  18.342  0.00  0.00    +0.000 C 
ATOM      3  O   UNL     1       2.412   8.830  17.231  0.00  0.00    +0.000 OA
ATOM      4  N   UNL     1       1.438   9.465  19.176  0.00  0.00    +0.000 N 
ATOM      5  C   UNL     1       1.172  10.781  18.564  0.00  0.00    +0.000 C 
ATOM      6  C   UNL     1       1.466  11.932  19.532  0.00  0.00    +0.000 C 
ATOM      7  C   UNL     1       0.723  11.792  20.893  0.00  0.00    +0.000 C 
ATOM      8  C   UNL     1       1.112  10.407  21.440  0.00  0.00    +0.000 C 
ATOM      9  C   UNL     1       0.833   9.240  20.472  0.00  0.00    +0.000 C 
ATOM     10  H   UNL     1       1.389   6.914  19.499  0.00  0.00    +0.000 HD
ENDROOT
BRANCH   7  11
ATOM     11  C   UNL     1      -0.749  12.222  20.774  0.00  0.00    +0.000 A 
ATOM     12  C   UNL     1      -1.314  12.083  19.481  0.00  0.00    +0.000 A 
ATOM     13  C   UNL     1      -2.678  12.209  19.253  0.00  0.00    +0.000 A 
ATOM     14  C   UNL     1      -3.522  12.335  20.342  0.00  0.00    +0.000 A 
ATOM     15  C   UNL     1      -2.989  12.563  21.615  0.00  0.00    +0.000 A 
ATOM     16  C   UNL     1      -3.854  12.726  22.697  0.00  0.00    +0.000 A 
ATOM     17  C   UNL     1      -3.538  13.607  23.713  0.00  0.00    +0.000 A 
ATOM     18  C   UNL     1      -2.219  13.994  23.841  0.00  0.00    +0.000 A 
ATOM     19  C   UNL     1      -1.251  13.452  22.977  0.00  0.00    +0.000 A 
ATOM     20  C   UNL     1      -1.603  12.727  21.804  0.00  0.00    +0.000 A 
ENDBRANCH   7  11
BRANCH   1  25
ATOM     21  C   UNL     1       4.826   5.224  17.249  0.00  0.00    +0.000 A 
ATOM     22  C   UNL     1       4.209   3.993  17.018  0.00  0.00    +0.000 A 
ATOM     23  C   UNL     1       2.867   3.842  17.334  0.00  0.00    +0.000 A 
ATOM     24  C   UNL     1       2.159   4.911  17.895  0.00  0.00    +0.000 A 
ATOM     25  C   UNL     1       2.771   6.149  18.173  0.00  0.00    +0.000 A 
ATOM     26  C   UNL     1       4.117   6.305  17.805  0.00  0.00    +0.000 A 
BRANCH  21  28
ATOM     27  C   UNL     1       6.638   4.669  15.178  0.00  0.00    +0.000 C 
ATOM     28  S   UNL     1       6.533   5.404  16.791  0.00  0.00    +0.000 S 
ATOM     29  O   UNL     1       7.320   4.591  17.698  0.00  0.00    +0.000 OA
ATOM     30  O   UNL     1       6.783   6.827  16.657  0.00  0.00    +0.000 OA
ENDBRANCH  21  28
ENDBRANCH   1  25
TORSDOF 3
ENDMDL
MODEL 9
REMARK VINA RESULT:      -8.9      1.899      3.403
REMARK  Name = 
REMARK  4 active torsions:
REMARK  status: ('A' for Active; 'I' for Inactive)
REMARK    1  A    between atoms: C_1  and  S_2
REMARK    2  A    between atoms: S_2  and  C_5
REMARK    3  A    between atoms: C_9  and  N_10
REMARK    4  A    between atoms: C_16  and  C_17
REMARK                            x       y       z     vdW  Elec       q    Type
REMARK                         _______ _______ _______ _____ _____    ______ ____
ROOT
ATOM      1  N   UNL     1       2.384   7.487  18.116  0.00  0.00    +0.000 N 
ATOM      2  C   UNL     1       1.986   7.823  19.385  0.00  0.00    +0.000 C 
ATOM      3  O   UNL     1       2.262   7.149  20.371  0.00  0.00    +0.000 OA
ATOM      4  N   UNL     1       1.242   8.991  19.535  0.00  0.00    +0.000 N 
ATOM      5  C   UNL     1       1.019   9.445  20.921  0.00  0.00    +0.000 C 
ATOM      6  C   UNL     1      -0.388  10.017  21.116  0.00  0.00    +0.000 C 
ATOM      7  C   UNL     1      -0.738  11.144  20.099  0.00  0.00    +0.000 C 
ATOM      8  C   UNL     1      -0.504  10.535  18.706  0.00  0.00    +0.000 C 
ATOM      9  C   UNL     1       0.905   9.945  18.499  0.00  0.00    +0.000 C 
ATOM     10  H   UNL     1       2.514   8.229  17.434  0.00  0.00    +0.000 HD
ENDROOT
BRANCH   7  11
ATOM     11  C   UNL     1      -0.100  12.483  20.506  0.00  0.00    +0.000 A 
ATOM     12  C   UNL     1      -0.716  13.132  21.606  0.00  0.00    +0.000 A 
ATOM     13  C   UNL     1      -0.134  14.223  22.240  0.00  0.00    +0.000 A 
ATOM     14  C   UNL     1       1.147  14.596  21.873  0.00  0.00    +0.000 A 
ATOM     15  C   UNL     1       1.739  14.033  20.737  0.00  0.00    +0.000 A 
ATOM     16  C   UNL     1       3.016  14.448  20.358  0.00  0.00    +0.000 A 
ATOM     17  C   UNL     1       3.347  14.542  19.021  0.00  0.00    +0.000 A 
ATOM     18  C   UNL     1       2.566  13.852  18.115  0.00  0.00    +0.000 A 
ATOM     19  C   UNL     1       1.506  13.054  18.580  0.00  0.00    +0.000 A 
ATOM     20  C   UNL     1       1.031  13.132  19.920  0.00  0.00    +0.000 A 
ENDBRANCH   7  11
BRANCH   1  25
ATOM     21  C   UNL     1       4.959   5.019  16.985  0.00  0.00    +0.000 A 
ATOM     22  C   UNL     1       4.301   3.800  17.154  0.00  0.00    +0.000 A 
ATOM     23  C   UNL     1       2.985   3.800  17.594  0.00  0.00    +0.000 A 
ATOM     24  C   UNL     1       2.346   5.011  17.879  0.00  0.00    +0.000 A 
ATOM     25  C   UNL     1       3.004   6.251  17.754  0.00  0.00    +0.000 A 
ATOM     26  C   UNL     1       4.318   6.241  17.262  0.00  0.00    +0.000 A 
BRANCH  21  28
ATOM     27  C   UNL     1       7.613   4.604  17.800  0.00  0.00    +0.000 C 
ATOM     28  S   UNL     1       6.627   4.993  16.375  0.00  0.00    +0.000 S 
ATOM     29  O   UNL     1       6.965   6.341  15.959  0.00  0.00    +0.000 OA
ATOM     30  O   UNL     1       6.716   3.882  15.446  0.00  0.00    +0.000 OA
ENDBRANCH  21  28
ENDBRANCH   1  25
TORSDOF 3
ENDMDL
