MODEL 1
REMARK VINA RESULT:      -9.1      0.000      0.000
REMARK  Name = 
REMARK  3 active torsions:
REMARK  status: ('A' for Active; 'I' for Inactive)
REMARK    1  A    between atoms: C_6  and  C_7
REMARK    2  A    between atoms: C_6  and  C_21
REMARK    3  A    between atoms: C_9  and  C_10
REMARK                            x       y       z     vdW  Elec       q    Type
REMARK                         _______ _______ _______ _____ _____    ______ ____
ROOT
ATOM      1  C   UNL     1       3.001   5.290  18.964  0.00  0.00    +0.000 A 
ATOM      2  N   UNL     1       2.687   6.560  18.841  0.00  0.00    +0.000 NA
ATOM      3  C   UNL     1       2.033   6.825  20.027  0.00  0.00    +0.000 A 
ATOM      4  N   UNL     1       1.957   5.770  20.852  0.00  0.00    +0.000 NA
ATOM      5  O   UNL     1       2.596   4.756  20.154  0.00  0.00    +0.000 OA
ENDROOT
BRANCH   3   6
ATOM      6  C   UNL     1       1.464   8.129  20.328  0.00  0.00    +0.000 A 
ATOM      7  C   UNL     1       1.352   9.116  19.331  0.00  0.00    +0.000 A 
ATOM      8  C   UNL     1       0.827  10.389  19.598  0.00  0.00    +0.000 A 
ATOM      9  C   UNL     1       0.424  10.621  20.912  0.00  0.00    +0.000 A 
ATOM     10  N   UNL     1      -0.112  11.703  21.549  0.00  0.00    +0.000 N 
ATOM     11  N   UNL     1      -0.342  11.456  22.852  0.00  0.00    +0.000 NA
ATOM     12  N   UNL     1       0.041  10.207  23.091  0.00  0.00    +0.000 NA
ATOM     13  C   UNL     1       0.514   9.676  21.922  0.00  0.00    +0.000 A 
ATOM     14  C   UNL     1       1.034   8.408  21.639  0.00  0.00    +0.000 A 
ATOM     15  H   UNL     1      -0.345  12.615  21.179  0.00  0.00    +0.000 HD
ENDBRANCH   3   6
BRANCH   1  21
ATOM     16  O   UNL     1       5.302   3.278  19.584  0.00  0.00    +0.000 OA
ATOM     17  C   UNL     1       4.317   3.249  18.864  0.00  0.00    +0.000 C 
ATOM     18  N   UNL     1       3.503   2.141  18.726  0.00  0.00    +0.000 N 
ATOM     19  C   UNL     1       2.339   2.414  17.943  0.00  0.00    +0.000 C 
ATOM     20  C   UNL     1       2.759   3.613  17.111  0.00  0.00    +0.000 C 
ATOM     21  C   UNL     1       3.745   4.393  18.023  0.00  0.00    +0.000 C 
ATOM     22  H   UNL     1       3.653   1.319  19.301  0.00  0.00    +0.000 HD
BRANCH  21  23
ATOM     23  C   UNL     1       4.788   5.179  17.184  0.00  0.00    +0.000 C 
ATOM     24  C   UNL     1       5.547   4.352  16.134  0.00  0.00    +0.000 C 
ATOM     25  C   UNL     1       6.824   5.131  15.829  0.00  0.00    +0.000 C 
ATOM     26  C   UNL     1       6.987   6.163  16.937  0.00  0.00    +0.000 C 
ATOM     27  C   UNL     1       5.925   5.836  17.976  0.00  0.00    +0.000 C 
ENDBRANCH  21  23
ENDBRANCH   1  21
TORSDOF 3
ENDMDL
MODEL 2
REMARK VINA RESULT:      -9.1      0.818      1.146
REMARK  Name = 
REMARK  3 active torsions:
REMARK  status: ('A' for Active; 'I' for Inactive)
REMARK    1  A    between atoms: C_6  and  C_7
REMARK    2  A    between atoms: C_6  and  C_21
REMARK    3  A    between atoms: C_9  and  C_10
REMARK                            x       y       z     vdW  Elec       q    Type
REMARK                         _______ _______ _______ _____ _____    ______ ____
ROOT
ATOM      1  C   UNL     1       3.379   4.850  19.145  0.00  0.00    +0.000 A 
ATOM      2  N   UNL     1       3.143   6.114  18.870  0.00  0.00    +0.000 NA
ATOM      3  C   UNL     1       2.343   6.506  19.924  0.00  0.00    +0.000 A 
ATOM      4  N   UNL     1       2.106   5.533  20.817  0.00  0.00    +0.000 NA
ATOM      5  O   UNL     1       2.790   4.440  20.307  0.00  0.00    +0.000 OA
ENDROOT
BRANCH   3   6
ATOM      6  C   UNL     1       1.796   7.849  20.028  0.00  0.00    +0.000 A 
ATOM      7  C   UNL     1       1.705   8.683  18.897  0.00  0.00    +0.000 A 
ATOM      8  C   UNL     1       1.203   9.989  18.973  0.00  0.00    +0.000 A 
ATOM      9  C   UNL     1       0.799  10.418  20.237  0.00  0.00    +0.000 A 
ATOM     10  N   UNL     1       0.280  11.590  20.706  0.00  0.00    +0.000 N 
ATOM     11  N   UNL     1       0.040  11.539  22.029  0.00  0.00    +0.000 NA
ATOM     12  N   UNL     1       0.401  10.332  22.450  0.00  0.00    +0.000 NA
ATOM     13  C   UNL     1       0.868   9.628  21.374  0.00  0.00    +0.000 A 
ATOM     14  C   UNL     1       1.366   8.324  21.282  0.00  0.00    +0.000 A 
ATOM     15  H   UNL     1       0.065  12.442  20.205  0.00  0.00    +0.000 HD
ENDBRANCH   3   6
BRANCH   1  21
ATOM     16  O   UNL     1       4.813   2.300  20.227  0.00  0.00    +0.000 OA
ATOM     17  C   UNL     1       4.176   2.555  19.218  0.00  0.00    +0.000 C 
ATOM     18  N   UNL     1       3.253   1.692  18.658  0.00  0.00    +0.000 N 
ATOM     19  C   UNL     1       2.541   2.286  17.571  0.00  0.00    +0.000 C 
ATOM     20  C   UNL     1       3.479   3.387  17.107  0.00  0.00    +0.000 C 
ATOM     21  C   UNL     1       4.207   3.848  18.399  0.00  0.00    +0.000 C 
ATOM     22  H   UNL     1       3.005   0.829  19.130  0.00  0.00    +0.000 HD
BRANCH  21  23
ATOM     23  C   UNL     1       5.625   4.394  18.084  0.00  0.00    +0.000 C 
ATOM     24  C   UNL     1       6.249   5.276  19.177  0.00  0.00    +0.000 C 
ATOM     25  C   UNL     1       7.327   6.106  18.483  0.00  0.00    +0.000 C 
ATOM     26  C   UNL     1       7.074   5.994  16.986  0.00  0.00    +0.000 C 
ATOM     27  C   UNL     1       5.740   5.278  16.837  0.00  0.00    +0.000 C 
ENDBRANCH  21  23
ENDBRANCH   1  21
TORSDOF 3
ENDMDL
MODEL 3
REMARK VINA RESULT:      -8.9      0.960      1.041
REMARK  Name = 
REMARK  3 active torsions:
REMARK  status: ('A' for Active; 'I' for Inactive)
REMARK    1  A    between atoms: C_6  and  C_7
REMARK    2  A    between atoms: C_6  and  C_21
REMARK    3  A    between atoms: C_9  and  C_10
REMARK                            x       y       z     vdW  Elec       q    Type
REMARK                         _______ _______ _______ _____ _____    ______ ____
ROOT
ATOM      1  C   UNL     1       3.163   5.214  19.164  0.00  0.00    +0.000 A 
ATOM      2  N   UNL     1       2.896   6.495  19.037  0.00  0.00    +0.000 NA
ATOM      3  C   UNL     1       2.096   6.745  20.133  0.00  0.00    +0.000 A 
ATOM      4  N   UNL     1       1.889   5.672  20.911  0.00  0.00    +0.000 NA
ATOM      5  O   UNL     1       2.594   4.661  20.275  0.00  0.00    +0.000 OA
ENDROOT
BRANCH   3   6
ATOM      6  C   UNL     1       1.520   8.055  20.394  0.00  0.00    +0.000 A 
ATOM      7  C   UNL     1       1.456   9.031  19.381  0.00  0.00    +0.000 A 
ATOM      8  C   UNL     1       0.926  10.308  19.610  0.00  0.00    +0.000 A 
ATOM      9  C   UNL     1       0.466  10.558  20.902  0.00  0.00    +0.000 A 
ATOM     10  N   UNL     1      -0.094  11.649  21.501  0.00  0.00    +0.000 N 
ATOM     11  N   UNL     1      -0.384  11.418  22.795  0.00  0.00    +0.000 NA
ATOM     12  N   UNL     1      -0.016  10.170  23.066  0.00  0.00    +0.000 NA
ATOM     13  C   UNL     1       0.506   9.624  21.926  0.00  0.00    +0.000 A 
ATOM     14  C   UNL     1       1.033   8.351  21.681  0.00  0.00    +0.000 A 
ATOM     15  H   UNL     1      -0.306  12.558  21.111  0.00  0.00    +0.000 HD
ENDBRANCH   3   6
BRANCH   1  21
ATOM     16  O   UNL     1       6.249   4.765  19.246  0.00  0.00    +0.000 OA
ATOM     17  C   UNL     1       5.286   4.031  19.095  0.00  0.00    +0.000 C 
ATOM     18  N   UNL     1       5.177   2.783  19.678  0.00  0.00    +0.000 N 
ATOM     19  C   UNL     1       3.893   2.193  19.466  0.00  0.00    +0.000 C 
ATOM     20  C   UNL     1       3.392   2.900  18.219  0.00  0.00    +0.000 C 
ATOM     21  C   UNL     1       4.008   4.323  18.304  0.00  0.00    +0.000 C 
ATOM     22  H   UNL     1       5.876   2.462  20.339  0.00  0.00    +0.000 HD
BRANCH  21  23
ATOM     23  C   UNL     1       4.230   4.929  16.893  0.00  0.00    +0.000 C 
ATOM     24  C   UNL     1       5.192   4.147  15.985  0.00  0.00    +0.000 C 
ATOM     25  C   UNL     1       5.670   5.140  14.927  0.00  0.00    +0.000 C 
ATOM     26  C   UNL     1       5.307   6.530  15.430  0.00  0.00    +0.000 C 
ATOM     27  C   UNL     1       4.814   6.346  16.858  0.00  0.00    +0.000 C 
ENDBRANCH  21  23
ENDBRANCH   1  21
TORSDOF 3
ENDMDL
MODEL 4
REMARK VINA RESULT:      -8.9      1.773      3.251
REMARK  Name = 
REMARK  3 active torsions:
REMARK  status: ('A' for Active; 'I' for Inactive)
REMARK    1  A    between atoms: C_6  and  C_7
REMARK    2  A    between atoms: C_6  and  C_21
REMARK    3  A    between atoms: C_9  and  C_10
REMARK                            x       y       z     vdW  Elec       q    Type
REMARK                         _______ _______ _______ _____ _____    ______ ____
ROOT
ATOM      1  C   UNL     1       3.479   6.161  18.510  0.00  0.00    +0.000 A 
ATOM      2  N   UNL     1       2.707   6.611  19.474  0.00  0.00    +0.000 NA
ATOM      3  C   UNL     1       2.301   7.837  18.988  0.00  0.00    +0.000 A 
ATOM      4  N   UNL     1       2.788   8.127  17.772  0.00  0.00    +0.000 NA
ATOM      5  O   UNL     1       3.564   7.022  17.453  0.00  0.00    +0.000 OA
ENDROOT
BRANCH   3   6
ATOM      6  C   UNL     1       1.441   8.730  19.748  0.00  0.00    +0.000 A 
ATOM      7  C   UNL     1       0.655   9.701  19.100  0.00  0.00    +0.000 A 
ATOM      8  C   UNL     1      -0.166  10.589  19.808  0.00  0.00    +0.000 A 
ATOM      9  C   UNL     1      -0.158  10.456  21.196  0.00  0.00    +0.000 A 
ATOM     10  N   UNL     1      -0.798  11.118  22.204  0.00  0.00    +0.000 N 
ATOM     11  N   UNL     1      -0.472  10.627  23.414  0.00  0.00    +0.000 NA
ATOM     12  N   UNL     1       0.389   9.635  23.219  0.00  0.00    +0.000 NA
ATOM     13  C   UNL     1       0.598   9.510  21.872  0.00  0.00    +0.000 A 
ATOM     14  C   UNL     1       1.408   8.627  21.152  0.00  0.00    +0.000 A 
ATOM     15  H   UNL     1      -1.451  11.889  22.152  0.00  0.00    +0.000 HD
ENDBRANCH   3   6
BRANCH   1  21
ATOM     16  O   UNL     1       4.669   4.785  15.977  0.00  0.00    +0.000 OA
ATOM     17  C   UNL     1       5.056   4.935  17.124  0.00  0.00    +0.000 C 
ATOM     18  N   UNL     1       6.359   5.254  17.456  0.00  0.00    +0.000 N 
ATOM     19  C   UNL     1       6.516   5.520  18.852  0.00  0.00    +0.000 C 
ATOM     20  C   UNL     1       5.343   4.785  19.475  0.00  0.00    +0.000 C 
ATOM     21  C   UNL     1       4.220   4.863  18.405  0.00  0.00    +0.000 C 
ATOM     22  H   UNL     1       7.037   5.463  16.732  0.00  0.00    +0.000 HD
BRANCH  21  23
ATOM     23  C   UNL     1       3.263   3.646  18.500  0.00  0.00    +0.000 C 
ATOM     24  C   UNL     1       1.854   3.870  17.931  0.00  0.00    +0.000 C 
ATOM     25  C   UNL     1       0.964   2.812  18.581  0.00  0.00    +0.000 C 
ATOM     26  C   UNL     1       1.740   2.252  19.766  0.00  0.00    +0.000 C 
ATOM     27  C   UNL     1       2.974   3.130  19.914  0.00  0.00    +0.000 C 
ENDBRANCH  21  23
ENDBRANCH   1  21
TORSDOF 3
ENDMDL
MODEL 5
REMARK VINA RESULT:      -8.8      1.255      1.697
REMARK  Name = 
REMARK  3 active torsions:
REMARK  status: ('A' for Active; 'I' for Inactive)
REMARK    1  A    between atoms: C_6  and  C_7
REMARK    2  A    between atoms: C_6  and  C_21
REMARK    3  A    between atoms: C_9  and  C_10
REMARK                            x       y       z     vdW  Elec       q    Type
REMARK                         _______ _______ _______ _____ _____    ______ ____
ROOT
ATOM      1  C   UNL     1       3.279   5.731  18.605  0.00  0.00    +0.000 A 
ATOM      2  N   UNL     1       2.484   6.253  19.512  0.00  0.00    +0.000 NA
ATOM      3  C   UNL     1       2.329   7.549  19.065  0.00  0.00    +0.000 A 
ATOM      4  N   UNL     1       2.986   7.814  17.926  0.00  0.00    +0.000 NA
ATOM      5  O   UNL     1       3.612   6.615  17.618  0.00  0.00    +0.000 OA
ENDROOT
BRANCH   3   6
ATOM      6  C   UNL     1       1.538   8.532  19.789  0.00  0.00    +0.000 A 
ATOM      7  C   UNL     1       0.898   9.586  19.111  0.00  0.00    +0.000 A 
ATOM      8  C   UNL     1       0.148  10.560  19.785  0.00  0.00    +0.000 A 
ATOM      9  C   UNL     1       0.074  10.424  21.171  0.00  0.00    +0.000 A 
ATOM     10  N   UNL     1      -0.535  11.153  22.152  0.00  0.00    +0.000 N 
ATOM     11  N   UNL     1      -0.325  10.627  23.372  0.00  0.00    +0.000 NA
ATOM     12  N   UNL     1       0.428   9.545  23.212  0.00  0.00    +0.000 NA
ATOM     13  C   UNL     1       0.686   9.400  21.876  0.00  0.00    +0.000 A 
ATOM     14  C   UNL     1       1.426   8.432  21.189  0.00  0.00    +0.000 A 
ATOM     15  H   UNL     1      -1.095  11.992  22.073  0.00  0.00    +0.000 HD
ENDBRANCH   3   6
BRANCH   1  21
ATOM     16  O   UNL     1       3.375   3.489  20.772  0.00  0.00    +0.000 OA
ATOM     17  C   UNL     1       3.124   3.508  19.578  0.00  0.00    +0.000 C 
ATOM     18  N   UNL     1       2.097   2.785  19.001  0.00  0.00    +0.000 N 
ATOM     19  C   UNL     1       1.921   3.097  17.617  0.00  0.00    +0.000 C 
ATOM     20  C   UNL     1       3.280   3.641  17.213  0.00  0.00    +0.000 C 
ATOM     21  C   UNL     1       3.818   4.337  18.493  0.00  0.00    +0.000 C 
ATOM     22  H   UNL     1       1.446   2.267  19.580  0.00  0.00    +0.000 HD
BRANCH  21  23
ATOM     23  C   UNL     1       5.368   4.315  18.539  0.00  0.00    +0.000 C 
ATOM     24  C   UNL     1       6.020   5.469  19.317  0.00  0.00    +0.000 C 
ATOM     25  C   UNL     1       7.456   5.564  18.804  0.00  0.00    +0.000 C 
ATOM     26  C   UNL     1       7.516   4.759  17.512  0.00  0.00    +0.000 C 
ATOM     27  C   UNL     1       6.079   4.384  17.183  0.00  0.00    +0.000 C 
ENDBRANCH  21  23
ENDBRANCH   1  21
TORSDOF 3
ENDMDL
MODEL 6
REMARK VINA RESULT:      -8.6      1.209      1.967
REMARK  Name = 
REMARK  3 active torsions:
REMARK  status: ('A' for Active; 'I' for Inactive)
REMARK    1  A    between atoms: C_6  and  C_7
REMARK    2  A    between atoms: C_6  and  C_21
REMARK    3  A    between atoms: C_9  and  C_10
REMARK                            x       y       z     vdW  Elec       q    Type
REMARK                         _______ _______ _______ _____ _____    ______ ____
ROOT
ATOM      1  C   UNL     1       3.345   4.761  19.206  0.00  0.00    +0.000 A 
ATOM      2  N   UNL     1       3.087   6.027  18.964  0.00  0.00    +0.000 NA
ATOM      3  C   UNL     1       2.300   6.385  20.040  0.00  0.00    +0.000 A 
ATOM      4  N   UNL     1       2.093   5.390  20.916  0.00  0.00    +0.000 NA
ATOM      5  O   UNL     1       2.782   4.318  20.369  0.00  0.00    +0.000 OA
ENDROOT
BRANCH   3   6
ATOM      6  C   UNL     1       1.738   7.718  20.184  0.00  0.00    +0.000 A 
ATOM      7  C   UNL     1       1.166   8.134  21.401  0.00  0.00    +0.000 A 
ATOM      8  C   UNL     1       0.598   9.405  21.561  0.00  0.00    +0.000 A 
ATOM      9  C   UNL     1       0.631  10.236  20.442  0.00  0.00    +0.000 A 
ATOM     10  N   UNL     1       0.186  11.505  20.205  0.00  0.00    +0.000 N 
ATOM     11  N   UNL     1       0.446  11.901  18.945  0.00  0.00    +0.000 NA
ATOM     12  N   UNL     1       1.064  10.896  18.334  0.00  0.00    +0.000 NA
ATOM     13  C   UNL     1       1.188   9.867  19.228  0.00  0.00    +0.000 A 
ATOM     14  C   UNL     1       1.757   8.597  19.084  0.00  0.00    +0.000 A 
ATOM     15  H   UNL     1      -0.287  12.146  20.828  0.00  0.00    +0.000 HD
ENDBRANCH   3   6
BRANCH   1  21
ATOM     16  O   UNL     1       4.797   2.185  20.198  0.00  0.00    +0.000 OA
ATOM     17  C   UNL     1       4.153   2.468  19.202  0.00  0.00    +0.000 C 
ATOM     18  N   UNL     1       3.230   1.619  18.622  0.00  0.00    +0.000 N 
ATOM     19  C   UNL     1       2.507   2.244  17.559  0.00  0.00    +0.000 C 
ATOM     20  C   UNL     1       3.437   3.363  17.123  0.00  0.00    +0.000 C 
ATOM     21  C   UNL     1       4.172   3.787  18.424  0.00  0.00    +0.000 C 
ATOM     22  H   UNL     1       2.989   0.740  19.068  0.00  0.00    +0.000 HD
BRANCH  21  23
ATOM     23  C   UNL     1       5.585   4.349  18.116  0.00  0.00    +0.000 C 
ATOM     24  C   UNL     1       6.185   5.253  19.205  0.00  0.00    +0.000 C 
ATOM     25  C   UNL     1       7.258   6.090  18.511  0.00  0.00    +0.000 C 
ATOM     26  C   UNL     1       7.022   5.956  17.013  0.00  0.00    +0.000 C 
ATOM     27  C   UNL     1       5.700   5.220  16.859  0.00  0.00    +0.000 C 
ENDBRANCH  21  23
ENDBRANCH   1  21
TORSDOF 3
ENDMDL
MODEL 7
REMARK VINA RESULT:      -8.6      1.465      1.749
REMARK  Name = 
REMARK  3 active torsions:
REMARK  status: ('A' for Active; 'I' for Inactive)
REMARK    1  A    between atoms: C_6  and  C_7
REMARK    2  A    between atoms: C_6  and  C_21
REMARK    3  A    between atoms: C_9  and  C_10
REMARK                            x       y       z     vdW  Elec       q    Type
REMARK                         _______ _______ _______ _____ _____    ______ ____
ROOT
ATOM      1  C   UNL     1       3.406   6.500  18.054  0.00  0.00    +0.000 A 
ATOM      2  N   UNL     1       2.639   6.842  19.064  0.00  0.00    +0.000 NA
ATOM      3  C   UNL     1       2.214   8.105  18.705  0.00  0.00    +0.000 A 
ATOM      4  N   UNL     1       2.686   8.521  17.520  0.00  0.00    +0.000 NA
ATOM      5  O   UNL     1       3.471   7.463  17.087  0.00  0.00    +0.000 OA
ENDROOT
BRANCH   3   6
ATOM      6  C   UNL     1       1.350   8.908  19.557  0.00  0.00    +0.000 A 
ATOM      7  C   UNL     1       0.445   9.832  19.003  0.00  0.00    +0.000 A 
ATOM      8  C   UNL     1      -0.384  10.633  19.801  0.00  0.00    +0.000 A 
ATOM      9  C   UNL     1      -0.258  10.463  21.179  0.00  0.00    +0.000 A 
ATOM     10  N   UNL     1      -0.865  11.046  22.254  0.00  0.00    +0.000 N 
ATOM     11  N   UNL     1      -0.409  10.549  23.418  0.00  0.00    +0.000 NA
ATOM     12  N   UNL     1       0.506   9.632  23.126  0.00  0.00    +0.000 NA
ATOM     13  C   UNL     1       0.618   9.561  21.764  0.00  0.00    +0.000 A 
ATOM     14  C   UNL     1       1.434   8.764  20.955  0.00  0.00    +0.000 A 
ATOM     15  H   UNL     1      -1.577  11.764  22.276  0.00  0.00    +0.000 HD
ENDBRANCH   3   6
BRANCH   1  21
ATOM     16  O   UNL     1       5.743   5.269  19.713  0.00  0.00    +0.000 OA
ATOM     17  C   UNL     1       4.756   4.809  19.162  0.00  0.00    +0.000 C 
ATOM     18  N   UNL     1       3.960   3.824  19.715  0.00  0.00    +0.000 N 
ATOM     19  C   UNL     1       2.789   3.569  18.937  0.00  0.00    +0.000 C 
ATOM     20  C   UNL     1       3.185   4.051  17.552  0.00  0.00    +0.000 C 
ATOM     21  C   UNL     1       4.162   5.229  17.814  0.00  0.00    +0.000 C 
ATOM     22  H   UNL     1       4.125   3.502  20.662  0.00  0.00    +0.000 HD
BRANCH  21  23
ATOM     23  C   UNL     1       5.189   5.379  16.660  0.00  0.00    +0.000 C 
ATOM     24  C   UNL     1       4.856   4.602  15.377  0.00  0.00    +0.000 C 
ATOM     25  C   UNL     1       6.176   4.448  14.625  0.00  0.00    +0.000 C 
ATOM     26  C   UNL     1       7.287   4.778  15.612  0.00  0.00    +0.000 C 
ATOM     27  C   UNL     1       6.617   4.915  16.970  0.00  0.00    +0.000 C 
ENDBRANCH  21  23
ENDBRANCH   1  21
TORSDOF 3
ENDMDL
MODEL 8
REMARK VINA RESULT:      -8.6      2.947      7.902
REMARK  Name = 
REMARK  3 active torsions:
REMARK  status: ('A' for Active; 'I' for Inactive)
REMARK    1  A    between atoms: C_6  and  C_7
REMARK    2  A    between atoms: C_6  and  C_21
REMARK    3  A    between atoms: C_9  and  C_10
REMARK                            x       y       z     vdW  Elec       q    Type
REMARK                         _______ _______ _______ _____ _____    ______ ____
ROOT
ATOM      1  C   UNL     1       1.096   9.516  18.792  0.00  0.00    +0.000 A 
ATOM      2  N   UNL     1       1.646   8.422  19.269  0.00  0.00    +0.000 NA
ATOM      3  C   UNL     1       2.519   8.061  18.262  0.00  0.00    +0.000 A 
ATOM      4  N   UNL     1       2.519   8.901  17.216  0.00  0.00    +0.000 NA
ATOM      5  O   UNL     1       1.583   9.863  17.564  0.00  0.00    +0.000 OA
ENDROOT
BRANCH   3   6
ATOM      6  C   UNL     1       3.340   6.863  18.336  0.00  0.00    +0.000 A 
ATOM      7  C   UNL     1       4.454   6.696  17.492  0.00  0.00    +0.000 A 
ATOM      8  C   UNL     1       5.250   5.543  17.527  0.00  0.00    +0.000 A 
ATOM      9  C   UNL     1       4.872   4.566  18.448  0.00  0.00    +0.000 A 
ATOM     10  N   UNL     1       5.374   3.337  18.768  0.00  0.00    +0.000 N 
ATOM     11  N   UNL     1       4.662   2.742  19.742  0.00  0.00    +0.000 NA
ATOM     12  N   UNL     1       3.679   3.571  20.077  0.00  0.00    +0.000 NA
ATOM     13  C   UNL     1       3.786   4.693  19.300  0.00  0.00    +0.000 A 
ATOM     14  C   UNL     1       3.004   5.852  19.258  0.00  0.00    +0.000 A 
ATOM     15  H   UNL     1       6.172   2.850  18.382  0.00  0.00    +0.000 HD
ENDBRANCH   3   6
BRANCH   1  21
ATOM     16  O   UNL     1       1.115  12.626  19.032  0.00  0.00    +0.000 OA
ATOM     17  C   UNL     1       0.257  11.798  18.771  0.00  0.00    +0.000 C 
ATOM     18  N   UNL     1      -0.694  11.967  17.783  0.00  0.00    +0.000 N 
ATOM     19  C   UNL     1      -1.483  10.793  17.580  0.00  0.00    +0.000 C 
ATOM     20  C   UNL     1      -1.352  10.058  18.903  0.00  0.00    +0.000 C 
ATOM     21  C   UNL     1       0.071  10.418  19.409  0.00  0.00    +0.000 C 
ATOM     22  H   UNL     1      -0.657  12.771  17.167  0.00  0.00    +0.000 HD
BRANCH  21  23
ATOM     23  C   UNL     1       0.143  10.394  20.959  0.00  0.00    +0.000 C 
ATOM     24  C   UNL     1      -0.177   9.040  21.612  0.00  0.00    +0.000 C 
ATOM     25  C   UNL     1      -0.570   9.352  23.055  0.00  0.00    +0.000 C 
ATOM     26  C   UNL     1      -0.842  10.849  23.124  0.00  0.00    +0.000 C 
ATOM     27  C   UNL     1      -0.809  11.349  21.688  0.00  0.00    +0.000 C 
ENDBRANCH  21  23
ENDBRANCH   1  21
TORSDOF 3
ENDMDL
MODEL 9
REMARK VINA RESULT:      -8.6      0.793      1.545
REMARK  Name = 
REMARK  3 active torsions:
REMARK  status: ('A' for Active; 'I' for Inactive)
REMARK    1  A    between atoms: C_6  and  C_7
REMARK    2  A    between atoms: C_6  and  C_21
REMARK    3  A    between atoms: C_9  and  C_10
REMARK                            x       y       z     vdW  Elec       q    Type
REMARK                         _______ _______ _______ _____ _____    ______ ____
ROOT
ATOM      1  C   UNL     1       3.001   5.184  18.953  0.00  0.00    +0.000 A 
ATOM      2  N   UNL     1       2.752   6.467  18.815  0.00  0.00    +0.000 NA
ATOM      3  C   UNL     1       2.083   6.770  19.984  0.00  0.00    +0.000 A 
ATOM      4  N   UNL     1       1.937   5.725  20.813  0.00  0.00    +0.000 NA
ATOM      5  O   UNL     1       2.544   4.678  20.136  0.00  0.00    +0.000 OA
ENDROOT
BRANCH   3   6
ATOM      6  C   UNL     1       1.571   8.102  20.264  0.00  0.00    +0.000 A 
ATOM      7  C   UNL     1       1.192   8.471  21.569  0.00  0.00    +0.000 A 
ATOM      8  C   UNL     1       0.675   9.740  21.863  0.00  0.00    +0.000 A 
ATOM      9  C   UNL     1       0.555  10.618  20.787  0.00  0.00    +0.000 A 
ATOM     10  N   UNL     1       0.101  11.900  20.670  0.00  0.00    +0.000 N 
ATOM     11  N   UNL     1       0.177  12.346  19.403  0.00  0.00    +0.000 NA
ATOM     12  N   UNL     1       0.681  11.363  18.666  0.00  0.00    +0.000 NA
ATOM     13  C   UNL     1       0.920  10.295  19.489  0.00  0.00    +0.000 A 
ATOM     14  C   UNL     1       1.440   9.027  19.210  0.00  0.00    +0.000 A 
ATOM     15  H   UNL     1      -0.263  12.518  21.383  0.00  0.00    +0.000 HD
ENDBRANCH   3   6
BRANCH   1  21
ATOM     16  O   UNL     1       5.209   3.088  19.634  0.00  0.00    +0.000 OA
ATOM     17  C   UNL     1       4.236   3.090  18.898  0.00  0.00    +0.000 C 
ATOM     18  N   UNL     1       3.380   2.014  18.760  0.00  0.00    +0.000 N 
ATOM     19  C   UNL     1       2.241   2.324  17.955  0.00  0.00    +0.000 C 
ATOM     20  C   UNL     1       2.722   3.495  17.116  0.00  0.00    +0.000 C 
ATOM     21  C   UNL     1       3.724   4.246  18.034  0.00  0.00    +0.000 C 
ATOM     22  H   UNL     1       3.488   1.194  19.346  0.00  0.00    +0.000 HD
BRANCH  21  23
ATOM     23  C   UNL     1       4.811   4.979  17.204  0.00  0.00    +0.000 C 
ATOM     24  C   UNL     1       5.591   4.097  16.216  0.00  0.00    +0.000 C 
ATOM     25  C   UNL     1       6.894   4.841  15.927  0.00  0.00    +0.000 C 
ATOM     26  C   UNL     1       7.035   5.914  16.998  0.00  0.00    +0.000 C 
ATOM     27  C   UNL     1       5.931   5.648  18.010  0.00  0.00    +0.000 C 
ENDBRANCH  21  23
ENDBRANCH   1  21
TORSDOF 3
ENDMDL
