MODEL 1
REMARK VINA RESULT:      -9.4      0.000      0.000
REMARK  Name = 
REMARK  6 active torsions:
REMARK  status: ('A' for Active; 'I' for Inactive)
REMARK    1  A    between atoms: C_2  and  C_4
REMARK    2  A    between atoms: C_6  and  N_7
REMARK    3  A    between atoms: C_8  and  C_10
REMARK    4  A    between atoms: N_12  and  C_13
REMARK    5  A    between atoms: C_13  and  C_14
REMARK    6  A    between atoms: C_21  and  C_22
REMARK                            x       y       z     vdW  Elec       q    Type
REMARK                         _______ _______ _______ _____ _____    ______ ____
ROOT
ATOM      1  C   UNL     1       3.729   6.459  17.776  0.00  0.00    +0.000 A 
ATOM      2  C   UNL     1       4.810   6.749  16.965  0.00  0.00    +0.000 A 
ATOM      3  N   UNL     1       5.526   5.587  16.869  0.00  0.00    +0.000 N 
ATOM      4  N   UNL     1       4.894   4.528  17.406  0.00  0.00    +0.000 NA
ATOM      5  C   UNL     1       3.798   5.041  17.991  0.00  0.00    +0.000 A 
ENDROOT
BRANCH   5   6
ATOM      6  C   UNL     1       2.858   4.166  18.706  0.00  0.00    +0.000 A 
ATOM      7  C   UNL     1       1.762   3.602  18.038  0.00  0.00    +0.000 A 
ATOM      8  C   UNL     1       0.856   2.783  18.719  0.00  0.00    +0.000 A 
ATOM      9  C   UNL     1       1.035   2.515  20.075  0.00  0.00    +0.000 A 
ATOM     10  C   UNL     1       2.117   3.069  20.753  0.00  0.00    +0.000 A 
ATOM     11  C   UNL     1       3.014   3.900  20.075  0.00  0.00    +0.000 A 
ENDBRANCH   5   6
BRANCH   1  13
ATOM     12  N   UNL     1       2.314   8.399  17.551  0.00  0.00    +0.000 N 
ATOM     13  C   UNL     1       2.781   7.384  18.378  0.00  0.00    +0.000 C 
ATOM     14  O   UNL     1       2.409   7.209  19.533  0.00  0.00    +0.000 OA
ATOM     15  H   UNL     1       2.559   8.346  16.571  0.00  0.00    +0.000 HD
BRANCH  12  18
ATOM     16  C   UNL     1      -0.846  10.407  17.797  0.00  0.00    +0.000 A 
ATOM     17  C   UNL     1       0.055   9.391  17.456  0.00  0.00    +0.000 A 
ATOM     18  C   UNL     1       1.368   9.379  17.943  0.00  0.00    +0.000 A 
ATOM     19  C   UNL     1       1.756  10.375  18.844  0.00  0.00    +0.000 A 
ATOM     20  C   UNL     1       0.852  11.382  19.214  0.00  0.00    +0.000 A 
ATOM     21  C   UNL     1      -0.440  11.397  18.687  0.00  0.00    +0.000 A 
ATOM     22  F   UNL     1      -1.257  12.397  19.043  0.00  0.00    +0.000 F 
BRANCH  16  24
ATOM     23  N   UNL     1      -2.472  11.297  16.220  0.00  0.00    +0.000 N 
ATOM     24  C   UNL     1      -2.217  10.410  17.235  0.00  0.00    +0.000 C 
ATOM     25  O   UNL     1      -3.092   9.662  17.642  0.00  0.00    +0.000 OA
ATOM     26  H   UNL     1      -3.411  11.312  15.844  0.00  0.00    +0.000 HD
ATOM     27  H   UNL     1      -1.823  12.001  15.905  0.00  0.00    +0.000 HD
ENDBRANCH  16  24
ENDBRANCH  12  18
ENDBRANCH   1  13
BRANCH   3  28
ATOM     28  C   UNL     1       6.842   5.406  16.263  0.00  0.00    +0.000 C 
BRANCH  28  29
ATOM     29  C   UNL     1       6.751   4.903  14.841  0.00  0.00    +0.000 A 
ATOM     30  C   UNL     1       5.766   3.974  14.466  0.00  0.00    +0.000 A 
ATOM     31  C   UNL     1       5.682   3.513  13.151  0.00  0.00    +0.000 A 
ATOM     32  C   UNL     1       6.572   3.983  12.189  0.00  0.00    +0.000 A 
ATOM     33  C   UNL     1       7.542   4.919  12.540  0.00  0.00    +0.000 A 
ATOM     34  C   UNL     1       7.631   5.379  13.857  0.00  0.00    +0.000 A 
ENDBRANCH  28  29
ENDBRANCH   3  28
TORSDOF 6
ENDMDL
MODEL 2
REMARK VINA RESULT:      -9.4      1.711      2.239
REMARK  Name = 
REMARK  6 active torsions:
REMARK  status: ('A' for Active; 'I' for Inactive)
REMARK    1  A    between atoms: C_2  and  C_4
REMARK    2  A    between atoms: C_6  and  N_7
REMARK    3  A    between atoms: C_8  and  C_10
REMARK    4  A    between atoms: N_12  and  C_13
REMARK    5  A    between atoms: C_13  and  C_14
REMARK    6  A    between atoms: C_21  and  C_22
REMARK                            x       y       z     vdW  Elec       q    Type
REMARK                         _______ _______ _______ _____ _____    ______ ____
ROOT
ATOM      1  C   UNL     1       3.790   6.503  17.551  0.00  0.00    +0.000 A 
ATOM      2  C   UNL     1       4.895   6.628  16.730  0.00  0.00    +0.000 A 
ATOM      3  N   UNL     1       5.580   5.449  16.847  0.00  0.00    +0.000 N 
ATOM      4  N   UNL     1       4.907   4.510  17.535  0.00  0.00    +0.000 NA
ATOM      5  C   UNL     1       3.815   5.139  17.999  0.00  0.00    +0.000 A 
ENDROOT
BRANCH   5   6
ATOM      6  C   UNL     1       2.835   4.419  18.825  0.00  0.00    +0.000 A 
ATOM      7  C   UNL     1       2.972   4.380  20.220  0.00  0.00    +0.000 A 
ATOM      8  C   UNL     1       2.052   3.681  21.009  0.00  0.00    +0.000 A 
ATOM      9  C   UNL     1       0.982   3.016  20.413  0.00  0.00    +0.000 A 
ATOM     10  C   UNL     1       0.833   3.044  19.029  0.00  0.00    +0.000 A 
ATOM     11  C   UNL     1       1.761   3.729  18.241  0.00  0.00    +0.000 A 
ENDBRANCH   5   6
BRANCH   1  13
ATOM     12  N   UNL     1       2.435   7.481  19.291  0.00  0.00    +0.000 N 
ATOM     13  C   UNL     1       2.856   7.538  17.967  0.00  0.00    +0.000 C 
ATOM     14  O   UNL     1       2.525   8.414  17.175  0.00  0.00    +0.000 OA
ATOM     15  H   UNL     1       2.902   6.818  19.896  0.00  0.00    +0.000 HD
BRANCH  12  18
ATOM     16  C   UNL     1       0.320  10.525  19.868  0.00  0.00    +0.000 A 
ATOM     17  C   UNL     1       1.135   9.579  19.236  0.00  0.00    +0.000 A 
ATOM     18  C   UNL     1       1.551   8.413  19.890  0.00  0.00    +0.000 A 
ATOM     19  C   UNL     1       1.078   8.167  21.182  0.00  0.00    +0.000 A 
ATOM     20  C   UNL     1       0.238   9.095  21.814  0.00  0.00    +0.000 A 
ATOM     21  C   UNL     1      -0.133  10.270  21.159  0.00  0.00    +0.000 A 
ATOM     22  F   UNL     1      -0.910  11.143  21.814  0.00  0.00    +0.000 F 
BRANCH  16  24
ATOM     23  N   UNL     1      -0.858  11.626  18.045  0.00  0.00    +0.000 N 
ATOM     24  C   UNL     1      -0.072  11.767  19.160  0.00  0.00    +0.000 C 
ATOM     25  O   UNL     1       0.278  12.874  19.539  0.00  0.00    +0.000 OA
ATOM     26  H   UNL     1      -1.116  12.470  17.550  0.00  0.00    +0.000 HD
ATOM     27  H   UNL     1      -1.101  10.740  17.629  0.00  0.00    +0.000 HD
ENDBRANCH  16  24
ENDBRANCH  12  18
ENDBRANCH   1  13
BRANCH   3  28
ATOM     28  C   UNL     1       6.903   5.138  16.312  0.00  0.00    +0.000 C 
BRANCH  28  29
ATOM     29  C   UNL     1       6.858   4.797  14.840  0.00  0.00    +0.000 A 
ATOM     30  C   UNL     1       7.739   5.406  13.931  0.00  0.00    +0.000 A 
ATOM     31  C   UNL     1       7.698   5.087  12.573  0.00  0.00    +0.000 A 
ATOM     32  C   UNL     1       6.786   4.145  12.106  0.00  0.00    +0.000 A 
ATOM     33  C   UNL     1       5.919   3.516  12.997  0.00  0.00    +0.000 A 
ATOM     34  C   UNL     1       5.954   3.838  14.356  0.00  0.00    +0.000 A 
ENDBRANCH  28  29
ENDBRANCH   3  28
TORSDOF 6
ENDMDL
MODEL 3
REMARK VINA RESULT:      -9.4      2.116      2.749
REMARK  Name = 
REMARK  6 active torsions:
REMARK  status: ('A' for Active; 'I' for Inactive)
REMARK    1  A    between atoms: C_2  and  C_4
REMARK    2  A    between atoms: C_6  and  N_7
REMARK    3  A    between atoms: C_8  and  C_10
REMARK    4  A    between atoms: N_12  and  C_13
REMARK    5  A    between atoms: C_13  and  C_14
REMARK    6  A    between atoms: C_21  and  C_22
REMARK                            x       y       z     vdW  Elec       q    Type
REMARK                         _______ _______ _______ _____ _____    ______ ____
ROOT
ATOM      1  C   UNL     1       3.890   6.600  17.420  0.00  0.00    +0.000 A 
ATOM      2  C   UNL     1       4.987   6.639  16.579  0.00  0.00    +0.000 A 
ATOM      3  N   UNL     1       5.629   5.443  16.750  0.00  0.00    +0.000 N 
ATOM      4  N   UNL     1       4.933   4.568  17.497  0.00  0.00    +0.000 NA
ATOM      5  C   UNL     1       3.871   5.263  17.941  0.00  0.00    +0.000 A 
ENDROOT
BRANCH   5   6
ATOM      6  C   UNL     1       2.879   4.624  18.818  0.00  0.00    +0.000 A 
ATOM      7  C   UNL     1       3.033   4.661  20.211  0.00  0.00    +0.000 A 
ATOM      8  C   UNL     1       2.100   4.041  21.048  0.00  0.00    +0.000 A 
ATOM      9  C   UNL     1       1.000   3.379  20.504  0.00  0.00    +0.000 A 
ATOM     10  C   UNL     1       0.835   3.332  19.122  0.00  0.00    +0.000 A 
ATOM     11  C   UNL     1       1.775   3.940  18.286  0.00  0.00    +0.000 A 
ENDBRANCH   5   6
BRANCH   1  13
ATOM     12  N   UNL     1       2.410   7.592  19.046  0.00  0.00    +0.000 N 
ATOM     13  C   UNL     1       3.001   7.690  17.792  0.00  0.00    +0.000 C 
ATOM     14  O   UNL     1       2.851   8.640  17.030  0.00  0.00    +0.000 OA
ATOM     15  H   UNL     1       2.737   6.853  19.654  0.00  0.00    +0.000 HD
BRANCH  12  18
ATOM     16  C   UNL     1       0.374   9.575  21.495  0.00  0.00    +0.000 A 
ATOM     17  C   UNL     1       1.294   8.658  20.973  0.00  0.00    +0.000 A 
ATOM     18  C   UNL     1       1.538   8.563  19.597  0.00  0.00    +0.000 A 
ATOM     19  C   UNL     1       0.891   9.459  18.741  0.00  0.00    +0.000 A 
ATOM     20  C   UNL     1      -0.011  10.401  19.257  0.00  0.00    +0.000 A 
ATOM     21  C   UNL     1      -0.270  10.452  20.628  0.00  0.00    +0.000 A 
ATOM     22  F   UNL     1      -1.164  11.346  21.071  0.00  0.00    +0.000 F 
BRANCH  16  24
ATOM     23  N   UNL     1      -1.201   9.684  23.348  0.00  0.00    +0.000 N 
ATOM     24  C   UNL     1       0.112   9.623  22.953  0.00  0.00    +0.000 C 
ATOM     25  O   UNL     1       1.010   9.607  23.780  0.00  0.00    +0.000 OA
ATOM     26  H   UNL     1      -1.383   9.732  24.342  0.00  0.00    +0.000 HD
ATOM     27  H   UNL     1      -1.979   9.794  22.716  0.00  0.00    +0.000 HD
ENDBRANCH  16  24
ENDBRANCH  12  18
ENDBRANCH   1  13
BRANCH   3  28
ATOM     28  C   UNL     1       6.931   5.055  16.215  0.00  0.00    +0.000 C 
BRANCH  28  29
ATOM     29  C   UNL     1       6.864   4.705  14.746  0.00  0.00    +0.000 A 
ATOM     30  C   UNL     1       5.886   3.822  14.259  0.00  0.00    +0.000 A 
ATOM     31  C   UNL     1       5.824   3.502  12.902  0.00  0.00    +0.000 A 
ATOM     32  C   UNL     1       6.728   4.072  12.009  0.00  0.00    +0.000 A 
ATOM     33  C   UNL     1       7.692   4.965  12.473  0.00  0.00    +0.000 A 
ATOM     34  C   UNL     1       7.759   5.282  13.832  0.00  0.00    +0.000 A 
ENDBRANCH  28  29
ENDBRANCH   3  28
TORSDOF 6
ENDMDL
MODEL 4
REMARK VINA RESULT:      -9.4      1.694      1.853
REMARK  Name = 
REMARK  6 active torsions:
REMARK  status: ('A' for Active; 'I' for Inactive)
REMARK    1  A    between atoms: C_2  and  C_4
REMARK    2  A    between atoms: C_6  and  N_7
REMARK    3  A    between atoms: C_8  and  C_10
REMARK    4  A    between atoms: N_12  and  C_13
REMARK    5  A    between atoms: C_13  and  C_14
REMARK    6  A    between atoms: C_21  and  C_22
REMARK                            x       y       z     vdW  Elec       q    Type
REMARK                         _______ _______ _______ _____ _____    ______ ____
ROOT
ATOM      1  C   UNL     1       3.815   6.505  17.542  0.00  0.00    +0.000 A 
ATOM      2  C   UNL     1       4.923   6.633  16.724  0.00  0.00    +0.000 A 
ATOM      3  N   UNL     1       5.606   5.453  16.837  0.00  0.00    +0.000 N 
ATOM      4  N   UNL     1       4.932   4.511  17.519  0.00  0.00    +0.000 NA
ATOM      5  C   UNL     1       3.838   5.139  17.983  0.00  0.00    +0.000 A 
ENDROOT
BRANCH   5   6
ATOM      6  C   UNL     1       2.855   4.415  18.803  0.00  0.00    +0.000 A 
ATOM      7  C   UNL     1       1.779   3.748  18.201  0.00  0.00    +0.000 A 
ATOM      8  C   UNL     1       0.833   3.073  18.979  0.00  0.00    +0.000 A 
ATOM      9  C   UNL     1       0.953   3.052  20.367  0.00  0.00    +0.000 A 
ATOM     10  C   UNL     1       2.015   3.710  20.980  0.00  0.00    +0.000 A 
ATOM     11  C   UNL     1       2.952   4.398  20.203  0.00  0.00    +0.000 A 
ENDBRANCH   5   6
BRANCH   1  13
ATOM     12  N   UNL     1       2.446   7.467  19.279  0.00  0.00    +0.000 N 
ATOM     13  C   UNL     1       2.880   7.538  17.960  0.00  0.00    +0.000 C 
ATOM     14  O   UNL     1       2.561   8.424  17.174  0.00  0.00    +0.000 OA
ATOM     15  H   UNL     1       2.904   6.795  19.880  0.00  0.00    +0.000 HD
BRANCH  12  18
ATOM     16  C   UNL     1       0.285  10.482  19.841  0.00  0.00    +0.000 A 
ATOM     17  C   UNL     1       1.103   9.538  19.210  0.00  0.00    +0.000 A 
ATOM     18  C   UNL     1       1.559   8.395  19.879  0.00  0.00    +0.000 A 
ATOM     19  C   UNL     1       1.125   8.170  21.189  0.00  0.00    +0.000 A 
ATOM     20  C   UNL     1       0.282   9.096  21.821  0.00  0.00    +0.000 A 
ATOM     21  C   UNL     1      -0.129  10.248  21.149  0.00  0.00    +0.000 A 
ATOM     22  F   UNL     1      -0.906  11.120  21.805  0.00  0.00    +0.000 F 
BRANCH  16  24
ATOM     23  N   UNL     1      -0.886  11.513  17.974  0.00  0.00    +0.000 N 
ATOM     24  C   UNL     1      -0.150  11.699  19.116  0.00  0.00    +0.000 C 
ATOM     25  O   UNL     1       0.124  12.824  19.504  0.00  0.00    +0.000 OA
ATOM     26  H   UNL     1      -1.173  12.341  17.468  0.00  0.00    +0.000 HD
ATOM     27  H   UNL     1      -1.064  10.614  17.553  0.00  0.00    +0.000 HD
ENDBRANCH  16  24
ENDBRANCH  12  18
ENDBRANCH   1  13
BRANCH   3  28
ATOM     28  C   UNL     1       6.930   5.144  16.305  0.00  0.00    +0.000 C 
BRANCH  28  29
ATOM     29  C   UNL     1       6.885   4.782  14.837  0.00  0.00    +0.000 A 
ATOM     30  C   UNL     1       5.967   3.835  14.356  0.00  0.00    +0.000 A 
ATOM     31  C   UNL     1       5.926   3.505  13.000  0.00  0.00    +0.000 A 
ATOM     32  C   UNL     1       6.791   4.127  12.104  0.00  0.00    +0.000 A 
ATOM     33  C   UNL     1       7.694   5.084  12.563  0.00  0.00    +0.000 A 
ATOM     34  C   UNL     1       7.741   5.412  13.920  0.00  0.00    +0.000 A 
ENDBRANCH  28  29
ENDBRANCH   3  28
TORSDOF 6
ENDMDL
MODEL 5
REMARK VINA RESULT:      -9.4      1.570      1.894
REMARK  Name = 
REMARK  6 active torsions:
REMARK  status: ('A' for Active; 'I' for Inactive)
REMARK    1  A    between atoms: C_2  and  C_4
REMARK    2  A    between atoms: C_6  and  N_7
REMARK    3  A    between atoms: C_8  and  C_10
REMARK    4  A    between atoms: N_12  and  C_13
REMARK    5  A    between atoms: C_13  and  C_14
REMARK    6  A    between atoms: C_21  and  C_22
REMARK                            x       y       z     vdW  Elec       q    Type
REMARK                         _______ _______ _______ _____ _____    ______ ____
ROOT
ATOM      1  C   UNL     1       3.821   6.531  17.535  0.00  0.00    +0.000 A 
ATOM      2  C   UNL     1       4.931   6.640  16.718  0.00  0.00    +0.000 A 
ATOM      3  N   UNL     1       5.592   5.447  16.826  0.00  0.00    +0.000 N 
ATOM      4  N   UNL     1       4.900   4.516  17.506  0.00  0.00    +0.000 NA
ATOM      5  C   UNL     1       3.818   5.163  17.972  0.00  0.00    +0.000 A 
ENDROOT
BRANCH   5   6
ATOM      6  C   UNL     1       2.823   4.454  18.790  0.00  0.00    +0.000 A 
ATOM      7  C   UNL     1       2.948   4.414  20.186  0.00  0.00    +0.000 A 
ATOM      8  C   UNL     1       2.013   3.727  20.967  0.00  0.00    +0.000 A 
ATOM      9  C   UNL     1       0.939   3.075  20.362  0.00  0.00    +0.000 A 
ATOM     10  C   UNL     1       0.803   3.104  18.978  0.00  0.00    +0.000 A 
ATOM     11  C   UNL     1       1.746   3.778  18.197  0.00  0.00    +0.000 A 
ENDBRANCH   5   6
BRANCH   1  13
ATOM     12  N   UNL     1       2.397   7.460  19.246  0.00  0.00    +0.000 N 
ATOM     13  C   UNL     1       2.906   7.580  17.958  0.00  0.00    +0.000 C 
ATOM     14  O   UNL     1       2.666   8.518  17.204  0.00  0.00    +0.000 OA
ATOM     15  H   UNL     1       2.794   6.740  19.834  0.00  0.00    +0.000 HD
BRANCH  12  18
ATOM     16  C   UNL     1       0.036  10.337  19.725  0.00  0.00    +0.000 A 
ATOM     17  C   UNL     1       0.847   9.377  19.107  0.00  0.00    +0.000 A 
ATOM     18  C   UNL     1       1.515   8.393  19.846  0.00  0.00    +0.000 A 
ATOM     19  C   UNL     1       1.305   8.337  21.227  0.00  0.00    +0.000 A 
ATOM     20  C   UNL     1       0.472   9.277  21.852  0.00  0.00    +0.000 A 
ATOM     21  C   UNL     1      -0.154  10.273  21.102  0.00  0.00    +0.000 A 
ATOM     22  F   UNL     1      -0.913  11.169  21.746  0.00  0.00    +0.000 F 
BRANCH  16  24
ATOM     23  N   UNL     1       0.185  12.309  18.308  0.00  0.00    +0.000 N 
ATOM     24  C   UNL     1      -0.627  11.387  18.917  0.00  0.00    +0.000 C 
ATOM     25  O   UNL     1      -1.840  11.443  18.785  0.00  0.00    +0.000 OA
ATOM     26  H   UNL     1      -0.264  13.037  17.767  0.00  0.00    +0.000 HD
ATOM     27  H   UNL     1       1.181  12.373  18.453  0.00  0.00    +0.000 HD
ENDBRANCH  16  24
ENDBRANCH  12  18
ENDBRANCH   1  13
BRANCH   3  28
ATOM     28  C   UNL     1       6.910   5.116  16.293  0.00  0.00    +0.000 C 
BRANCH  28  29
ATOM     29  C   UNL     1       6.856   4.751  14.826  0.00  0.00    +0.000 A 
ATOM     30  C   UNL     1       5.922   3.816  14.349  0.00  0.00    +0.000 A 
ATOM     31  C   UNL     1       5.873   3.483  12.994  0.00  0.00    +0.000 A 
ATOM     32  C   UNL     1       6.746   4.090  12.095  0.00  0.00    +0.000 A 
ATOM     33  C   UNL     1       7.664   5.034  12.549  0.00  0.00    +0.000 A 
ATOM     34  C   UNL     1       7.720   5.365  13.905  0.00  0.00    +0.000 A 
ENDBRANCH  28  29
ENDBRANCH   3  28
TORSDOF 6
ENDMDL
MODEL 6
REMARK VINA RESULT:      -9.4      0.114      1.229
REMARK  Name = 
REMARK  6 active torsions:
REMARK  status: ('A' for Active; 'I' for Inactive)
REMARK    1  A    between atoms: C_2  and  C_4
REMARK    2  A    between atoms: C_6  and  N_7
REMARK    3  A    between atoms: C_8  and  C_10
REMARK    4  A    between atoms: N_12  and  C_13
REMARK    5  A    between atoms: C_13  and  C_14
REMARK    6  A    between atoms: C_21  and  C_22
REMARK                            x       y       z     vdW  Elec       q    Type
REMARK                         _______ _______ _______ _____ _____    ______ ____
ROOT
ATOM      1  C   UNL     1       3.653   6.485  17.816  0.00  0.00    +0.000 A 
ATOM      2  C   UNL     1       4.720   6.775  16.986  0.00  0.00    +0.000 A 
ATOM      3  N   UNL     1       5.455   5.623  16.908  0.00  0.00    +0.000 N 
ATOM      4  N   UNL     1       4.847   4.566  17.475  0.00  0.00    +0.000 NA
ATOM      5  C   UNL     1       3.749   5.074  18.061  0.00  0.00    +0.000 A 
ENDROOT
BRANCH   5   6
ATOM      6  C   UNL     1       2.830   4.199  18.805  0.00  0.00    +0.000 A 
ATOM      7  C   UNL     1       3.096   3.862  20.140  0.00  0.00    +0.000 A 
ATOM      8  C   UNL     1       2.234   3.016  20.847  0.00  0.00    +0.000 A 
ATOM      9  C   UNL     1       1.095   2.502  20.230  0.00  0.00    +0.000 A 
ATOM     10  C   UNL     1       0.820   2.826  18.904  0.00  0.00    +0.000 A 
ATOM     11  C   UNL     1       1.689   3.658  18.194  0.00  0.00    +0.000 A 
ENDBRANCH   5   6
BRANCH   1  13
ATOM     12  N   UNL     1       2.292   8.465  17.600  0.00  0.00    +0.000 N 
ATOM     13  C   UNL     1       2.696   7.407  18.407  0.00  0.00    +0.000 C 
ATOM     14  O   UNL     1       2.263   7.196  19.535  0.00  0.00    +0.000 OA
ATOM     15  H   UNL     1       2.585   8.445  16.632  0.00  0.00    +0.000 HD
BRANCH  12  18
ATOM     16  C   UNL     1      -0.871  10.466  17.854  0.00  0.00    +0.000 A 
ATOM     17  C   UNL     1       0.028   9.445  17.522  0.00  0.00    +0.000 A 
ATOM     18  C   UNL     1       1.350   9.450  17.985  0.00  0.00    +0.000 A 
ATOM     19  C   UNL     1       1.748  10.469  18.855  0.00  0.00    +0.000 A 
ATOM     20  C   UNL     1       0.847  11.481  19.216  0.00  0.00    +0.000 A 
ATOM     21  C   UNL     1      -0.454  11.479  18.712  0.00  0.00    +0.000 A 
ATOM     22  F   UNL     1      -1.270  12.483  19.058  0.00  0.00    +0.000 F 
BRANCH  16  24
ATOM     23  N   UNL     1      -2.532  11.319  16.293  0.00  0.00    +0.000 N 
ATOM     24  C   UNL     1      -2.252  10.450  17.316  0.00  0.00    +0.000 C 
ATOM     25  O   UNL     1      -3.114   9.701  17.749  0.00  0.00    +0.000 OA
ATOM     26  H   UNL     1      -3.477  11.322  15.932  0.00  0.00    +0.000 HD
ATOM     27  H   UNL     1      -1.894  12.024  15.956  0.00  0.00    +0.000 HD
ENDBRANCH  16  24
ENDBRANCH  12  18
ENDBRANCH   1  13
BRANCH   3  28
ATOM     28  C   UNL     1       6.767   5.451  16.292  0.00  0.00    +0.000 C 
BRANCH  28  29
ATOM     29  C   UNL     1       6.669   4.925  14.878  0.00  0.00    +0.000 A 
ATOM     30  C   UNL     1       7.607   5.301  13.902  0.00  0.00    +0.000 A 
ATOM     31  C   UNL     1       7.516   4.811  12.598  0.00  0.00    +0.000 A 
ATOM     32  C   UNL     1       6.496   3.928  12.254  0.00  0.00    +0.000 A 
ATOM     33  C   UNL     1       5.570   3.529  13.216  0.00  0.00    +0.000 A 
ATOM     34  C   UNL     1       5.655   4.022  14.520  0.00  0.00    +0.000 A 
ENDBRANCH  28  29
ENDBRANCH   3  28
TORSDOF 6
ENDMDL
MODEL 7
REMARK VINA RESULT:      -9.4      1.586      1.914
REMARK  Name = 
REMARK  6 active torsions:
REMARK  status: ('A' for Active; 'I' for Inactive)
REMARK    1  A    between atoms: C_2  and  C_4
REMARK    2  A    between atoms: C_6  and  N_7
REMARK    3  A    between atoms: C_8  and  C_10
REMARK    4  A    between atoms: N_12  and  C_13
REMARK    5  A    between atoms: C_13  and  C_14
REMARK    6  A    between atoms: C_21  and  C_22
REMARK                            x       y       z     vdW  Elec       q    Type
REMARK                         _______ _______ _______ _____ _____    ______ ____
ROOT
ATOM      1  C   UNL     1       3.794   6.583  17.556  0.00  0.00    +0.000 A 
ATOM      2  C   UNL     1       4.898   6.710  16.734  0.00  0.00    +0.000 A 
ATOM      3  N   UNL     1       5.583   5.530  16.847  0.00  0.00    +0.000 N 
ATOM      4  N   UNL     1       4.912   4.590  17.535  0.00  0.00    +0.000 NA
ATOM      5  C   UNL     1       3.819   5.218  18.001  0.00  0.00    +0.000 A 
ENDROOT
BRANCH   5   6
ATOM      6  C   UNL     1       2.841   4.496  18.827  0.00  0.00    +0.000 A 
ATOM      7  C   UNL     1       1.780   3.801  18.229  0.00  0.00    +0.000 A 
ATOM      8  C   UNL     1       0.837   3.126  19.011  0.00  0.00    +0.000 A 
ATOM      9  C   UNL     1       0.945   3.135  20.401  0.00  0.00    +0.000 A 
ATOM     10  C   UNL     1       1.991   3.822  21.010  0.00  0.00    +0.000 A 
ATOM     11  C   UNL     1       2.925   4.508  20.228  0.00  0.00    +0.000 A 
ENDBRANCH   5   6
BRANCH   1  13
ATOM     12  N   UNL     1       2.405   7.530  19.286  0.00  0.00    +0.000 N 
ATOM     13  C   UNL     1       2.860   7.617  17.975  0.00  0.00    +0.000 C 
ATOM     14  O   UNL     1       2.559   8.517  17.198  0.00  0.00    +0.000 OA
ATOM     15  H   UNL     1       2.849   6.846  19.885  0.00  0.00    +0.000 HD
BRANCH  12  18
ATOM     16  C   UNL     1       0.035  10.398  19.769  0.00  0.00    +0.000 A 
ATOM     17  C   UNL     1       0.854   9.446  19.150  0.00  0.00    +0.000 A 
ATOM     18  C   UNL     1       1.516   8.455  19.887  0.00  0.00    +0.000 A 
ATOM     19  C   UNL     1       1.290   8.384  21.264  0.00  0.00    +0.000 A 
ATOM     20  C   UNL     1       0.449   9.316  21.890  0.00  0.00    +0.000 A 
ATOM     21  C   UNL     1      -0.170  10.320  21.143  0.00  0.00    +0.000 A 
ATOM     22  F   UNL     1      -0.938  11.208  21.788  0.00  0.00    +0.000 F 
BRANCH  16  24
ATOM     23  N   UNL     1       0.197  12.385  18.373  0.00  0.00    +0.000 N 
ATOM     24  C   UNL     1      -0.620  11.456  18.964  0.00  0.00    +0.000 C 
ATOM     25  O   UNL     1      -1.832  11.512  18.821  0.00  0.00    +0.000 OA
ATOM     26  H   UNL     1      -0.247  13.118  17.835  0.00  0.00    +0.000 HD
ATOM     27  H   UNL     1       1.191  12.448  18.529  0.00  0.00    +0.000 HD
ENDBRANCH  16  24
ENDBRANCH  12  18
ENDBRANCH   1  13
BRANCH   3  28
ATOM     28  C   UNL     1       6.905   5.221  16.311  0.00  0.00    +0.000 C 
BRANCH  28  29
ATOM     29  C   UNL     1       6.853   4.838  14.849  0.00  0.00    +0.000 A 
ATOM     30  C   UNL     1       7.739   5.410  13.921  0.00  0.00    +0.000 A 
ATOM     31  C   UNL     1       7.691   5.052  12.573  0.00  0.00    +0.000 A 
ATOM     32  C   UNL     1       6.766   4.107  12.135  0.00  0.00    +0.000 A 
ATOM     33  C   UNL     1       5.894   3.515  13.046  0.00  0.00    +0.000 A 
ATOM     34  C   UNL     1       5.937   3.876  14.395  0.00  0.00    +0.000 A 
ENDBRANCH  28  29
ENDBRANCH   3  28
TORSDOF 6
ENDMDL
MODEL 8
REMARK VINA RESULT:      -9.3      2.103      2.760
REMARK  Name = 
REMARK  6 active torsions:
REMARK  status: ('A' for Active; 'I' for Inactive)
REMARK    1  A    between atoms: C_2  and  C_4
REMARK    2  A    between atoms: C_6  and  N_7
REMARK    3  A    between atoms: C_8  and  C_10
REMARK    4  A    between atoms: N_12  and  C_13
REMARK    5  A    between atoms: C_13  and  C_14
REMARK    6  A    between atoms: C_21  and  C_22
REMARK                            x       y       z     vdW  Elec       q    Type
REMARK                         _______ _______ _______ _____ _____    ______ ____
ROOT
ATOM      1  C   UNL     1       3.981   6.474  17.414  0.00  0.00    +0.000 A 
ATOM      2  C   UNL     1       5.073   6.467  16.566  0.00  0.00    +0.000 A 
ATOM      3  N   UNL     1       5.656   5.239  16.721  0.00  0.00    +0.000 N 
ATOM      4  N   UNL     1       4.923   4.392  17.464  0.00  0.00    +0.000 NA
ATOM      5  C   UNL     1       3.900   5.133  17.922  0.00  0.00    +0.000 A 
ENDROOT
BRANCH   5   6
ATOM      6  C   UNL     1       2.882   4.536  18.799  0.00  0.00    +0.000 A 
ATOM      7  C   UNL     1       1.760   3.896  18.254  0.00  0.00    +0.000 A 
ATOM      8  C   UNL     1       0.781   3.342  19.086  0.00  0.00    +0.000 A 
ATOM      9  C   UNL     1       0.914   3.417  20.472  0.00  0.00    +0.000 A 
ATOM     10  C   UNL     1       2.022   4.051  21.027  0.00  0.00    +0.000 A 
ATOM     11  C   UNL     1       2.992   4.617  20.196  0.00  0.00    +0.000 A 
ENDBRANCH   5   6
BRANCH   1  13
ATOM     12  N   UNL     1       2.423   7.447  18.978  0.00  0.00    +0.000 N 
ATOM     13  C   UNL     1       3.149   7.602  17.802  0.00  0.00    +0.000 C 
ATOM     14  O   UNL     1       3.157   8.626  17.126  0.00  0.00    +0.000 OA
ATOM     15  H   UNL     1       2.623   6.629  19.539  0.00  0.00    +0.000 HD
BRANCH  12  18
ATOM     16  C   UNL     1       0.467   9.492  21.440  0.00  0.00    +0.000 A 
ATOM     17  C   UNL     1       1.360   8.552  20.912  0.00  0.00    +0.000 A 
ATOM     18  C   UNL     1       1.580   8.440  19.533  0.00  0.00    +0.000 A 
ATOM     19  C   UNL     1       0.937   9.341  18.679  0.00  0.00    +0.000 A 
ATOM     20  C   UNL     1       0.062  10.305  19.201  0.00  0.00    +0.000 A 
ATOM     21  C   UNL     1      -0.173  10.374  20.575  0.00  0.00    +0.000 A 
ATOM     22  F   UNL     1      -1.042  11.289  21.024  0.00  0.00    +0.000 F 
BRANCH  16  24
ATOM     23  N   UNL     1      -1.075   9.525  23.323  0.00  0.00    +0.000 N 
ATOM     24  C   UNL     1       0.230   9.559  22.901  0.00  0.00    +0.000 C 
ATOM     25  O   UNL     1       1.143   9.638  23.709  0.00  0.00    +0.000 OA
ATOM     26  H   UNL     1      -1.242   9.585  24.319  0.00  0.00    +0.000 HD
ATOM     27  H   UNL     1      -1.872   9.555  22.706  0.00  0.00    +0.000 HD
ENDBRANCH  16  24
ENDBRANCH  12  18
ENDBRANCH   1  13
BRANCH   3  28
ATOM     28  C   UNL     1       6.934   4.792  16.174  0.00  0.00    +0.000 C 
BRANCH  28  29
ATOM     29  C   UNL     1       6.880   4.607  14.674  0.00  0.00    +0.000 A 
ATOM     30  C   UNL     1       7.679   5.387  13.822  0.00  0.00    +0.000 A 
ATOM     31  C   UNL     1       7.630   5.212  12.438  0.00  0.00    +0.000 A 
ATOM     32  C   UNL     1       6.792   4.246  11.886  0.00  0.00    +0.000 A 
ATOM     33  C   UNL     1       6.008   3.451  12.719  0.00  0.00    +0.000 A 
ATOM     34  C   UNL     1       6.052   3.628  14.104  0.00  0.00    +0.000 A 
ENDBRANCH  28  29
ENDBRANCH   3  28
TORSDOF 6
ENDMDL
MODEL 9
REMARK VINA RESULT:      -9.1      1.636      2.282
REMARK  Name = 
REMARK  6 active torsions:
REMARK  status: ('A' for Active; 'I' for Inactive)
REMARK    1  A    between atoms: C_2  and  C_4
REMARK    2  A    between atoms: C_6  and  N_7
REMARK    3  A    between atoms: C_8  and  C_10
REMARK    4  A    between atoms: N_12  and  C_13
REMARK    5  A    between atoms: C_13  and  C_14
REMARK    6  A    between atoms: C_21  and  C_22
REMARK                            x       y       z     vdW  Elec       q    Type
REMARK                         _______ _______ _______ _____ _____    ______ ____
ROOT
ATOM      1  C   UNL     1       3.813   6.484  17.714  0.00  0.00    +0.000 A 
ATOM      2  C   UNL     1       4.892   6.726  16.884  0.00  0.00    +0.000 A 
ATOM      3  N   UNL     1       5.573   5.542  16.804  0.00  0.00    +0.000 N 
ATOM      4  N   UNL     1       4.918   4.513  17.370  0.00  0.00    +0.000 NA
ATOM      5  C   UNL     1       3.844   5.069  17.957  0.00  0.00    +0.000 A 
ENDROOT
BRANCH   5   6
ATOM      6  C   UNL     1       2.888   4.236  18.701  0.00  0.00    +0.000 A 
ATOM      7  C   UNL     1       1.724   3.762  18.079  0.00  0.00    +0.000 A 
ATOM      8  C   UNL     1       0.803   2.984  18.789  0.00  0.00    +0.000 A 
ATOM      9  C   UNL     1       1.037   2.667  20.126  0.00  0.00    +0.000 A 
ATOM     10  C   UNL     1       2.187   3.132  20.757  0.00  0.00    +0.000 A 
ATOM     11  C   UNL     1       3.099   3.922  20.052  0.00  0.00    +0.000 A 
ENDBRANCH   5   6
BRANCH   1  13
ATOM     12  N   UNL     1       2.565   8.538  17.513  0.00  0.00    +0.000 N 
ATOM     13  C   UNL     1       2.899   7.448  18.308  0.00  0.00    +0.000 C 
ATOM     14  O   UNL     1       2.441   7.243  19.427  0.00  0.00    +0.000 OA
ATOM     15  H   UNL     1       2.869   8.517  16.549  0.00  0.00    +0.000 HD
BRANCH  12  18
ATOM     16  C   UNL     1       1.225  11.807  18.775  0.00  0.00    +0.000 A 
ATOM     17  C   UNL     1       2.116  10.826  18.325  0.00  0.00    +0.000 A 
ATOM     18  C   UNL     1       1.672   9.567  17.902  0.00  0.00    +0.000 A 
ATOM     19  C   UNL     1       0.297   9.320  17.871  0.00  0.00    +0.000 A 
ATOM     20  C   UNL     1      -0.607  10.306  18.293  0.00  0.00    +0.000 A 
ATOM     21  C   UNL     1      -0.141  11.541  18.747  0.00  0.00    +0.000 A 
ATOM     22  F   UNL     1      -1.038  12.440  19.173  0.00  0.00    +0.000 F 
BRANCH  16  24
ATOM     23  N   UNL     1       2.093  13.202  20.570  0.00  0.00    +0.000 N 
ATOM     24  C   UNL     1       1.732  13.116  19.250  0.00  0.00    +0.000 C 
ATOM     25  O   UNL     1       1.833  14.085  18.513  0.00  0.00    +0.000 OA
ATOM     26  H   UNL     1       2.425  14.099  20.902  0.00  0.00    +0.000 HD
ATOM     27  H   UNL     1       1.946  12.471  21.248  0.00  0.00    +0.000 HD
ENDBRANCH  16  24
ENDBRANCH  12  18
ENDBRANCH   1  13
BRANCH   3  28
ATOM     28  C   UNL     1       6.875   5.311  16.186  0.00  0.00    +0.000 C 
BRANCH  28  29
ATOM     29  C   UNL     1       6.753   4.837  14.755  0.00  0.00    +0.000 A 
ATOM     30  C   UNL     1       7.657   5.271  13.772  0.00  0.00    +0.000 A 
ATOM     31  C   UNL     1       7.543   4.829  12.452  0.00  0.00    +0.000 A 
ATOM     32  C   UNL     1       6.535   3.937  12.100  0.00  0.00    +0.000 A 
ATOM     33  C   UNL     1       5.642   3.481  13.068  0.00  0.00    +0.000 A 
ATOM     34  C   UNL     1       5.750   3.926  14.388  0.00  0.00    +0.000 A 
ENDBRANCH  28  29
ENDBRANCH   3  28
TORSDOF 6
ENDMDL
