MODEL 1
REMARK VINA RESULT:      -7.3      0.000      0.000
REMARK  Name = 
REMARK  7 active torsions:
REMARK  status: ('A' for Active; 'I' for Inactive)
REMARK    1  A    between atoms: C_1  and  C_2
REMARK    2  A    between atoms: C_2  and  C_3
REMARK    3  A    between atoms: C_6  and  C_7
REMARK    4  A    between atoms: C_9  and  C_10
REMARK    5  A    between atoms: C_15  and  O_16
REMARK    6  A    between atoms: N_22  and  C_23
REMARK    7  A    between atoms: C_23  and  C_24
REMARK                            x       y       z     vdW  Elec       q    Type
REMARK                         _______ _______ _______ _____ _____    ______ ____
ROOT
ATOM      1  C   UNL     1       0.594  12.665  19.459  0.00  0.00    +0.000 C 
ATOM      2  C   UNL     1      -0.827  12.611  19.885  0.00  0.00    +0.000 A 
ATOM      3  C   UNL     1      -2.099  12.124  19.526  0.00  0.00    +0.000 A 
ATOM      4  N   UNL     1      -2.964  12.355  20.549  0.00  0.00    +0.000 NA
ATOM      5  N   UNL     1      -2.240  13.003  21.497  0.00  0.00    +0.000 N 
ATOM      6  C   UNL     1      -0.960  13.155  21.127  0.00  0.00    +0.000 A 
ATOM      7  C   UNL     1       0.264  13.636  21.647  0.00  0.00    +0.000 C 
ATOM      8  O   UNL     1       0.455  14.201  22.707  0.00  0.00    +0.000 OA
ATOM      9  N   UNL     1       1.191  13.314  20.654  0.00  0.00    +0.000 N 
ATOM     10  H   UNL     1      -2.688  13.256  22.373  0.00  0.00    +0.000 HD
ENDROOT
BRANCH   1  14
ATOM     11  C   UNL     1       1.876   8.574  18.743  0.00  0.00    +0.000 A 
ATOM     12  C   UNL     1       2.176   9.595  17.834  0.00  0.00    +0.000 A 
ATOM     13  C   UNL     1       1.777  10.913  18.088  0.00  0.00    +0.000 A 
ATOM     14  C   UNL     1       1.079  11.240  19.261  0.00  0.00    +0.000 A 
ATOM     15  C   UNL     1       0.868  10.218  20.206  0.00  0.00    +0.000 A 
ATOM     16  C   UNL     1       1.241   8.901  19.942  0.00  0.00    +0.000 A 
BRANCH  11  18
ATOM     17  C   UNL     1       2.419   6.326  19.720  0.00  0.00    +0.000 C 
ATOM     18  C   UNL     1       2.229   7.140  18.451  0.00  0.00    +0.000 C 
ENDBRANCH  11  18
ENDBRANCH   1  14
BRANCH   3  19
ATOM     19  C   UNL     1      -2.511  11.390  18.321  0.00  0.00    +0.000 A 
ATOM     20  C   UNL     1      -1.652  10.416  17.782  0.00  0.00    +0.000 A 
ATOM     21  C   UNL     1      -2.003   9.694  16.636  0.00  0.00    +0.000 A 
ATOM     22  C   UNL     1      -3.222   9.932  16.008  0.00  0.00    +0.000 A 
ATOM     23  C   UNL     1      -4.085  10.898  16.521  0.00  0.00    +0.000 A 
ATOM     24  C   UNL     1      -3.731  11.621  17.666  0.00  0.00    +0.000 A 
BRANCH  24  25
ATOM     25  O   UNL     1      -4.623  12.542  18.145  0.00  0.00    +0.000 OA
ATOM     26  H   UNL     1      -4.802  13.190  17.443  0.00  0.00    +0.000 HD
ENDBRANCH  24  25
ENDBRANCH   3  19
BRANCH   9  27
ATOM     27  C   UNL     1       2.567  13.752  20.680  0.00  0.00    +0.000 C 
BRANCH  27  28
ATOM     28  C   UNL     1       2.878  14.560  19.470  0.00  0.00    +0.000 A 
ATOM     29  C   UNL     1       3.603  14.294  18.326  0.00  0.00    +0.000 A 
ATOM     30  C   UNL     1       3.518  15.453  17.518  0.00  0.00    +0.000 A 
ATOM     31  C   UNL     1       2.746  16.350  18.217  0.00  0.00    +0.000 A 
ATOM     32  O   UNL     1       2.351  15.819  19.405  0.00  0.00    +0.000 OA
ENDBRANCH  27  28
ENDBRANCH   9  27
TORSDOF 6
ENDMDL
MODEL 2
REMARK VINA RESULT:      -6.9      2.629      5.957
REMARK  Name = 
REMARK  7 active torsions:
REMARK  status: ('A' for Active; 'I' for Inactive)
REMARK    1  A    between atoms: C_1  and  C_2
REMARK    2  A    between atoms: C_2  and  C_3
REMARK    3  A    between atoms: C_6  and  C_7
REMARK    4  A    between atoms: C_9  and  C_10
REMARK    5  A    between atoms: C_15  and  O_16
REMARK    6  A    between atoms: N_22  and  C_23
REMARK    7  A    between atoms: C_23  and  C_24
REMARK                            x       y       z     vdW  Elec       q    Type
REMARK                         _______ _______ _______ _____ _____    ______ ____
ROOT
ATOM      1  C   UNL     1      -0.966  11.644  20.464  0.00  0.00    +0.000 C 
ATOM      2  C   UNL     1      -0.460  10.487  21.244  0.00  0.00    +0.000 A 
ATOM      3  C   UNL     1       0.393   9.368  21.185  0.00  0.00    +0.000 A 
ATOM      4  N   UNL     1       0.467   8.804  22.419  0.00  0.00    +0.000 NA
ATOM      5  N   UNL     1      -0.356   9.545  23.206  0.00  0.00    +0.000 N 
ATOM      6  C   UNL     1      -0.908  10.562  22.528  0.00  0.00    +0.000 A 
ATOM      7  C   UNL     1      -1.737  11.684  22.753  0.00  0.00    +0.000 C 
ATOM      8  O   UNL     1      -2.311  11.995  23.780  0.00  0.00    +0.000 OA
ATOM      9  N   UNL     1      -1.744  12.340  21.522  0.00  0.00    +0.000 N 
ATOM     10  H   UNL     1      -0.436   9.313  24.191  0.00  0.00    +0.000 HD
ENDROOT
BRANCH   1  14
ATOM     11  C   UNL     1       2.497  13.817  18.986  0.00  0.00    +0.000 A 
ATOM     12  C   UNL     1       1.393  13.570  18.163  0.00  0.00    +0.000 A 
ATOM     13  C   UNL     1       0.274  12.890  18.658  0.00  0.00    +0.000 A 
ATOM     14  C   UNL     1       0.231  12.450  19.991  0.00  0.00    +0.000 A 
ATOM     15  C   UNL     1       1.311  12.788  20.828  0.00  0.00    +0.000 A 
ATOM     16  C   UNL     1       2.436  13.442  20.330  0.00  0.00    +0.000 A 
BRANCH  11  18
ATOM     17  C   UNL     1       3.416  15.586  17.461  0.00  0.00    +0.000 C 
ATOM     18  C   UNL     1       3.739  14.479  18.450  0.00  0.00    +0.000 C 
ENDBRANCH  11  18
ENDBRANCH   1  14
BRANCH   3  19
ATOM     19  C   UNL     1       1.193   8.864  20.060  0.00  0.00    +0.000 A 
ATOM     20  C   UNL     1       1.280   9.627  18.881  0.00  0.00    +0.000 A 
ATOM     21  C   UNL     1       2.030   9.185  17.785  0.00  0.00    +0.000 A 
ATOM     22  C   UNL     1       2.709   7.971  17.849  0.00  0.00    +0.000 A 
ATOM     23  C   UNL     1       2.631   7.196  19.003  0.00  0.00    +0.000 A 
ATOM     24  C   UNL     1       1.879   7.639  20.098  0.00  0.00    +0.000 A 
BRANCH  24  25
ATOM     25  O   UNL     1       1.852   6.852  21.218  0.00  0.00    +0.000 OA
ATOM     26  H   UNL     1       1.202   7.223  21.838  0.00  0.00    +0.000 HD
ENDBRANCH  24  25
ENDBRANCH   3  19
BRANCH   9  27
ATOM     27  C   UNL     1      -2.590  13.473  21.228  0.00  0.00    +0.000 C 
BRANCH  27  28
ATOM     28  C   UNL     1      -3.965  13.020  20.887  0.00  0.00    +0.000 A 
ATOM     29  C   UNL     1      -4.527  12.517  19.731  0.00  0.00    +0.000 A 
ATOM     30  C   UNL     1      -5.882  12.239  20.029  0.00  0.00    +0.000 A 
ATOM     31  C   UNL     1      -6.061  12.587  21.347  0.00  0.00    +0.000 A 
ATOM     32  O   UNL     1      -4.903  13.062  21.879  0.00  0.00    +0.000 OA
ENDBRANCH  27  28
ENDBRANCH   9  27
TORSDOF 6
ENDMDL
MODEL 3
REMARK VINA RESULT:      -6.9      1.388      1.834
REMARK  Name = 
REMARK  7 active torsions:
REMARK  status: ('A' for Active; 'I' for Inactive)
REMARK    1  A    between atoms: C_1  and  C_2
REMARK    2  A    between atoms: C_2  and  C_3
REMARK    3  A    between atoms: C_6  and  C_7
REMARK    4  A    between atoms: C_9  and  C_10
REMARK    5  A    between atoms: C_15  and  O_16
REMARK    6  A    between atoms: N_22  and  C_23
REMARK    7  A    between atoms: C_23  and  C_24
REMARK                            x       y       z     vdW  Elec       q    Type
REMARK                         _______ _______ _______ _____ _____    ______ ____
ROOT
ATOM      1  C   UNL     1      -1.056  13.036  19.998  0.00  0.00    +0.000 C 
ATOM      2  C   UNL     1      -2.499  12.691  19.945  0.00  0.00    +0.000 A 
ATOM      3  C   UNL     1      -3.472  12.001  19.196  0.00  0.00    +0.000 A 
ATOM      4  N   UNL     1      -4.642  12.001  19.886  0.00  0.00    +0.000 NA
ATOM      5  N   UNL     1      -4.395  12.710  21.019  0.00  0.00    +0.000 N 
ATOM      6  C   UNL     1      -3.120  13.119  21.080  0.00  0.00    +0.000 A 
ATOM      7  C   UNL     1      -2.242  13.784  21.966  0.00  0.00    +0.000 C 
ATOM      8  O   UNL     1      -2.510  14.305  23.033  0.00  0.00    +0.000 OA
ATOM      9  N   UNL     1      -1.006  13.705  21.323  0.00  0.00    +0.000 N 
ATOM     10  H   UNL     1      -5.137  12.817  21.704  0.00  0.00    +0.000 HD
ENDROOT
BRANCH   1  14
ATOM     11  C   UNL     1       1.135   9.291  19.739  0.00  0.00    +0.000 A 
ATOM     12  C   UNL     1       1.355  10.322  18.819  0.00  0.00    +0.000 A 
ATOM     13  C   UNL     1       0.659  11.532  18.927  0.00  0.00    +0.000 A 
ATOM     14  C   UNL     1      -0.263  11.741  19.965  0.00  0.00    +0.000 A 
ATOM     15  C   UNL     1      -0.403  10.729  20.933  0.00  0.00    +0.000 A 
ATOM     16  C   UNL     1       0.269   9.514  20.811  0.00  0.00    +0.000 A 
BRANCH  11  18
ATOM     17  C   UNL     1       2.438   7.777  18.218  0.00  0.00    +0.000 C 
ATOM     18  C   UNL     1       1.816   7.956  19.593  0.00  0.00    +0.000 C 
ENDBRANCH  11  18
ENDBRANCH   1  14
BRANCH   3  19
ATOM     19  C   UNL     1      -3.331  11.284  17.921  0.00  0.00    +0.000 A 
ATOM     20  C   UNL     1      -2.372  10.260  17.810  0.00  0.00    +0.000 A 
ATOM     21  C   UNL     1      -2.203   9.551  16.615  0.00  0.00    +0.000 A 
ATOM     22  C   UNL     1      -2.992   9.852  15.509  0.00  0.00    +0.000 A 
ATOM     23  C   UNL     1      -3.942  10.867  15.594  0.00  0.00    +0.000 A 
ATOM     24  C   UNL     1      -4.108  11.576  16.789  0.00  0.00    +0.000 A 
BRANCH  24  25
ATOM     25  O   UNL     1      -5.071  12.549  16.830  0.00  0.00    +0.000 OA
ATOM     26  H   UNL     1      -5.659  12.432  16.065  0.00  0.00    +0.000 HD
ENDBRANCH  24  25
ENDBRANCH   3  19
BRANCH   9  27
ATOM     27  C   UNL     1       0.178  14.388  21.791  0.00  0.00    +0.000 C 
BRANCH  27  28
ATOM     28  C   UNL     1       0.822  15.134  20.677  0.00  0.00    +0.000 A 
ATOM     29  C   UNL     1       1.986  14.932  19.962  0.00  0.00    +0.000 A 
ATOM     30  C   UNL     1       2.053  15.968  19.001  0.00  0.00    +0.000 A 
ATOM     31  C   UNL     1       0.926  16.734  19.186  0.00  0.00    +0.000 A 
ATOM     32  O   UNL     1       0.171  16.237  20.202  0.00  0.00    +0.000 OA
ENDBRANCH  27  28
ENDBRANCH   9  27
TORSDOF 6
ENDMDL
MODEL 4
REMARK VINA RESULT:      -6.8      3.562      5.455
REMARK  Name = 
REMARK  7 active torsions:
REMARK  status: ('A' for Active; 'I' for Inactive)
REMARK    1  A    between atoms: C_1  and  C_2
REMARK    2  A    between atoms: C_2  and  C_3
REMARK    3  A    between atoms: C_6  and  C_7
REMARK    4  A    between atoms: C_9  and  C_10
REMARK    5  A    between atoms: C_15  and  O_16
REMARK    6  A    between atoms: N_22  and  C_23
REMARK    7  A    between atoms: C_23  and  C_24
REMARK                            x       y       z     vdW  Elec       q    Type
REMARK                         _______ _______ _______ _____ _____    ______ ____
ROOT
ATOM      1  C   UNL     1      -3.192  13.165  20.522  0.00  0.00    +0.000 C 
ATOM      2  C   UNL     1      -4.630  13.186  20.889  0.00  0.00    +0.000 A 
ATOM      3  C   UNL     1      -5.924  13.418  20.384  0.00  0.00    +0.000 A 
ATOM      4  N   UNL     1      -6.835  13.083  21.335  0.00  0.00    +0.000 NA
ATOM      5  N   UNL     1      -6.107  12.689  22.412  0.00  0.00    +0.000 N 
ATOM      6  C   UNL     1      -4.790  12.730  22.163  0.00  0.00    +0.000 A 
ATOM      7  C   UNL     1      -3.564  12.394  22.781  0.00  0.00    +0.000 C 
ATOM      8  O   UNL     1      -3.384  11.998  23.917  0.00  0.00    +0.000 OA
ATOM      9  N   UNL     1      -2.617  12.632  21.784  0.00  0.00    +0.000 N 
ATOM     10  H   UNL     1      -6.592  12.366  23.244  0.00  0.00    +0.000 HD
ENDROOT
BRANCH   1  14
ATOM     11  C   UNL     1      -2.713  10.585  17.056  0.00  0.00    +0.000 A 
ATOM     12  C   UNL     1      -1.759  11.559  17.370  0.00  0.00    +0.000 A 
ATOM     13  C   UNL     1      -1.913  12.368  18.501  0.00  0.00    +0.000 A 
ATOM     14  C   UNL     1      -3.020  12.213  19.352  0.00  0.00    +0.000 A 
ATOM     15  C   UNL     1      -3.920  11.168  19.071  0.00  0.00    +0.000 A 
ATOM     16  C   UNL     1      -3.782  10.379  17.931  0.00  0.00    +0.000 A 
BRANCH  11  18
ATOM     17  C   UNL     1      -3.299  10.415  14.621  0.00  0.00    +0.000 C 
ATOM     18  C   UNL     1      -2.603   9.759  15.802  0.00  0.00    +0.000 C 
ENDBRANCH  11  18
ENDBRANCH   1  14
BRANCH   3  19
ATOM     19  C   UNL     1      -6.338  13.854  19.043  0.00  0.00    +0.000 A 
ATOM     20  C   UNL     1      -6.538  12.891  18.037  0.00  0.00    +0.000 A 
ATOM     21  C   UNL     1      -6.931  13.262  16.746  0.00  0.00    +0.000 A 
ATOM     22  C   UNL     1      -7.133  14.604  16.438  0.00  0.00    +0.000 A 
ATOM     23  C   UNL     1      -6.934  15.575  17.416  0.00  0.00    +0.000 A 
ATOM     24  C   UNL     1      -6.539  15.203  18.706  0.00  0.00    +0.000 A 
BRANCH  24  25
ATOM     25  O   UNL     1      -6.378  16.192  19.639  0.00  0.00    +0.000 OA
ATOM     26  H   UNL     1      -6.839  15.926  20.452  0.00  0.00    +0.000 HD
ENDBRANCH  24  25
ENDBRANCH   3  19
BRANCH   9  27
ATOM     27  C   UNL     1      -1.192  12.570  22.010  0.00  0.00    +0.000 C 
BRANCH  27  28
ATOM     28  C   UNL     1      -0.741  11.156  22.106  0.00  0.00    +0.000 A 
ATOM     29  C   UNL     1      -0.573  10.160  21.166  0.00  0.00    +0.000 A 
ATOM     30  C   UNL     1      -0.089   9.027  21.864  0.00  0.00    +0.000 A 
ATOM     31  C   UNL     1       0.012   9.405  23.182  0.00  0.00    +0.000 A 
ATOM     32  O   UNL     1      -0.382  10.697  23.341  0.00  0.00    +0.000 OA
ENDBRANCH  27  28
ENDBRANCH   9  27
TORSDOF 6
ENDMDL
MODEL 5
REMARK VINA RESULT:      -6.6      2.592      6.051
REMARK  Name = 
REMARK  7 active torsions:
REMARK  status: ('A' for Active; 'I' for Inactive)
REMARK    1  A    between atoms: C_1  and  C_2
REMARK    2  A    between atoms: C_2  and  C_3
REMARK    3  A    between atoms: C_6  and  C_7
REMARK    4  A    between atoms: C_9  and  C_10
REMARK    5  A    between atoms: C_15  and  O_16
REMARK    6  A    between atoms: N_22  and  C_23
REMARK    7  A    between atoms: C_23  and  C_24
REMARK                            x       y       z     vdW  Elec       q    Type
REMARK                         _______ _______ _______ _____ _____    ______ ____
ROOT
ATOM      1  C   UNL     1      -1.175  11.701  20.525  0.00  0.00    +0.000 C 
ATOM      2  C   UNL     1      -0.587  10.587  21.309  0.00  0.00    +0.000 A 
ATOM      3  C   UNL     1       0.321   9.512  21.244  0.00  0.00    +0.000 A 
ATOM      4  N   UNL     1       0.460   8.976  22.485  0.00  0.00    +0.000 NA
ATOM      5  N   UNL     1      -0.376   9.689  23.283  0.00  0.00    +0.000 N 
ATOM      6  C   UNL     1      -1.001  10.662  22.605  0.00  0.00    +0.000 A 
ATOM      7  C   UNL     1      -1.880  11.745  22.835  0.00  0.00    +0.000 C 
ATOM      8  O   UNL     1      -2.438  12.046  23.874  0.00  0.00    +0.000 OA
ATOM      9  N   UNL     1      -1.957  12.376  21.593  0.00  0.00    +0.000 N 
ATOM     10  H   UNL     1      -0.416   9.471  24.275  0.00  0.00    +0.000 HD
ENDROOT
BRANCH   1  14
ATOM     11  C   UNL     1       2.042  14.283  19.155  0.00  0.00    +0.000 A 
ATOM     12  C   UNL     1       2.060  13.724  20.438  0.00  0.00    +0.000 A 
ATOM     13  C   UNL     1       1.029  12.876  20.859  0.00  0.00    +0.000 A 
ATOM     14  C   UNL     1      -0.037  12.558  20.001  0.00  0.00    +0.000 A 
ATOM     15  C   UNL     1       0.010  13.055  18.685  0.00  0.00    +0.000 A 
ATOM     16  C   UNL     1       1.022  13.921  18.274  0.00  0.00    +0.000 A 
BRANCH  11  18
ATOM     17  C   UNL     1       4.342  14.555  18.187  0.00  0.00    +0.000 C 
ATOM     18  C   UNL     1       3.101  15.257  18.713  0.00  0.00    +0.000 C 
ENDBRANCH  11  18
ENDBRANCH   1  14
BRANCH   3  19
ATOM     19  C   UNL     1       1.112   9.028  20.104  0.00  0.00    +0.000 A 
ATOM     20  C   UNL     1       1.197   9.815  18.941  0.00  0.00    +0.000 A 
ATOM     21  C   UNL     1       1.939   9.393  17.832  0.00  0.00    +0.000 A 
ATOM     22  C   UNL     1       2.612   8.176  17.866  0.00  0.00    +0.000 A 
ATOM     23  C   UNL     1       2.537   7.377  19.004  0.00  0.00    +0.000 A 
ATOM     24  C   UNL     1       1.792   7.799  20.112  0.00  0.00    +0.000 A 
BRANCH  24  25
ATOM     25  O   UNL     1       1.768   6.989  21.216  0.00  0.00    +0.000 OA
ATOM     26  H   UNL     1       1.573   6.083  20.927  0.00  0.00    +0.000 HD
ENDBRANCH  24  25
ENDBRANCH   3  19
BRANCH   9  27
ATOM     27  C   UNL     1      -2.869  13.458  21.306  0.00  0.00    +0.000 C 
BRANCH  27  28
ATOM     28  C   UNL     1      -4.218  12.927  20.974  0.00  0.00    +0.000 A 
ATOM     29  C   UNL     1      -5.363  12.739  21.722  0.00  0.00    +0.000 A 
ATOM     30  C   UNL     1      -6.340  12.221  20.839  0.00  0.00    +0.000 A 
ATOM     31  C   UNL     1      -5.733  12.129  19.609  0.00  0.00    +0.000 A 
ATOM     32  O   UNL     1      -4.443  12.555  19.679  0.00  0.00    +0.000 OA
ENDBRANCH  27  28
ENDBRANCH   9  27
TORSDOF 6
ENDMDL
MODEL 6
REMARK VINA RESULT:      -6.6      2.587      4.337
REMARK  Name = 
REMARK  7 active torsions:
REMARK  status: ('A' for Active; 'I' for Inactive)
REMARK    1  A    between atoms: C_1  and  C_2
REMARK    2  A    between atoms: C_2  and  C_3
REMARK    3  A    between atoms: C_6  and  C_7
REMARK    4  A    between atoms: C_9  and  C_10
REMARK    5  A    between atoms: C_15  and  O_16
REMARK    6  A    between atoms: N_22  and  C_23
REMARK    7  A    between atoms: C_23  and  C_24
REMARK                            x       y       z     vdW  Elec       q    Type
REMARK                         _______ _______ _______ _____ _____    ______ ____
ROOT
ATOM      1  C   UNL     1      -1.969  12.757  20.392  0.00  0.00    +0.000 C 
ATOM      2  C   UNL     1      -3.010  12.637  21.443  0.00  0.00    +0.000 A 
ATOM      3  C   UNL     1      -4.390  12.775  21.692  0.00  0.00    +0.000 A 
ATOM      4  N   UNL     1      -4.660  12.325  22.945  0.00  0.00    +0.000 NA
ATOM      5  N   UNL     1      -3.460  11.954  23.463  0.00  0.00    +0.000 N 
ATOM      6  C   UNL     1      -2.465  12.120  22.580  0.00  0.00    +0.000 A 
ATOM      7  C   UNL     1      -1.079  11.869  22.456  0.00  0.00    +0.000 C 
ATOM      8  O   UNL     1      -0.318  11.445  23.305  0.00  0.00    +0.000 OA
ATOM      9  N   UNL     1      -0.798  12.227  21.137  0.00  0.00    +0.000 N 
ATOM     10  H   UNL     1      -3.428  11.558  24.398  0.00  0.00    +0.000 HD
ENDROOT
BRANCH   1  14
ATOM     11  C   UNL     1      -2.965  10.259  16.977  0.00  0.00    +0.000 A 
ATOM     12  C   UNL     1      -1.888   9.944  17.814  0.00  0.00    +0.000 A 
ATOM     13  C   UNL     1      -1.592  10.744  18.924  0.00  0.00    +0.000 A 
ATOM     14  C   UNL     1      -2.373  11.870  19.228  0.00  0.00    +0.000 A 
ATOM     15  C   UNL     1      -3.506  12.117  18.430  0.00  0.00    +0.000 A 
ATOM     16  C   UNL     1      -3.786  11.338  17.310  0.00  0.00    +0.000 A 
BRANCH  11  18
ATOM     17  C   UNL     1      -3.064  10.272  14.469  0.00  0.00    +0.000 C 
ATOM     18  C   UNL     1      -3.251   9.455  15.737  0.00  0.00    +0.000 C 
ENDBRANCH  11  18
ENDBRANCH   1  14
BRANCH   3  19
ATOM     19  C   UNL     1      -5.459  13.226  20.789  0.00  0.00    +0.000 A 
ATOM     20  C   UNL     1      -5.399  14.522  20.245  0.00  0.00    +0.000 A 
ATOM     21  C   UNL     1      -6.395  14.992  19.382  0.00  0.00    +0.000 A 
ATOM     22  C   UNL     1      -7.469  14.174  19.045  0.00  0.00    +0.000 A 
ATOM     23  C   UNL     1      -7.552  12.890  19.578  0.00  0.00    +0.000 A 
ATOM     24  C   UNL     1      -6.556  12.422  20.443  0.00  0.00    +0.000 A 
BRANCH  24  25
ATOM     25  O   UNL     1      -6.671  11.144  20.923  0.00  0.00    +0.000 OA
ATOM     26  H   UNL     1      -7.132  10.607  20.258  0.00  0.00    +0.000 HD
ENDBRANCH  24  25
ENDBRANCH   3  19
BRANCH   9  27
ATOM     27  C   UNL     1       0.541  12.282  20.597  0.00  0.00    +0.000 C 
BRANCH  27  28
ATOM     28  C   UNL     1       0.816  13.627  20.023  0.00  0.00    +0.000 A 
ATOM     29  C   UNL     1       0.943  14.085  18.728  0.00  0.00    +0.000 A 
ATOM     30  C   UNL     1       1.178  15.478  18.815  0.00  0.00    +0.000 A 
ATOM     31  C   UNL     1       1.176  15.782  20.156  0.00  0.00    +0.000 A 
ATOM     32  O   UNL     1       0.957  14.664  20.900  0.00  0.00    +0.000 OA
ENDBRANCH  27  28
ENDBRANCH   9  27
TORSDOF 6
ENDMDL
MODEL 7
REMARK VINA RESULT:      -6.5      2.955      7.297
REMARK  Name = 
REMARK  7 active torsions:
REMARK  status: ('A' for Active; 'I' for Inactive)
REMARK    1  A    between atoms: C_1  and  C_2
REMARK    2  A    between atoms: C_2  and  C_3
REMARK    3  A    between atoms: C_6  and  C_7
REMARK    4  A    between atoms: C_9  and  C_10
REMARK    5  A    between atoms: C_15  and  O_16
REMARK    6  A    between atoms: N_22  and  C_23
REMARK    7  A    between atoms: C_23  and  C_24
REMARK                            x       y       z     vdW  Elec       q    Type
REMARK                         _______ _______ _______ _____ _____    ______ ____
ROOT
ATOM      1  C   UNL     1      -4.868  12.032  19.717  0.00  0.00    +0.000 C 
ATOM      2  C   UNL     1      -4.035  13.147  20.234  0.00  0.00    +0.000 A 
ATOM      3  C   UNL     1      -2.730  13.494  20.634  0.00  0.00    +0.000 A 
ATOM      4  N   UNL     1      -2.681  14.832  20.868  0.00  0.00    +0.000 NA
ATOM      5  N   UNL     1      -3.944  15.284  20.651  0.00  0.00    +0.000 N 
ATOM      6  C   UNL     1      -4.764  14.298  20.259  0.00  0.00    +0.000 A 
ATOM      7  C   UNL     1      -6.095  14.112  19.820  0.00  0.00    +0.000 C 
ATOM      8  O   UNL     1      -6.986  14.938  19.765  0.00  0.00    +0.000 OA
ATOM      9  N   UNL     1      -6.139  12.761  19.472  0.00  0.00    +0.000 N 
ATOM     10  H   UNL     1      -4.135  16.277  20.746  0.00  0.00    +0.000 HD
ENDROOT
BRANCH   1  14
ATOM     11  C   UNL     1      -3.196  10.486  16.015  0.00  0.00    +0.000 A 
ATOM     12  C   UNL     1      -4.274  11.379  16.004  0.00  0.00    +0.000 A 
ATOM     13  C   UNL     1      -4.788  11.887  17.203  0.00  0.00    +0.000 A 
ATOM     14  C   UNL     1      -4.229  11.523  18.438  0.00  0.00    +0.000 A 
ATOM     15  C   UNL     1      -3.088  10.698  18.423  0.00  0.00    +0.000 A 
ATOM     16  C   UNL     1      -2.592  10.170  17.233  0.00  0.00    +0.000 A 
BRANCH  11  18
ATOM     17  C   UNL     1      -3.683   9.979  13.605  0.00  0.00    +0.000 C 
ATOM     18  C   UNL     1      -2.680   9.870  14.742  0.00  0.00    +0.000 C 
ENDBRANCH  11  18
ENDBRANCH   1  14
BRANCH   3  19
ATOM     19  C   UNL     1      -1.527  12.654  20.723  0.00  0.00    +0.000 A 
ATOM     20  C   UNL     1      -1.410  11.730  21.777  0.00  0.00    +0.000 A 
ATOM     21  C   UNL     1      -0.282  10.910  21.901  0.00  0.00    +0.000 A 
ATOM     22  C   UNL     1       0.748  10.998  20.970  0.00  0.00    +0.000 A 
ATOM     23  C   UNL     1       0.656  11.910  19.922  0.00  0.00    +0.000 A 
ATOM     24  C   UNL     1      -0.471  12.731  19.801  0.00  0.00    +0.000 A 
BRANCH  24  25
ATOM     25  O   UNL     1      -0.525  13.596  18.740  0.00  0.00    +0.000 OA
ATOM     26  H   UNL     1      -1.380  13.481  18.293  0.00  0.00    +0.000 HD
ENDBRANCH  24  25
ENDBRANCH   3  19
BRANCH   9  27
ATOM     27  C   UNL     1      -7.357  12.074  19.107  0.00  0.00    +0.000 C 
BRANCH  27  28
ATOM     28  C   UNL     1      -7.460  10.778  19.830  0.00  0.00    +0.000 A 
ATOM     29  C   UNL     1      -7.914  10.441  21.089  0.00  0.00    +0.000 A 
ATOM     30  C   UNL     1      -7.788   9.035  21.198  0.00  0.00    +0.000 A 
ATOM     31  C   UNL     1      -7.269   8.605  20.000  0.00  0.00    +0.000 A 
ATOM     32  O   UNL     1      -7.066   9.655  19.161  0.00  0.00    +0.000 OA
ENDBRANCH  27  28
ENDBRANCH   9  27
TORSDOF 6
ENDMDL
MODEL 8
REMARK VINA RESULT:      -6.5      2.542      5.110
REMARK  Name = 
REMARK  7 active torsions:
REMARK  status: ('A' for Active; 'I' for Inactive)
REMARK    1  A    between atoms: C_1  and  C_2
REMARK    2  A    between atoms: C_2  and  C_3
REMARK    3  A    between atoms: C_6  and  C_7
REMARK    4  A    between atoms: C_9  and  C_10
REMARK    5  A    between atoms: C_15  and  O_16
REMARK    6  A    between atoms: N_22  and  C_23
REMARK    7  A    between atoms: C_23  and  C_24
REMARK                            x       y       z     vdW  Elec       q    Type
REMARK                         _______ _______ _______ _____ _____    ______ ____
ROOT
ATOM      1  C   UNL     1      -0.969  11.833  20.427  0.00  0.00    +0.000 C 
ATOM      2  C   UNL     1      -0.525  10.661  21.222  0.00  0.00    +0.000 A 
ATOM      3  C   UNL     1       0.287   9.511  21.186  0.00  0.00    +0.000 A 
ATOM      4  N   UNL     1       0.312   8.950  22.424  0.00  0.00    +0.000 NA
ATOM      5  N   UNL     1      -0.500   9.725  23.189  0.00  0.00    +0.000 N 
ATOM      6  C   UNL     1      -0.999  10.758  22.496  0.00  0.00    +0.000 A 
ATOM      7  C   UNL     1      -1.790  11.912  22.698  0.00  0.00    +0.000 C 
ATOM      8  O   UNL     1      -2.374  12.249  23.711  0.00  0.00    +0.000 OA
ATOM      9  N   UNL     1      -1.744  12.562  21.464  0.00  0.00    +0.000 N 
ATOM     10  H   UNL     1      -0.611   9.500  24.174  0.00  0.00    +0.000 HD
ENDROOT
BRANCH   1  14
ATOM     11  C   UNL     1       2.609  13.864  19.025  0.00  0.00    +0.000 A 
ATOM     12  C   UNL     1       1.536  13.612  18.163  0.00  0.00    +0.000 A 
ATOM     13  C   UNL     1       0.380  12.978  18.632  0.00  0.00    +0.000 A 
ATOM     14  C   UNL     1       0.267  12.592  19.978  0.00  0.00    +0.000 A 
ATOM     15  C   UNL     1       1.317  12.935  20.849  0.00  0.00    +0.000 A 
ATOM     16  C   UNL     1       2.479  13.543  20.377  0.00  0.00    +0.000 A 
BRANCH  11  18
ATOM     17  C   UNL     1       3.637  15.567  17.494  0.00  0.00    +0.000 C 
ATOM     18  C   UNL     1       3.889  14.475  18.521  0.00  0.00    +0.000 C 
ENDBRANCH  11  18
ENDBRANCH   1  14
BRANCH   3  19
ATOM     19  C   UNL     1       1.092   8.972  20.081  0.00  0.00    +0.000 A 
ATOM     20  C   UNL     1       1.169   9.688  18.873  0.00  0.00    +0.000 A 
ATOM     21  C   UNL     1       1.924   9.212  17.795  0.00  0.00    +0.000 A 
ATOM     22  C   UNL     1       2.618   8.011  17.906  0.00  0.00    +0.000 A 
ATOM     23  C   UNL     1       2.550   7.281  19.091  0.00  0.00    +0.000 A 
ATOM     24  C   UNL     1       1.792   7.758  20.167  0.00  0.00    +0.000 A 
BRANCH  24  25
ATOM     25  O   UNL     1       1.776   7.016  21.318  0.00  0.00    +0.000 OA
ATOM     26  H   UNL     1       1.336   7.535  22.012  0.00  0.00    +0.000 HD
ENDBRANCH  24  25
ENDBRANCH   3  19
BRANCH   9  27
ATOM     27  C   UNL     1      -2.541  13.725  21.148  0.00  0.00    +0.000 C 
BRANCH  27  28
ATOM     28  C   UNL     1      -1.697  14.949  21.147  0.00  0.00    +0.000 A 
ATOM     29  C   UNL     1      -1.437  15.908  20.188  0.00  0.00    +0.000 A 
ATOM     30  C   UNL     1      -0.571  16.853  20.789  0.00  0.00    +0.000 A 
ATOM     31  C   UNL     1      -0.361  16.414  22.075  0.00  0.00    +0.000 A 
ATOM     32  O   UNL     1      -1.040  15.258  22.303  0.00  0.00    +0.000 OA
ENDBRANCH  27  28
ENDBRANCH   9  27
TORSDOF 6
ENDMDL
MODEL 9
REMARK VINA RESULT:      -6.5      3.022      6.668
REMARK  Name = 
REMARK  7 active torsions:
REMARK  status: ('A' for Active; 'I' for Inactive)
REMARK    1  A    between atoms: C_1  and  C_2
REMARK    2  A    between atoms: C_2  and  C_3
REMARK    3  A    between atoms: C_6  and  C_7
REMARK    4  A    between atoms: C_9  and  C_10
REMARK    5  A    between atoms: C_15  and  O_16
REMARK    6  A    between atoms: N_22  and  C_23
REMARK    7  A    between atoms: C_23  and  C_24
REMARK                            x       y       z     vdW  Elec       q    Type
REMARK                         _______ _______ _______ _____ _____    ______ ____
ROOT
ATOM      1  C   UNL     1      -1.486  12.567  19.200  0.00  0.00    +0.000 C 
ATOM      2  C   UNL     1      -0.360  13.527  19.311  0.00  0.00    +0.000 A 
ATOM      3  C   UNL     1      -0.031  14.851  19.664  0.00  0.00    +0.000 A 
ATOM      4  N   UNL     1       1.321  14.988  19.654  0.00  0.00    +0.000 NA
ATOM      5  N   UNL     1       1.804  13.779  19.265  0.00  0.00    +0.000 N 
ATOM      6  C   UNL     1       0.820  12.890  19.069  0.00  0.00    +0.000 A 
ATOM      7  C   UNL     1       0.648  11.522  18.757  0.00  0.00    +0.000 C 
ATOM      8  O   UNL     1       1.504  10.710  18.461  0.00  0.00    +0.000 OA
ATOM      9  N   UNL     1      -0.730  11.332  18.865  0.00  0.00    +0.000 N 
ATOM     10  H   UNL     1       2.810  13.644  19.211  0.00  0.00    +0.000 HD
ENDROOT
BRANCH   1  14
ATOM     11  C   UNL     1      -3.469  12.522  23.068  0.00  0.00    +0.000 A 
ATOM     12  C   UNL     1      -4.154  12.902  21.908  0.00  0.00    +0.000 A 
ATOM     13  C   UNL     1      -3.510  12.890  20.665  0.00  0.00    +0.000 A 
ATOM     14  C   UNL     1      -2.170  12.487  20.553  0.00  0.00    +0.000 A 
ATOM     15  C   UNL     1      -1.526  12.020  21.714  0.00  0.00    +0.000 A 
ATOM     16  C   UNL     1      -2.157  12.057  22.956  0.00  0.00    +0.000 A 
BRANCH  11  18
ATOM     17  C   UNL     1      -5.635  12.508  24.335  0.00  0.00    +0.000 C 
ATOM     18  C   UNL     1      -4.121  12.602  24.422  0.00  0.00    +0.000 C 
ENDBRANCH  11  18
ENDBRANCH   1  14
BRANCH   3  19
ATOM     19  C   UNL     1      -0.912  15.950  20.085  0.00  0.00    +0.000 A 
ATOM     20  C   UNL     1      -1.492  15.915  21.366  0.00  0.00    +0.000 A 
ATOM     21  C   UNL     1      -2.337  16.940  21.807  0.00  0.00    +0.000 A 
ATOM     22  C   UNL     1      -2.616  18.020  20.975  0.00  0.00    +0.000 A 
ATOM     23  C   UNL     1      -2.059  18.071  19.700  0.00  0.00    +0.000 A 
ATOM     24  C   UNL     1      -1.216  17.044  19.259  0.00  0.00    +0.000 A 
BRANCH  24  25
ATOM     25  O   UNL     1      -0.674  17.151  18.006  0.00  0.00    +0.000 OA
ATOM     26  H   UNL     1      -0.455  16.260  17.689  0.00  0.00    +0.000 HD
ENDBRANCH  24  25
ENDBRANCH   3  19
BRANCH   9  27
ATOM     27  C   UNL     1      -1.396  10.108  18.484  0.00  0.00    +0.000 C 
BRANCH  27  28
ATOM     28  C   UNL     1      -2.483  10.388  17.508  0.00  0.00    +0.000 A 
ATOM     29  C   UNL     1      -3.842  10.580  17.648  0.00  0.00    +0.000 A 
ATOM     30  C   UNL     1      -4.347  10.838  16.351  0.00  0.00    +0.000 A 
ATOM     31  C   UNL     1      -3.266  10.790  15.504  0.00  0.00    +0.000 A 
ATOM     32  O   UNL     1      -2.127  10.517  16.196  0.00  0.00    +0.000 OA
ENDBRANCH  27  28
ENDBRANCH   9  27
TORSDOF 6
ENDMDL
