MODEL 1
REMARK VINA RESULT:      -8.9      0.000      0.000
REMARK  Name = 
REMARK  2 active torsions:
REMARK  status: ('A' for Active; 'I' for Inactive)
REMARK    1  A    between atoms: N_15  and  C_16
REMARK    2  A    between atoms: C_16  and  C_17
REMARK                            x       y       z     vdW  Elec       q    Type
REMARK                         _______ _______ _______ _____ _____    ______ ____
ROOT
ATOM      1  O   UNL     1       2.007   8.916  17.230  0.00  0.00    +0.000 OA
ATOM      2  C   UNL     1       2.262   8.029  18.034  0.00  0.00    +0.000 C 
ATOM      3  N   UNL     1       2.542   6.727  17.669  0.00  0.00    +0.000 N 
ATOM      4  C   UNL     1       2.866   5.912  18.810  0.00  0.00    +0.000 C 
ATOM      5  C   UNL     1       4.393   5.724  18.965  0.00  0.00    +0.000 C 
ATOM      6  C   UNL     1       4.654   4.264  19.367  0.00  0.00    +0.000 C 
ATOM      7  C   UNL     1       3.344   3.595  19.118  0.00  0.00    +0.000 A 
ATOM      8  C   UNL     1       3.096   2.233  19.230  0.00  0.00    +0.000 A 
ATOM      9  C   UNL     1       1.808   1.771  18.975  0.00  0.00    +0.000 A 
ATOM     10  C   UNL     1       0.794   2.667  18.613  0.00  0.00    +0.000 A 
ATOM     11  C   UNL     1       1.053   4.043  18.517  0.00  0.00    +0.000 A 
ATOM     12  C   UNL     1       2.337   4.508  18.783  0.00  0.00    +0.000 A 
ATOM     13  C   UNL     1       2.355   6.847  19.916  0.00  0.00    +0.000 C 
ATOM     14  O   UNL     1       2.146   6.535  21.082  0.00  0.00    +0.000 OA
ATOM     15  N   UNL     1       2.267   8.118  19.396  0.00  0.00    +0.000 N 
ATOM     16  H   UNL     1       2.611   6.444  16.700  0.00  0.00    +0.000 HD
ENDROOT
BRANCH  15  17
ATOM     17  C   UNL     1       1.849   9.302  20.150  0.00  0.00    +0.000 C 
BRANCH  17  18
ATOM     18  C   UNL     1       0.344   9.390  20.269  0.00  0.00    +0.000 A 
ATOM     19  C   UNL     1      -0.349   8.982  21.352  0.00  0.00    +0.000 A 
ATOM     20  C   UNL     1      -0.745  10.153  22.212  0.00  0.00    +0.000 A 
ATOM     21  O   UNL     1      -0.910  10.004  23.417  0.00  0.00    +0.000 OA
ATOM     22  O   UNL     1      -0.968  11.372  21.561  0.00  0.00    +0.000 OA
ATOM     23  C   UNL     1      -1.131  11.332  20.151  0.00  0.00    +0.000 A 
ATOM     24  C   UNL     1      -2.177  12.100  19.621  0.00  0.00    +0.000 A 
ATOM     25  C   UNL     1      -2.733  11.641  18.444  0.00  0.00    +0.000 A 
ATOM     26  C   UNL     1      -2.241  10.452  17.871  0.00  0.00    +0.000 A 
ATOM     27  C   UNL     1      -1.018   9.880  18.229  0.00  0.00    +0.000 A 
ATOM     28  C   UNL     1      -0.479  10.296  19.443  0.00  0.00    +0.000 A 
ATOM     29  C   UNL     1      -3.423   9.671  17.320  0.00  0.00    +0.000 C 
ATOM     30  C   UNL     1      -4.598  10.452  17.961  0.00  0.00    +0.000 C 
ATOM     31  C   UNL     1      -4.126  11.905  17.933  0.00  0.00    +0.000 C 
ENDBRANCH  17  18
ENDBRANCH  15  17
TORSDOF 2
ENDMDL
MODEL 2
REMARK VINA RESULT:      -8.4      1.715      8.036
REMARK  Name = 
REMARK  2 active torsions:
REMARK  status: ('A' for Active; 'I' for Inactive)
REMARK    1  A    between atoms: N_15  and  C_16
REMARK    2  A    between atoms: C_16  and  C_17
REMARK                            x       y       z     vdW  Elec       q    Type
REMARK                         _______ _______ _______ _____ _____    ______ ____
ROOT
ATOM      1  O   UNL     1       2.577  10.990  18.096  0.00  0.00    +0.000 OA
ATOM      2  C   UNL     1       1.453  10.686  18.478  0.00  0.00    +0.000 C 
ATOM      3  N   UNL     1       0.327  11.436  18.203  0.00  0.00    +0.000 N 
ATOM      4  C   UNL     1      -0.864  10.817  18.719  0.00  0.00    +0.000 C 
ATOM      5  C   UNL     1      -1.643  10.063  17.616  0.00  0.00    +0.000 C 
ATOM      6  C   UNL     1      -3.142  10.325  17.829  0.00  0.00    +0.000 C 
ATOM      7  C   UNL     1      -3.163  11.448  18.810  0.00  0.00    +0.000 A 
ATOM      8  C   UNL     1      -4.297  12.122  19.245  0.00  0.00    +0.000 A 
ATOM      9  C   UNL     1      -4.143  13.142  20.180  0.00  0.00    +0.000 A 
ATOM     10  C   UNL     1      -2.871  13.473  20.663  0.00  0.00    +0.000 A 
ATOM     11  C   UNL     1      -1.735  12.775  20.228  0.00  0.00    +0.000 A 
ATOM     12  C   UNL     1      -1.887  11.747  19.302  0.00  0.00    +0.000 A 
ATOM     13  C   UNL     1      -0.207   9.798  19.662  0.00  0.00    +0.000 C 
ATOM     14  O   UNL     1      -0.769   9.177  20.555  0.00  0.00    +0.000 OA
ATOM     15  N   UNL     1       1.101   9.629  19.266  0.00  0.00    +0.000 N 
ATOM     16  H   UNL     1       0.359  12.257  17.612  0.00  0.00    +0.000 HD
ENDROOT
BRANCH  15  17
ATOM     17  C   UNL     1       2.052   8.712  19.896  0.00  0.00    +0.000 C 
BRANCH  17  18
ATOM     18  C   UNL     1       2.175   7.414  19.127  0.00  0.00    +0.000 A 
ATOM     19  C   UNL     1       2.437   7.346  17.806  0.00  0.00    +0.000 A 
ATOM     20  C   UNL     1       3.884   7.010  17.559  0.00  0.00    +0.000 A 
ATOM     21  O   UNL     1       4.435   7.381  16.529  0.00  0.00    +0.000 OA
ATOM     22  O   UNL     1       4.525   6.220  18.520  0.00  0.00    +0.000 OA
ATOM     23  C   UNL     1       3.699   5.535  19.450  0.00  0.00    +0.000 A 
ATOM     24  C   UNL     1       4.026   4.197  19.707  0.00  0.00    +0.000 A 
ATOM     25  C   UNL     1       2.979   3.375  20.074  0.00  0.00    +0.000 A 
ATOM     26  C   UNL     1       1.679   3.912  20.148  0.00  0.00    +0.000 A 
ATOM     27  C   UNL     1       1.420   5.283  20.197  0.00  0.00    +0.000 A 
ATOM     28  C   UNL     1       2.452   6.117  19.775  0.00  0.00    +0.000 A 
ATOM     29  C   UNL     1       0.710   2.876  19.601  0.00  0.00    +0.000 C 
ATOM     30  C   UNL     1       1.703   1.880  18.949  0.00  0.00    +0.000 C 
ATOM     31  C   UNL     1       2.895   1.879  19.904  0.00  0.00    +0.000 C 
ENDBRANCH  17  18
ENDBRANCH  15  17
TORSDOF 2
ENDMDL
MODEL 3
REMARK VINA RESULT:      -8.3      3.142      8.606
REMARK  Name = 
REMARK  2 active torsions:
REMARK  status: ('A' for Active; 'I' for Inactive)
REMARK    1  A    between atoms: N_15  and  C_16
REMARK    2  A    between atoms: C_16  and  C_17
REMARK                            x       y       z     vdW  Elec       q    Type
REMARK                         _______ _______ _______ _____ _____    ______ ____
ROOT
ATOM      1  O   UNL     1       1.254  12.845  20.020  0.00  0.00    +0.000 OA
ATOM      2  C   UNL     1       0.350  12.630  20.819  0.00  0.00    +0.000 C 
ATOM      3  N   UNL     1      -0.609  13.566  21.153  0.00  0.00    +0.000 N 
ATOM      4  C   UNL     1      -1.582  13.029  22.065  0.00  0.00    +0.000 C 
ATOM      5  C   UNL     1      -2.883  12.614  21.338  0.00  0.00    +0.000 C 
ATOM      6  C   UNL     1      -4.072  13.034  22.214  0.00  0.00    +0.000 C 
ATOM      7  C   UNL     1      -3.457  13.940  23.227  0.00  0.00    +0.000 A 
ATOM      8  C   UNL     1      -4.145  14.667  24.188  0.00  0.00    +0.000 A 
ATOM      9  C   UNL     1      -3.415  15.458  25.071  0.00  0.00    +0.000 A 
ATOM     10  C   UNL     1      -2.018  15.512  24.981  0.00  0.00    +0.000 A 
ATOM     11  C   UNL     1      -1.332  14.761  24.015  0.00  0.00    +0.000 A 
ATOM     12  C   UNL     1      -2.059  13.961  23.140  0.00  0.00    +0.000 A 
ATOM     13  C   UNL     1      -0.822  11.767  22.501  0.00  0.00    +0.000 C 
ATOM     14  O   UNL     1      -1.082  11.070  23.473  0.00  0.00    +0.000 OA
ATOM     15  N   UNL     1       0.142  11.501  21.555  0.00  0.00    +0.000 N 
ATOM     16  H   UNL     1      -0.653  14.473  20.706  0.00  0.00    +0.000 HD
ENDROOT
BRANCH  15  17
ATOM     17  C   UNL     1       1.057  10.358  21.594  0.00  0.00    +0.000 C 
BRANCH  17  18
ATOM     18  C   UNL     1       0.702   9.318  20.555  0.00  0.00    +0.000 A 
ATOM     19  C   UNL     1      -0.383   9.392  19.757  0.00  0.00    +0.000 A 
ATOM     20  C   UNL     1      -0.008   9.870  18.379  0.00  0.00    +0.000 A 
ATOM     21  O   UNL     1      -0.825  10.471  17.692  0.00  0.00    +0.000 OA
ATOM     22  O   UNL     1       1.273   9.541  17.920  0.00  0.00    +0.000 OA
ATOM     23  C   UNL     1       1.972   8.526  18.626  0.00  0.00    +0.000 A 
ATOM     24  C   UNL     1       2.628   7.563  17.848  0.00  0.00    +0.000 A 
ATOM     25  C   UNL     1       2.770   6.314  18.418  0.00  0.00    +0.000 A 
ATOM     26  C   UNL     1       2.246   6.085  19.705  0.00  0.00    +0.000 A 
ATOM     27  C   UNL     1       1.884   7.113  20.578  0.00  0.00    +0.000 A 
ATOM     28  C   UNL     1       1.684   8.364  20.001  0.00  0.00    +0.000 A 
ATOM     29  C   UNL     1       1.638   4.692  19.724  0.00  0.00    +0.000 C 
ATOM     30  C   UNL     1       1.634   4.367  18.208  0.00  0.00    +0.000 C 
ATOM     31  C   UNL     1       2.928   4.999  17.699  0.00  0.00    +0.000 C 
ENDBRANCH  17  18
ENDBRANCH  15  17
TORSDOF 2
ENDMDL
MODEL 4
REMARK VINA RESULT:      -8.2      3.032      8.669
REMARK  Name = 
REMARK  2 active torsions:
REMARK  status: ('A' for Active; 'I' for Inactive)
REMARK    1  A    between atoms: N_15  and  C_16
REMARK    2  A    between atoms: C_16  and  C_17
REMARK                            x       y       z     vdW  Elec       q    Type
REMARK                         _______ _______ _______ _____ _____    ______ ____
ROOT
ATOM      1  O   UNL     1      -0.602   9.853  23.373  0.00  0.00    +0.000 OA
ATOM      2  C   UNL     1      -0.957  10.942  22.941  0.00  0.00    +0.000 C 
ATOM      3  N   UNL     1      -2.095  11.597  23.369  0.00  0.00    +0.000 N 
ATOM      4  C   UNL     1      -2.238  12.883  22.740  0.00  0.00    +0.000 C 
ATOM      5  C   UNL     1      -1.770  14.030  23.666  0.00  0.00    +0.000 C 
ATOM      6  C   UNL     1      -2.761  15.194  23.518  0.00  0.00    +0.000 C 
ATOM      7  C   UNL     1      -3.910  14.584  22.789  0.00  0.00    +0.000 A 
ATOM      8  C   UNL     1      -5.116  15.212  22.507  0.00  0.00    +0.000 A 
ATOM      9  C   UNL     1      -6.084  14.502  21.802  0.00  0.00    +0.000 A 
ATOM     10  C   UNL     1      -5.837  13.185  21.393  0.00  0.00    +0.000 A 
ATOM     11  C   UNL     1      -4.609  12.566  21.671  0.00  0.00    +0.000 A 
ATOM     12  C   UNL     1      -3.636  13.278  22.365  0.00  0.00    +0.000 A 
ATOM     13  C   UNL     1      -1.219  12.702  21.605  0.00  0.00    +0.000 C 
ATOM     14  O   UNL     1      -1.123  13.402  20.605  0.00  0.00    +0.000 OA
ATOM     15  N   UNL     1      -0.368  11.677  21.953  0.00  0.00    +0.000 N 
ATOM     16  H   UNL     1      -2.674  11.236  24.116  0.00  0.00    +0.000 HD
ENDROOT
BRANCH  15  17
ATOM     17  C   UNL     1       0.764  11.220  21.145  0.00  0.00    +0.000 C 
BRANCH  17  18
ATOM     18  C   UNL     1       0.429   9.968  20.364  0.00  0.00    +0.000 A 
ATOM     19  C   UNL     1      -0.692   9.818  19.630  0.00  0.00    +0.000 A 
ATOM     20  C   UNL     1      -0.408  10.014  18.164  0.00  0.00    +0.000 A 
ATOM     21  O   UNL     1      -1.290  10.414  17.415  0.00  0.00    +0.000 OA
ATOM     22  O   UNL     1       0.869   9.662  17.713  0.00  0.00    +0.000 OA
ATOM     23  C   UNL     1       1.660   8.856  18.573  0.00  0.00    +0.000 A 
ATOM     24  C   UNL     1       2.340   7.786  17.976  0.00  0.00    +0.000 A 
ATOM     25  C   UNL     1       2.584   6.694  18.784  0.00  0.00    +0.000 A 
ATOM     26  C   UNL     1       2.132   6.713  20.118  0.00  0.00    +0.000 A 
ATOM     27  C   UNL     1       1.746   7.881  20.777  0.00  0.00    +0.000 A 
ATOM     28  C   UNL     1       1.443   8.972  19.966  0.00  0.00    +0.000 A 
ATOM     29  C   UNL     1       1.613   5.326  20.459  0.00  0.00    +0.000 C 
ATOM     30  C   UNL     1       1.563   4.690  19.046  0.00  0.00    +0.000 C 
ATOM     31  C   UNL     1       2.791   5.267  18.346  0.00  0.00    +0.000 C 
ENDBRANCH  17  18
ENDBRANCH  15  17
TORSDOF 2
ENDMDL
MODEL 5
REMARK VINA RESULT:      -8.0      3.369      8.977
REMARK  Name = 
REMARK  2 active torsions:
REMARK  status: ('A' for Active; 'I' for Inactive)
REMARK    1  A    between atoms: N_15  and  C_16
REMARK    2  A    between atoms: C_16  and  C_17
REMARK                            x       y       z     vdW  Elec       q    Type
REMARK                         _______ _______ _______ _____ _____    ______ ____
ROOT
ATOM      1  O   UNL     1      -0.332  13.643  19.220  0.00  0.00    +0.000 OA
ATOM      2  C   UNL     1      -1.173  13.318  20.049  0.00  0.00    +0.000 C 
ATOM      3  N   UNL     1      -2.341  14.022  20.266  0.00  0.00    +0.000 N 
ATOM      4  C   UNL     1      -3.172  13.383  21.251  0.00  0.00    +0.000 C 
ATOM      5  C   UNL     1      -4.312  12.567  20.598  0.00  0.00    +0.000 C 
ATOM      6  C   UNL     1      -5.589  12.789  21.422  0.00  0.00    +0.000 C 
ATOM      7  C   UNL     1      -5.240  13.944  22.300  0.00  0.00    +0.000 A 
ATOM      8  C   UNL     1      -6.110  14.597  23.163  0.00  0.00    +0.000 A 
ATOM      9  C   UNL     1      -5.619  15.653  23.926  0.00  0.00    +0.000 A 
ATOM     10  C   UNL     1      -4.277  16.040  23.816  0.00  0.00    +0.000 A 
ATOM     11  C   UNL     1      -3.404  15.363  22.952  0.00  0.00    +0.000 A 
ATOM     12  C   UNL     1      -3.890  14.300  22.197  0.00  0.00    +0.000 A 
ATOM     13  C   UNL     1      -2.134  12.419  21.843  0.00  0.00    +0.000 C 
ATOM     14  O   UNL     1      -2.236  11.811  22.901  0.00  0.00    +0.000 OA
ATOM     15  N   UNL     1      -1.112  12.278  20.931  0.00  0.00    +0.000 N 
ATOM     16  H   UNL     1      -2.598  14.822  19.703  0.00  0.00    +0.000 HD
ENDROOT
BRANCH  15  17
ATOM     17  C   UNL     1       0.056  11.414  21.112  0.00  0.00    +0.000 C 
BRANCH  17  18
ATOM     18  C   UNL     1      -0.055  10.141  20.303  0.00  0.00    +0.000 A 
ATOM     19  C   UNL     1      -1.099   9.851  19.498  0.00  0.00    +0.000 A 
ATOM     20  C   UNL     1      -0.755  10.108  18.055  0.00  0.00    +0.000 A 
ATOM     21  O   UNL     1      -1.636  10.397  17.254  0.00  0.00    +0.000 OA
ATOM     22  O   UNL     1       0.584   9.942  17.682  0.00  0.00    +0.000 OA
ATOM     23  C   UNL     1       1.424   9.236  18.584  0.00  0.00    +0.000 A 
ATOM     24  C   UNL     1       2.279   8.279  18.022  0.00  0.00    +0.000 A 
ATOM     25  C   UNL     1       2.620   7.217  18.835  0.00  0.00    +0.000 A 
ATOM     26  C   UNL     1       2.089   7.152  20.138  0.00  0.00    +0.000 A 
ATOM     27  C   UNL     1       1.507   8.246  20.781  0.00  0.00    +0.000 A 
ATOM     28  C   UNL     1       1.107   9.298  19.961  0.00  0.00    +0.000 A 
ATOM     29  C   UNL     1       1.745   5.702  20.435  0.00  0.00    +0.000 C 
ATOM     30  C   UNL     1       1.869   5.088  19.017  0.00  0.00    +0.000 C 
ATOM     31  C   UNL     1       3.047   5.839  18.399  0.00  0.00    +0.000 C 
ENDBRANCH  17  18
ENDBRANCH  15  17
TORSDOF 2
ENDMDL
MODEL 6
REMARK VINA RESULT:      -8.0      4.786      8.678
REMARK  Name = 
REMARK  2 active torsions:
REMARK  status: ('A' for Active; 'I' for Inactive)
REMARK    1  A    between atoms: N_15  and  C_16
REMARK    2  A    between atoms: C_16  and  C_17
REMARK                            x       y       z     vdW  Elec       q    Type
REMARK                         _______ _______ _______ _____ _____    ______ ____
ROOT
ATOM      1  O   UNL     1      -0.752  10.906  23.221  0.00  0.00    +0.000 OA
ATOM      2  C   UNL     1      -1.396  11.928  23.018  0.00  0.00    +0.000 C 
ATOM      3  N   UNL     1      -2.697  12.105  23.447  0.00  0.00    +0.000 N 
ATOM      4  C   UNL     1      -3.188  13.419  23.127  0.00  0.00    +0.000 C 
ATOM      5  C   UNL     1      -3.129  14.366  24.349  0.00  0.00    +0.000 C 
ATOM      6  C   UNL     1      -4.415  15.207  24.361  0.00  0.00    +0.000 C 
ATOM      7  C   UNL     1      -5.293  14.515  23.373  0.00  0.00    +0.000 A 
ATOM      8  C   UNL     1      -6.617  14.835  23.103  0.00  0.00    +0.000 A 
ATOM      9  C   UNL     1      -7.293  14.095  22.137  0.00  0.00    +0.000 A 
ATOM     10  C   UNL     1      -6.645  13.054  21.462  0.00  0.00    +0.000 A 
ATOM     11  C   UNL     1      -5.303  12.749  21.733  0.00  0.00    +0.000 A 
ATOM     12  C   UNL     1      -4.621  13.495  22.689  0.00  0.00    +0.000 A 
ATOM     13  C   UNL     1      -2.109  13.831  22.115  0.00  0.00    +0.000 C 
ATOM     14  O   UNL     1      -2.180  14.767  21.328  0.00  0.00    +0.000 OA
ATOM     15  N   UNL     1      -1.008  13.029  22.312  0.00  0.00    +0.000 N 
ATOM     16  H   UNL     1      -3.176  11.415  24.011  0.00  0.00    +0.000 HD
ENDROOT
BRANCH  15  17
ATOM     17  C   UNL     1       0.245  13.132  21.562  0.00  0.00    +0.000 C 
BRANCH  17  18
ATOM     18  C   UNL     1       0.032  12.931  20.078  0.00  0.00    +0.000 A 
ATOM     19  C   UNL     1       0.778  13.525  19.124  0.00  0.00    +0.000 A 
ATOM     20  C   UNL     1       1.800  12.570  18.566  0.00  0.00    +0.000 A 
ATOM     21  O   UNL     1       2.851  12.994  18.102  0.00  0.00    +0.000 OA
ATOM     22  O   UNL     1       1.459  11.212  18.553  0.00  0.00    +0.000 OA
ATOM     23  C   UNL     1       0.089  10.887  18.744  0.00  0.00    +0.000 A 
ATOM     24  C   UNL     1      -0.447   9.915  17.889  0.00  0.00    +0.000 A 
ATOM     25  C   UNL     1      -1.799  10.014  17.629  0.00  0.00    +0.000 A 
ATOM     26  C   UNL     1      -2.534  11.067  18.207  0.00  0.00    +0.000 A 
ATOM     27  C   UNL     1      -2.066  11.824  19.283  0.00  0.00    +0.000 A 
ATOM     28  C   UNL     1      -0.695  11.775  19.517  0.00  0.00    +0.000 A 
ATOM     29  C   UNL     1      -3.529  11.569  17.174  0.00  0.00    +0.000 C 
ATOM     30  C   UNL     1      -2.996  10.861  15.903  0.00  0.00    +0.000 C 
ATOM     31  C   UNL     1      -2.531   9.499  16.416  0.00  0.00    +0.000 C 
ENDBRANCH  17  18
ENDBRANCH  15  17
TORSDOF 2
ENDMDL
MODEL 7
REMARK VINA RESULT:      -7.7      2.867      8.777
REMARK  Name = 
REMARK  2 active torsions:
REMARK  status: ('A' for Active; 'I' for Inactive)
REMARK    1  A    between atoms: N_15  and  C_16
REMARK    2  A    between atoms: C_16  and  C_17
REMARK                            x       y       z     vdW  Elec       q    Type
REMARK                         _______ _______ _______ _____ _____    ______ ____
ROOT
ATOM      1  O   UNL     1      -1.338  10.755  23.348  0.00  0.00    +0.000 OA
ATOM      2  C   UNL     1      -1.590  11.676  22.581  0.00  0.00    +0.000 C 
ATOM      3  N   UNL     1      -2.772  12.388  22.609  0.00  0.00    +0.000 N 
ATOM      4  C   UNL     1      -2.776  13.451  21.640  0.00  0.00    +0.000 C 
ATOM      5  C   UNL     1      -2.457  14.819  22.288  0.00  0.00    +0.000 C 
ATOM      6  C   UNL     1      -3.383  15.871  21.659  0.00  0.00    +0.000 C 
ATOM      7  C   UNL     1      -4.397  15.053  20.933  0.00  0.00    +0.000 A 
ATOM      8  C   UNL     1      -5.522  15.545  20.284  0.00  0.00    +0.000 A 
ATOM      9  C   UNL     1      -6.364  14.643  19.640  0.00  0.00    +0.000 A 
ATOM     10  C   UNL     1      -6.074  13.273  19.653  0.00  0.00    +0.000 A 
ATOM     11  C   UNL     1      -4.928  12.788  20.299  0.00  0.00    +0.000 A 
ATOM     12  C   UNL     1      -4.078  13.689  20.934  0.00  0.00    +0.000 A 
ATOM     13  C   UNL     1      -1.577  13.000  20.794  0.00  0.00    +0.000 C 
ATOM     14  O   UNL     1      -1.292  13.406  19.674  0.00  0.00    +0.000 OA
ATOM     15  N   UNL     1      -0.821  12.133  21.550  0.00  0.00    +0.000 N 
ATOM     16  H   UNL     1      -3.480  12.226  23.313  0.00  0.00    +0.000 HD
ENDROOT
BRANCH  15  17
ATOM     17  C   UNL     1       0.426  11.507  21.107  0.00  0.00    +0.000 C 
BRANCH  17  18
ATOM     18  C   UNL     1       0.174  10.220  20.354  0.00  0.00    +0.000 A 
ATOM     19  C   UNL     1      -0.943   9.974  19.639  0.00  0.00    +0.000 A 
ATOM     20  C   UNL     1      -0.693  10.163  18.166  0.00  0.00    +0.000 A 
ATOM     21  O   UNL     1      -1.611  10.483  17.422  0.00  0.00    +0.000 OA
ATOM     22  O   UNL     1       0.601   9.896  17.703  0.00  0.00    +0.000 OA
ATOM     23  C   UNL     1       1.460   9.166  18.566  0.00  0.00    +0.000 A 
ATOM     24  C   UNL     1       2.208   8.137  17.979  0.00  0.00    +0.000 A 
ATOM     25  C   UNL     1       2.542   7.081  18.803  0.00  0.00    +0.000 A 
ATOM     26  C   UNL     1       2.107   7.093  20.143  0.00  0.00    +0.000 A 
ATOM     27  C   UNL     1       1.645   8.242  20.786  0.00  0.00    +0.000 A 
ATOM     28  C   UNL     1       1.253   9.292  19.960  0.00  0.00    +0.000 A 
ATOM     29  C   UNL     1       1.695   5.678  20.516  0.00  0.00    +0.000 C 
ATOM     30  C   UNL     1       1.673   5.014  19.116  0.00  0.00    +0.000 C 
ATOM     31  C   UNL     1       2.847   5.665  18.387  0.00  0.00    +0.000 C 
ENDBRANCH  17  18
ENDBRANCH  15  17
TORSDOF 2
ENDMDL
MODEL 8
REMARK VINA RESULT:      -7.6      1.389      2.515
REMARK  Name = 
REMARK  2 active torsions:
REMARK  status: ('A' for Active; 'I' for Inactive)
REMARK    1  A    between atoms: N_15  and  C_16
REMARK    2  A    between atoms: C_16  and  C_17
REMARK                            x       y       z     vdW  Elec       q    Type
REMARK                         _______ _______ _______ _____ _____    ______ ____
ROOT
ATOM      1  O   UNL     1       1.850   8.050  21.694  0.00  0.00    +0.000 OA
ATOM      2  C   UNL     1       2.056   7.665  20.549  0.00  0.00    +0.000 C 
ATOM      3  N   UNL     1       2.648   6.455  20.247  0.00  0.00    +0.000 N 
ATOM      4  C   UNL     1       2.711   6.232  18.828  0.00  0.00    +0.000 C 
ATOM      5  C   UNL     1       1.582   5.292  18.344  0.00  0.00    +0.000 C 
ATOM      6  C   UNL     1       2.176   4.334  17.301  0.00  0.00    +0.000 C 
ATOM      7  C   UNL     1       3.648   4.524  17.450  0.00  0.00    +0.000 A 
ATOM      8  C   UNL     1       4.630   3.795  16.793  0.00  0.00    +0.000 A 
ATOM      9  C   UNL     1       5.964   4.111  17.036  0.00  0.00    +0.000 A 
ATOM     10  C   UNL     1       6.296   5.141  17.925  0.00  0.00    +0.000 A 
ATOM     11  C   UNL     1       5.295   5.880  18.572  0.00  0.00    +0.000 A 
ATOM     12  C   UNL     1       3.961   5.574  18.322  0.00  0.00    +0.000 A 
ATOM     13  C   UNL     1       2.416   7.663  18.354  0.00  0.00    +0.000 C 
ATOM     14  O   UNL     1       2.604   8.102  17.226  0.00  0.00    +0.000 OA
ATOM     15  N   UNL     1       1.811   8.340  19.389  0.00  0.00    +0.000 N 
ATOM     16  H   UNL     1       2.894   5.784  20.964  0.00  0.00    +0.000 HD
ENDROOT
BRANCH  15  17
ATOM     17  C   UNL     1       1.345   9.727  19.320  0.00  0.00    +0.000 C 
BRANCH  17  18
ATOM     18  C   UNL     1      -0.089   9.862  19.784  0.00  0.00    +0.000 A 
ATOM     19  C   UNL     1      -0.495   9.622  21.047  0.00  0.00    +0.000 A 
ATOM     20  C   UNL     1      -0.689  10.910  21.805  0.00  0.00    +0.000 A 
ATOM     21  O   UNL     1      -0.557  10.933  23.022  0.00  0.00    +0.000 OA
ATOM     22  O   UNL     1      -1.078  12.030  21.062  0.00  0.00    +0.000 OA
ATOM     23  C   UNL     1      -1.576  11.798  19.752  0.00  0.00    +0.000 A 
ATOM     24  C   UNL     1      -2.728  12.506  19.387  0.00  0.00    +0.000 A 
ATOM     25  C   UNL     1      -3.544  11.899  18.453  0.00  0.00    +0.000 A 
ATOM     26  C   UNL     1      -3.189  10.632  17.952  0.00  0.00    +0.000 A 
ATOM     27  C   UNL     1      -1.908  10.090  18.082  0.00  0.00    +0.000 A 
ATOM     28  C   UNL     1      -1.098  10.660  19.061  0.00  0.00    +0.000 A 
ATOM     29  C   UNL     1      -4.458   9.807  17.815  0.00  0.00    +0.000 C 
ATOM     30  C   UNL     1      -5.455  10.694  18.604  0.00  0.00    +0.000 C 
ATOM     31  C   UNL     1      -5.023  12.118  18.260  0.00  0.00    +0.000 C 
ENDBRANCH  17  18
ENDBRANCH  15  17
TORSDOF 2
ENDMDL
MODEL 9
REMARK VINA RESULT:      -7.4      7.289      8.897
REMARK  Name = 
REMARK  2 active torsions:
REMARK  status: ('A' for Active; 'I' for Inactive)
REMARK    1  A    between atoms: N_15  and  C_16
REMARK    2  A    between atoms: C_16  and  C_17
REMARK                            x       y       z     vdW  Elec       q    Type
REMARK                         _______ _______ _______ _____ _____    ______ ____
ROOT
ATOM      1  O   UNL     1       5.125  15.007  17.393  0.00  0.00    +0.000 OA
ATOM      2  C   UNL     1       6.222  14.974  17.938  0.00  0.00    +0.000 C 
ATOM      3  N   UNL     1       7.341  14.407  17.363  0.00  0.00    +0.000 N 
ATOM      4  C   UNL     1       8.504  14.562  18.195  0.00  0.00    +0.000 C 
ATOM      5  C   UNL     1       9.400  15.730  17.717  0.00  0.00    +0.000 C 
ATOM      6  C   UNL     1      10.865  15.284  17.834  0.00  0.00    +0.000 C 
ATOM      7  C   UNL     1      10.765  13.812  18.053  0.00  0.00    +0.000 A 
ATOM      8  C   UNL     1      11.834  12.928  18.115  0.00  0.00    +0.000 A 
ATOM      9  C   UNL     1      11.567  11.580  18.342  0.00  0.00    +0.000 A 
ATOM     10  C   UNL     1      10.248  11.138  18.501  0.00  0.00    +0.000 A 
ATOM     11  C   UNL     1       9.177  12.043  18.451  0.00  0.00    +0.000 A 
ATOM     12  C   UNL     1       9.442  13.392  18.237  0.00  0.00    +0.000 A 
ATOM     13  C   UNL     1       7.804  14.963  19.502  0.00  0.00    +0.000 C 
ATOM     14  O   UNL     1       8.309  14.965  20.617  0.00  0.00    +0.000 OA
ATOM     15  N   UNL     1       6.541  15.414  19.190  0.00  0.00    +0.000 N 
ATOM     16  H   UNL     1       7.332  14.035  16.421  0.00  0.00    +0.000 HD
ENDROOT
BRANCH  15  17
ATOM     17  C   UNL     1       5.571  15.919  20.163  0.00  0.00    +0.000 C 
BRANCH  17  18
ATOM     18  C   UNL     1       4.754  14.802  20.775  0.00  0.00    +0.000 A 
ATOM     19  C   UNL     1       5.130  14.109  21.869  0.00  0.00    +0.000 A 
ATOM     20  C   UNL     1       4.400  14.595  23.093  0.00  0.00    +0.000 A 
ATOM     21  O   UNL     1       4.913  14.486  24.200  0.00  0.00    +0.000 OA
ATOM     22  O   UNL     1       3.111  15.106  22.902  0.00  0.00    +0.000 OA
ATOM     23  C   UNL     1       2.480  14.822  21.661  0.00  0.00    +0.000 A 
ATOM     24  C   UNL     1       1.138  14.423  21.720  0.00  0.00    +0.000 A 
ATOM     25  C   UNL     1       0.704  13.596  20.703  0.00  0.00    +0.000 A 
ATOM     26  C   UNL     1       1.616  13.201  19.705  0.00  0.00    +0.000 A 
ATOM     27  C   UNL     1       2.836  13.843  19.486  0.00  0.00    +0.000 A 
ATOM     28  C   UNL     1       3.308  14.634  20.530  0.00  0.00    +0.000 A 
ATOM     29  C   UNL     1       1.343  11.744  19.370  0.00  0.00    +0.000 C 
ATOM     30  C   UNL     1       0.399  11.359  20.537  0.00  0.00    +0.000 C 
ATOM     31  C   UNL     1      -0.440  12.616  20.754  0.00  0.00    +0.000 C 
ENDBRANCH  17  18
ENDBRANCH  15  17
TORSDOF 2
ENDMDL
